MODEL 1
REMARK VINA RESULT:      -6.9      0.000      0.000
REMARK  Name = 
REMARK  12 active torsions:
REMARK  status: ('A' for Active; 'I' for Inactive)
REMARK    1  A    between atoms: C_1  and  C_2
REMARK    2  A    between atoms: C_2  and  N_3
REMARK    3  A    between atoms: N_5  and  C_6
REMARK    4  A    between atoms: C_6  and  C_7
REMARK    5  A    between atoms: C_7  and  N_8
REMARK    6  A    between atoms: C_15  and  C_16
REMARK    7  A    between atoms: C_16  and  C_17
REMARK    8  A    between atoms: C_17  and  C_18
REMARK    9  A    between atoms: C_24  and  C_25
REMARK   10  A    between atoms: C_25  and  O_27
REMARK   11  A    between atoms: O_27  and  C_28
REMARK   12  A    between atoms: C_29  and  C_30
REMARK                            x       y       z     vdW  Elec       q    Type
REMARK                         _______ _______ _______ _____ _____    ______ ____
ROOT
ATOM      1  N   UNL     1       3.796   5.681  18.788  0.00  0.00    +0.000 N 
ATOM      2  C   UNL     1       3.639   6.911  18.132  0.00  0.00    +0.000 C 
ATOM      3  N   UNL     1       2.462   7.590  18.342  0.00  0.00    +0.000 N 
ATOM      4  N   UNL     1       4.504   7.428  17.322  0.00  0.00    +0.000 NA
ATOM      5  C   UNL     1       5.797   6.749  17.150  0.00  0.00    +0.000 C 
ATOM      6  C   UNL     1       5.732   5.265  17.435  0.00  0.00    +0.000 C 
ATOM      7  C   UNL     1       4.798   4.788  18.297  0.00  0.00    +0.000 C 
ATOM      8  C   UNL     1       4.735   3.341  18.731  0.00  0.00    +0.000 C 
ATOM      9  H   UNL     1       2.271   7.712  19.325  0.00  0.00    +0.000 HD
ENDROOT
BRANCH   1  11
ATOM     10  C   UNL     1       1.705   4.567  19.691  0.00  0.00    +0.000 C 
ATOM     11  C   UNL     1       2.988   5.334  19.987  0.00  0.00    +0.000 C 
ENDBRANCH   1  11
BRANCH   6  12
ATOM     12  C   UNL     1       6.761   4.422  16.753  0.00  0.00    +0.000 C 
ATOM     13  O   UNL     1       7.939   4.350  17.063  0.00  0.00    +0.000 OA
BRANCH  12  14
ATOM     14  O   UNL     1       6.197   3.783  15.696  0.00  0.00    +0.000 OA
ATOM     15  C   UNL     1       6.564   4.238  14.390  0.00  0.00    +0.000 C 
ENDBRANCH  12  14
ENDBRANCH   6  12
BRANCH   3  16
ATOM     16  C   UNL     1       2.176   8.858  17.652  0.00  0.00    +0.000 C 
BRANCH  16  17
ATOM     17  C   UNL     1       0.833   9.487  18.092  0.00  0.00    +0.000 C 
BRANCH  17  18
ATOM     18  N   UNL     1       0.890  10.196  19.398  0.00  0.00    +0.000 NA
ATOM     19  C   UNL     1      -0.408  10.257  20.104  0.00  0.00    +0.000 C 
ATOM     20  C   UNL     1      -1.435  11.151  19.394  0.00  0.00    +0.000 C 
ATOM     21  O   UNL     1      -0.950  12.495  19.302  0.00  0.00    +0.000 OA
ATOM     22  C   UNL     1       0.312  12.548  18.620  0.00  0.00    +0.000 C 
ATOM     23  C   UNL     1       1.357  11.595  19.238  0.00  0.00    +0.000 C 
ENDBRANCH  17  18
ENDBRANCH  16  17
ENDBRANCH   3  16
BRANCH   5  24
ATOM     24  C   UNL     1       6.831   7.496  18.033  0.00  0.00    +0.000 C 
BRANCH  24  25
ATOM     25  C   UNL     1       7.915   8.247  17.251  0.00  0.00    +0.000 C 
BRANCH  25  26
ATOM     26  C   UNL     1       8.421   9.465  17.984  0.00  0.00    +0.000 A 
ATOM     27  C   UNL     1       8.285  10.741  17.416  0.00  0.00    +0.000 A 
ATOM     28  C   UNL     1       8.743  11.870  18.097  0.00  0.00    +0.000 A 
ATOM     29  C   UNL     1       9.346  11.735  19.346  0.00  0.00    +0.000 A 
ATOM     30  C   UNL     1       9.488  10.471  19.917  0.00  0.00    +0.000 A 
ATOM     31  C   UNL     1       9.030   9.341  19.238  0.00  0.00    +0.000 A 
ENDBRANCH  25  26
ENDBRANCH  24  25
ENDBRANCH   5  24
TORSDOF 9
ENDMDL
MODEL 2
REMARK VINA RESULT:      -6.9      3.596      6.360
REMARK  Name = 
REMARK  12 active torsions:
REMARK  status: ('A' for Active; 'I' for Inactive)
REMARK    1  A    between atoms: C_1  and  C_2
REMARK    2  A    between atoms: C_2  and  N_3
REMARK    3  A    between atoms: N_5  and  C_6
REMARK    4  A    between atoms: C_6  and  C_7
REMARK    5  A    between atoms: C_7  and  N_8
REMARK    6  A    between atoms: C_15  and  C_16
REMARK    7  A    between atoms: C_16  and  C_17
REMARK    8  A    between atoms: C_17  and  C_18
REMARK    9  A    between atoms: C_24  and  C_25
REMARK   10  A    between atoms: C_25  and  O_27
REMARK   11  A    between atoms: O_27  and  C_28
REMARK   12  A    between atoms: C_29  and  C_30
REMARK                            x       y       z     vdW  Elec       q    Type
REMARK                         _______ _______ _______ _____ _____    ______ ____
ROOT
ATOM      1  N   UNL     1       1.499   8.702  19.174  0.00  0.00    +0.000 N 
ATOM      2  C   UNL     1       1.230   8.511  20.538  0.00  0.00    +0.000 C 
ATOM      3  N   UNL     1       0.649   9.557  21.216  0.00  0.00    +0.000 N 
ATOM      4  N   UNL     1       1.520   7.441  21.202  0.00  0.00    +0.000 NA
ATOM      5  C   UNL     1       2.071   6.290  20.471  0.00  0.00    +0.000 C 
ATOM      6  C   UNL     1       2.790   6.681  19.199  0.00  0.00    +0.000 C 
ATOM      7  C   UNL     1       2.435   7.819  18.551  0.00  0.00    +0.000 C 
ATOM      8  C   UNL     1       3.016   8.228  17.216  0.00  0.00    +0.000 C 
ATOM      9  H   UNL     1      -0.187   9.883  20.756  0.00  0.00    +0.000 HD
ENDROOT
BRANCH   1  11
ATOM     10  C   UNL     1       1.375  11.153  18.536  0.00  0.00    +0.000 C 
ATOM     11  C   UNL     1       0.799   9.750  18.385  0.00  0.00    +0.000 C 
ENDBRANCH   1  11
BRANCH   6  12
ATOM     12  C   UNL     1       3.842   5.732  18.723  0.00  0.00    +0.000 C 
ATOM     13  O   UNL     1       3.816   5.113  17.672  0.00  0.00    +0.000 OA
BRANCH  12  14
ATOM     14  O   UNL     1       4.813   5.619  19.665  0.00  0.00    +0.000 OA
ATOM     15  C   UNL     1       6.090   5.140  19.230  0.00  0.00    +0.000 C 
ENDBRANCH  12  14
ENDBRANCH   6  12
BRANCH   3  16
ATOM     16  C   UNL     1       0.383   9.478  22.661  0.00  0.00    +0.000 C 
BRANCH  16  17
ATOM     17  C   UNL     1      -0.885  10.260  23.079  0.00  0.00    +0.000 C 
BRANCH  17  18
ATOM     18  N   UNL     1      -0.714  11.736  23.091  0.00  0.00    +0.000 NA
ATOM     19  C   UNL     1      -1.904  12.473  23.570  0.00  0.00    +0.000 C 
ATOM     20  C   UNL     1      -3.095  12.379  22.605  0.00  0.00    +0.000 C 
ATOM     21  O   UNL     1      -2.751  12.933  21.331  0.00  0.00    +0.000 OA
ATOM     22  C   UNL     1      -1.604  12.277  20.770  0.00  0.00    +0.000 C 
ATOM     23  C   UNL     1      -0.403  12.260  21.738  0.00  0.00    +0.000 C 
ENDBRANCH  17  18
ENDBRANCH  16  17
ENDBRANCH   3  16
BRANCH   5  24
ATOM     24  C   UNL     1       0.905   5.296  20.231  0.00  0.00    +0.000 C 
BRANCH  24  25
ATOM     25  C   UNL     1       1.133   3.892  20.804  0.00  0.00    +0.000 C 
BRANCH  25  26
ATOM     26  C   UNL     1       2.034   3.049  19.935  0.00  0.00    +0.000 A 
ATOM     27  C   UNL     1       1.622   2.664  18.651  0.00  0.00    +0.000 A 
ATOM     28  C   UNL     1       2.459   1.893  17.842  0.00  0.00    +0.000 A 
ATOM     29  C   UNL     1       3.709   1.495  18.310  0.00  0.00    +0.000 A 
ATOM     30  C   UNL     1       4.126   1.871  19.586  0.00  0.00    +0.000 A 
ATOM     31  C   UNL     1       3.292   2.642  20.397  0.00  0.00    +0.000 A 
ENDBRANCH  25  26
ENDBRANCH  24  25
ENDBRANCH   5  24
TORSDOF 9
ENDMDL
MODEL 3
REMARK VINA RESULT:      -6.8      4.430      9.278
REMARK  Name = 
REMARK  12 active torsions:
REMARK  status: ('A' for Active; 'I' for Inactive)
REMARK    1  A    between atoms: C_1  and  C_2
REMARK    2  A    between atoms: C_2  and  N_3
REMARK    3  A    between atoms: N_5  and  C_6
REMARK    4  A    between atoms: C_6  and  C_7
REMARK    5  A    between atoms: C_7  and  N_8
REMARK    6  A    between atoms: C_15  and  C_16
REMARK    7  A    between atoms: C_16  and  C_17
REMARK    8  A    between atoms: C_17  and  C_18
REMARK    9  A    between atoms: C_24  and  C_25
REMARK   10  A    between atoms: C_25  and  O_27
REMARK   11  A    between atoms: O_27  and  C_28
REMARK   12  A    between atoms: C_29  and  C_30
REMARK                            x       y       z     vdW  Elec       q    Type
REMARK                         _______ _______ _______ _____ _____    ______ ____
ROOT
ATOM      1  N   UNL     1       1.172   9.788  20.933  0.00  0.00    +0.000 N 
ATOM      2  C   UNL     1       1.540   8.760  20.051  0.00  0.00    +0.000 C 
ATOM      3  N   UNL     1       1.977   7.582  20.608  0.00  0.00    +0.000 N 
ATOM      4  N   UNL     1       1.529   8.858  18.762  0.00  0.00    +0.000 NA
ATOM      5  C   UNL     1       0.991  10.085  18.157  0.00  0.00    +0.000 C 
ATOM      6  C   UNL     1       1.090  11.290  19.065  0.00  0.00    +0.000 C 
ATOM      7  C   UNL     1       1.097  11.116  20.411  0.00  0.00    +0.000 C 
ATOM      8  C   UNL     1       1.075  12.265  21.394  0.00  0.00    +0.000 C 
ATOM      9  H   UNL     1       1.321   7.219  21.283  0.00  0.00    +0.000 HD
ENDROOT
BRANCH   1  11
ATOM     10  C   UNL     1      -0.637   9.115  22.577  0.00  0.00    +0.000 C 
ATOM     11  C   UNL     1       0.818   9.504  22.349  0.00  0.00    +0.000 C 
ENDBRANCH   1  11
BRANCH   6  12
ATOM     12  C   UNL     1       1.136  12.621  18.386  0.00  0.00    +0.000 C 
ATOM     13  O   UNL     1       2.144  13.171  17.971  0.00  0.00    +0.000 OA
BRANCH  12  14
ATOM     14  O   UNL     1      -0.111  13.155  18.346  0.00  0.00    +0.000 OA
ATOM     15  C   UNL     1      -0.252  14.512  18.778  0.00  0.00    +0.000 C 
ENDBRANCH  12  14
ENDBRANCH   6  12
BRANCH   3  16
ATOM     16  C   UNL     1       2.444   6.466  19.769  0.00  0.00    +0.000 C 
BRANCH  16  17
ATOM     17  C   UNL     1       1.779   5.120  20.142  0.00  0.00    +0.000 C 
BRANCH  17  18
ATOM     18  N   UNL     1       2.683   3.944  20.041  0.00  0.00    +0.000 NA
ATOM     19  C   UNL     1       3.444   3.880  18.775  0.00  0.00    +0.000 C 
ATOM     20  C   UNL     1       2.554   3.600  17.555  0.00  0.00    +0.000 C 
ATOM     21  O   UNL     1       1.886   2.342  17.700  0.00  0.00    +0.000 OA
ATOM     22  C   UNL     1       1.106   2.303  18.904  0.00  0.00    +0.000 C 
ATOM     23  C   UNL     1       1.932   2.669  20.155  0.00  0.00    +0.000 C 
ENDBRANCH  17  18
ENDBRANCH  16  17
ENDBRANCH   3  16
BRANCH   5  24
ATOM     24  C   UNL     1      -0.461   9.778  17.707  0.00  0.00    +0.000 C 
BRANCH  24  25
ATOM     25  C   UNL     1      -1.541  10.168  18.724  0.00  0.00    +0.000 C 
BRANCH  25  26
ATOM     26  C   UNL     1      -2.772  10.749  18.070  0.00  0.00    +0.000 A 
ATOM     27  C   UNL     1      -3.613  11.613  18.787  0.00  0.00    +0.000 A 
ATOM     28  C   UNL     1      -4.746  12.159  18.181  0.00  0.00    +0.000 A 
ATOM     29  C   UNL     1      -5.051  11.843  16.858  0.00  0.00    +0.000 A 
ATOM     30  C   UNL     1      -4.222  10.983  16.139  0.00  0.00    +0.000 A 
ATOM     31  C   UNL     1      -3.088  10.436  16.743  0.00  0.00    +0.000 A 
ENDBRANCH  25  26
ENDBRANCH  24  25
ENDBRANCH   5  24
TORSDOF 9
ENDMDL
MODEL 4
REMARK VINA RESULT:      -6.8      4.309      9.107
REMARK  Name = 
REMARK  12 active torsions:
REMARK  status: ('A' for Active; 'I' for Inactive)
REMARK    1  A    between atoms: C_1  and  C_2
REMARK    2  A    between atoms: C_2  and  N_3
REMARK    3  A    between atoms: N_5  and  C_6
REMARK    4  A    between atoms: C_6  and  C_7
REMARK    5  A    between atoms: C_7  and  N_8
REMARK    6  A    between atoms: C_15  and  C_16
REMARK    7  A    between atoms: C_16  and  C_17
REMARK    8  A    between atoms: C_17  and  C_18
REMARK    9  A    between atoms: C_24  and  C_25
REMARK   10  A    between atoms: C_25  and  O_27
REMARK   11  A    between atoms: O_27  and  C_28
REMARK   12  A    between atoms: C_29  and  C_30
REMARK                            x       y       z     vdW  Elec       q    Type
REMARK                         _______ _______ _______ _____ _____    ______ ____
ROOT
ATOM      1  N   UNL     1       0.342   9.576  21.247  0.00  0.00    +0.000 N 
ATOM      2  C   UNL     1       1.108   8.658  20.513  0.00  0.00    +0.000 C 
ATOM      3  N   UNL     1       1.401   7.458  21.118  0.00  0.00    +0.000 N 
ATOM      4  N   UNL     1       1.583   8.875  19.330  0.00  0.00    +0.000 NA
ATOM      5  C   UNL     1       1.212  10.123  18.645  0.00  0.00    +0.000 C 
ATOM      6  C   UNL     1       0.850  11.240  19.597  0.00  0.00    +0.000 C 
ATOM      7  C   UNL     1       0.356  10.941  20.825  0.00  0.00    +0.000 C 
ATOM      8  C   UNL     1      -0.142  11.989  21.795  0.00  0.00    +0.000 C 
ATOM      9  H   UNL     1       0.571   6.998  21.459  0.00  0.00    +0.000 HD
ENDROOT
BRANCH   1  11
ATOM     10  C   UNL     1       0.090   9.435  23.765  0.00  0.00    +0.000 C 
ATOM     11  C   UNL     1      -0.501   9.141  22.392  0.00  0.00    +0.000 C 
ENDBRANCH   1  11
BRANCH   6  12
ATOM     12  C   UNL     1       1.035  12.629  19.077  0.00  0.00    +0.000 C 
ATOM     13  O   UNL     1       0.213  13.262  18.435  0.00  0.00    +0.000 OA
BRANCH  12  14
ATOM     14  O   UNL     1       2.285  13.065  19.379  0.00  0.00    +0.000 OA
ATOM     15  C   UNL     1       2.957  13.851  18.390  0.00  0.00    +0.000 C 
ENDBRANCH  12  14
ENDBRANCH   6  12
BRANCH   3  16
ATOM     16  C   UNL     1       2.250   6.454  20.456  0.00  0.00    +0.000 C 
BRANCH  16  17
ATOM     17  C   UNL     1       1.729   5.010  20.651  0.00  0.00    +0.000 C 
BRANCH  17  18
ATOM     18  N   UNL     1       2.640   3.958  20.130  0.00  0.00    +0.000 NA
ATOM     19  C   UNL     1       3.092   4.189  18.741  0.00  0.00    +0.000 C 
ATOM     20  C   UNL     1       1.959   4.052  17.713  0.00  0.00    +0.000 C 
ATOM     21  O   UNL     1       1.403   2.734  17.753  0.00  0.00    +0.000 OA
ATOM     22  C   UNL     1       0.923   2.410  19.067  0.00  0.00    +0.000 C 
ATOM     23  C   UNL     1       1.998   2.621  20.155  0.00  0.00    +0.000 C 
ENDBRANCH  17  18
ENDBRANCH  16  17
ENDBRANCH   3  16
BRANCH   5  24
ATOM     24  C   UNL     1       0.076   9.778  17.647  0.00  0.00    +0.000 C 
BRANCH  24  25
ATOM     25  C   UNL     1      -1.341   9.916  18.219  0.00  0.00    +0.000 C 
BRANCH  25  26
ATOM     26  C   UNL     1      -2.366  10.240  17.159  0.00  0.00    +0.000 A 
ATOM     27  C   UNL     1      -3.441  11.092  17.451  0.00  0.00    +0.000 A 
ATOM     28  C   UNL     1      -4.385  11.401  16.469  0.00  0.00    +0.000 A 
ATOM     29  C   UNL     1      -4.266  10.858  15.192  0.00  0.00    +0.000 A 
ATOM     30  C   UNL     1      -3.202  10.008  14.893  0.00  0.00    +0.000 A 
ATOM     31  C   UNL     1      -2.257   9.698  15.873  0.00  0.00    +0.000 A 
ENDBRANCH  25  26
ENDBRANCH  24  25
ENDBRANCH   5  24
TORSDOF 9
ENDMDL
MODEL 5
REMARK VINA RESULT:      -6.7      3.686     10.319
REMARK  Name = 
REMARK  12 active torsions:
REMARK  status: ('A' for Active; 'I' for Inactive)
REMARK    1  A    between atoms: C_1  and  C_2
REMARK    2  A    between atoms: C_2  and  N_3
REMARK    3  A    between atoms: N_5  and  C_6
REMARK    4  A    between atoms: C_6  and  C_7
REMARK    5  A    between atoms: C_7  and  N_8
REMARK    6  A    between atoms: C_15  and  C_16
REMARK    7  A    between atoms: C_16  and  C_17
REMARK    8  A    between atoms: C_17  and  C_18
REMARK    9  A    between atoms: C_24  and  C_25
REMARK   10  A    between atoms: C_25  and  O_27
REMARK   11  A    between atoms: O_27  and  C_28
REMARK   12  A    between atoms: C_29  and  C_30
REMARK                            x       y       z     vdW  Elec       q    Type
REMARK                         _______ _______ _______ _____ _____    ______ ____
ROOT
ATOM      1  N   UNL     1       0.348  10.063  20.626  0.00  0.00    +0.000 N 
ATOM      2  C   UNL     1       0.683   9.671  19.321  0.00  0.00    +0.000 C 
ATOM      3  N   UNL     1       1.724   8.785  19.179  0.00  0.00    +0.000 N 
ATOM      4  N   UNL     1       0.106  10.110  18.251  0.00  0.00    +0.000 NA
ATOM      5  C   UNL     1      -1.057  10.999  18.395  0.00  0.00    +0.000 C 
ATOM      6  C   UNL     1      -1.062  11.767  19.697  0.00  0.00    +0.000 C 
ATOM      7  C   UNL     1      -0.437  11.247  20.784  0.00  0.00    +0.000 C 
ATOM      8  C   UNL     1      -0.490  11.886  22.154  0.00  0.00    +0.000 C 
ATOM      9  H   UNL     1       1.597   7.962  19.749  0.00  0.00    +0.000 HD
ENDROOT
BRANCH   1  11
ATOM     10  C   UNL     1      -0.351   8.346  22.356  0.00  0.00    +0.000 C 
ATOM     11  C   UNL     1       0.746   9.249  21.806  0.00  0.00    +0.000 C 
ENDBRANCH   1  11
BRANCH   6  12
ATOM     12  C   UNL     1      -1.812  13.059  19.692  0.00  0.00    +0.000 C 
ATOM     13  O   UNL     1      -1.313  14.168  19.590  0.00  0.00    +0.000 OA
BRANCH  12  14
ATOM     14  O   UNL     1      -3.135  12.819  19.875  0.00  0.00    +0.000 OA
ATOM     15  C   UNL     1      -3.724  13.302  21.086  0.00  0.00    +0.000 C 
ENDBRANCH  12  14
ENDBRANCH   6  12
BRANCH   3  16
ATOM     16  C   UNL     1       2.192   8.361  17.850  0.00  0.00    +0.000 C 
BRANCH  16  17
ATOM     17  C   UNL     1       3.179   7.171  17.916  0.00  0.00    +0.000 C 
BRANCH  17  18
ATOM     18  N   UNL     1       2.690   6.016  18.713  0.00  0.00    +0.000 NA
ATOM     19  C   UNL     1       3.652   5.540  19.731  0.00  0.00    +0.000 C 
ATOM     20  C   UNL     1       4.902   4.893  19.118  0.00  0.00    +0.000 C 
ATOM     21  O   UNL     1       4.540   3.756  18.327  0.00  0.00    +0.000 OA
ATOM     22  C   UNL     1       3.609   4.113  17.296  0.00  0.00    +0.000 C 
ATOM     23  C   UNL     1       2.372   4.853  17.848  0.00  0.00    +0.000 C 
ENDBRANCH  17  18
ENDBRANCH  16  17
ENDBRANCH   3  16
BRANCH   5  24
ATOM     24  C   UNL     1      -2.326  10.130  18.194  0.00  0.00    +0.000 C 
BRANCH  24  25
ATOM     25  C   UNL     1      -3.192  10.531  16.993  0.00  0.00    +0.000 C 
BRANCH  25  26
ATOM     26  C   UNL     1      -4.559  11.024  17.401  0.00  0.00    +0.000 A 
ATOM     27  C   UNL     1      -5.301  10.333  18.370  0.00  0.00    +0.000 A 
ATOM     28  C   UNL     1      -6.561  10.792  18.756  0.00  0.00    +0.000 A 
ATOM     29  C   UNL     1      -7.093  11.941  18.174  0.00  0.00    +0.000 A 
ATOM     30  C   UNL     1      -6.365  12.633  17.208  0.00  0.00    +0.000 A 
ATOM     31  C   UNL     1      -5.104  12.175  16.821  0.00  0.00    +0.000 A 
ENDBRANCH  25  26
ENDBRANCH  24  25
ENDBRANCH   5  24
TORSDOF 9
ENDMDL
MODEL 6
REMARK VINA RESULT:      -6.7      3.350      9.816
REMARK  Name = 
REMARK  12 active torsions:
REMARK  status: ('A' for Active; 'I' for Inactive)
REMARK    1  A    between atoms: C_1  and  C_2
REMARK    2  A    between atoms: C_2  and  N_3
REMARK    3  A    between atoms: N_5  and  C_6
REMARK    4  A    between atoms: C_6  and  C_7
REMARK    5  A    between atoms: C_7  and  N_8
REMARK    6  A    between atoms: C_15  and  C_16
REMARK    7  A    between atoms: C_16  and  C_17
REMARK    8  A    between atoms: C_17  and  C_18
REMARK    9  A    between atoms: C_24  and  C_25
REMARK   10  A    between atoms: C_25  and  O_27
REMARK   11  A    between atoms: O_27  and  C_28
REMARK   12  A    between atoms: C_29  and  C_30
REMARK                            x       y       z     vdW  Elec       q    Type
REMARK                         _______ _______ _______ _____ _____    ______ ____
ROOT
ATOM      1  N   UNL     1       0.698   9.743  20.428  0.00  0.00    +0.000 N 
ATOM      2  C   UNL     1       1.120   9.170  19.219  0.00  0.00    +0.000 C 
ATOM      3  N   UNL     1       2.082   8.190  19.290  0.00  0.00    +0.000 N 
ATOM      4  N   UNL     1       0.696   9.523  18.050  0.00  0.00    +0.000 NA
ATOM      5  C   UNL     1      -0.387  10.515  17.968  0.00  0.00    +0.000 C 
ATOM      6  C   UNL     1      -0.446  11.433  19.168  0.00  0.00    +0.000 C 
ATOM      7  C   UNL     1       0.018  10.998  20.368  0.00  0.00    +0.000 C 
ATOM      8  C   UNL     1      -0.108  11.800  21.644  0.00  0.00    +0.000 C 
ATOM      9  H   UNL     1       1.822   7.456  19.931  0.00  0.00    +0.000 HD
ENDROOT
BRANCH   1  11
ATOM     10  C   UNL     1      -0.367   8.466  22.342  0.00  0.00    +0.000 C 
ATOM     11  C   UNL     1       0.900   9.047  21.727  0.00  0.00    +0.000 C 
ENDBRANCH   1  11
BRANCH   6  12
ATOM     12  C   UNL     1      -1.066  12.773  18.938  0.00  0.00    +0.000 C 
ATOM     13  O   UNL     1      -2.180  13.111  19.303  0.00  0.00    +0.000 OA
BRANCH  12  14
ATOM     14  O   UNL     1      -0.221  13.547  18.211  0.00  0.00    +0.000 OA
ATOM     15  C   UNL     1       0.650  14.420  18.937  0.00  0.00    +0.000 C 
ENDBRANCH  12  14
ENDBRANCH   6  12
BRANCH   3  16
ATOM     16  C   UNL     1       2.636   7.572  18.074  0.00  0.00    +0.000 C 
BRANCH  16  17
ATOM     17  C   UNL     1       2.644   6.026  18.141  0.00  0.00    +0.000 C 
BRANCH  17  18
ATOM     18  N   UNL     1       3.739   5.387  17.366  0.00  0.00    +0.000 NA
ATOM     19  C   UNL     1       3.779   3.913  17.487  0.00  0.00    +0.000 C 
ATOM     20  C   UNL     1       4.175   3.439  18.892  0.00  0.00    +0.000 C 
ATOM     21  O   UNL     1       5.481   3.917  19.233  0.00  0.00    +0.000 OA
ATOM     22  C   UNL     1       5.548   5.348  19.154  0.00  0.00    +0.000 C 
ATOM     23  C   UNL     1       5.070   5.888  17.789  0.00  0.00    +0.000 C 
ENDBRANCH  17  18
ENDBRANCH  16  17
ENDBRANCH   3  16
BRANCH   5  24
ATOM     24  C   UNL     1      -1.707   9.737  17.728  0.00  0.00    +0.000 C 
BRANCH  24  25
ATOM     25  C   UNL     1      -2.615  10.335  16.647  0.00  0.00    +0.000 C 
BRANCH  25  26
ATOM     26  C   UNL     1      -3.961  10.756  17.186  0.00  0.00    +0.000 A 
ATOM     27  C   UNL     1      -4.641  11.845  16.622  0.00  0.00    +0.000 A 
ATOM     28  C   UNL     1      -5.891  12.229  17.112  0.00  0.00    +0.000 A 
ATOM     29  C   UNL     1      -6.467  11.533  18.173  0.00  0.00    +0.000 A 
ATOM     30  C   UNL     1      -5.797  10.451  18.742  0.00  0.00    +0.000 A 
ATOM     31  C   UNL     1      -4.548  10.065  18.253  0.00  0.00    +0.000 A 
ENDBRANCH  25  26
ENDBRANCH  24  25
ENDBRANCH   5  24
TORSDOF 9
ENDMDL
MODEL 7
REMARK VINA RESULT:      -6.7      3.706      6.397
REMARK  Name = 
REMARK  12 active torsions:
REMARK  status: ('A' for Active; 'I' for Inactive)
REMARK    1  A    between atoms: C_1  and  C_2
REMARK    2  A    between atoms: C_2  and  N_3
REMARK    3  A    between atoms: N_5  and  C_6
REMARK    4  A    between atoms: C_6  and  C_7
REMARK    5  A    between atoms: C_7  and  N_8
REMARK    6  A    between atoms: C_15  and  C_16
REMARK    7  A    between atoms: C_16  and  C_17
REMARK    8  A    between atoms: C_17  and  C_18
REMARK    9  A    between atoms: C_24  and  C_25
REMARK   10  A    between atoms: C_25  and  O_27
REMARK   11  A    between atoms: O_27  and  C_28
REMARK   12  A    between atoms: C_29  and  C_30
REMARK                            x       y       z     vdW  Elec       q    Type
REMARK                         _______ _______ _______ _____ _____    ______ ____
ROOT
ATOM      1  N   UNL     1       1.599   8.795  19.120  0.00  0.00    +0.000 N 
ATOM      2  C   UNL     1       1.194   8.633  20.453  0.00  0.00    +0.000 C 
ATOM      3  N   UNL     1       0.559   9.696  21.050  0.00  0.00    +0.000 N 
ATOM      4  N   UNL     1       1.408   7.574  21.163  0.00  0.00    +0.000 NA
ATOM      5  C   UNL     1       2.018   6.404  20.512  0.00  0.00    +0.000 C 
ATOM      6  C   UNL     1       2.863   6.765  19.311  0.00  0.00    +0.000 C 
ATOM      7  C   UNL     1       2.584   7.893  18.610  0.00  0.00    +0.000 C 
ATOM      8  C   UNL     1       3.298   8.270  17.331  0.00  0.00    +0.000 C 
ATOM      9  H   UNL     1      -0.225  10.019  20.504  0.00  0.00    +0.000 HD
ENDROOT
BRANCH   1  11
ATOM     10  C   UNL     1      -0.492   9.633  17.958  0.00  0.00    +0.000 C 
ATOM     11  C   UNL     1       0.991   9.832  18.246  0.00  0.00    +0.000 C 
ENDBRANCH   1  11
BRANCH   6  12
ATOM     12  C   UNL     1       3.948   5.799  18.960  0.00  0.00    +0.000 C 
ATOM     13  O   UNL     1       4.944   5.577  19.629  0.00  0.00    +0.000 OA
BRANCH  12  14
ATOM     14  O   UNL     1       3.687   5.240  17.751  0.00  0.00    +0.000 OA
ATOM     15  C   UNL     1       4.811   4.858  16.954  0.00  0.00    +0.000 C 
ENDBRANCH  12  14
ENDBRANCH   6  12
BRANCH   3  16
ATOM     16  C   UNL     1       0.151   9.647  22.464  0.00  0.00    +0.000 C 
BRANCH  16  17
ATOM     17  C   UNL     1      -0.789  10.813  22.854  0.00  0.00    +0.000 C 
BRANCH  17  18
ATOM     18  N   UNL     1      -0.860  11.903  21.846  0.00  0.00    +0.000 NA
ATOM     19  C   UNL     1      -0.388  13.213  22.345  0.00  0.00    +0.000 C 
ATOM     20  C   UNL     1      -1.313  13.815  23.413  0.00  0.00    +0.000 C 
ATOM     21  O   UNL     1      -2.624  14.025  22.878  0.00  0.00    +0.000 OA
ATOM     22  C   UNL     1      -3.181  12.804  22.370  0.00  0.00    +0.000 C 
ATOM     23  C   UNL     1      -2.247  12.105  21.359  0.00  0.00    +0.000 C 
ENDBRANCH  17  18
ENDBRANCH  16  17
ENDBRANCH   3  16
BRANCH   5  24
ATOM     24  C   UNL     1       0.872   5.415  20.177  0.00  0.00    +0.000 C 
BRANCH  24  25
ATOM     25  C   UNL     1       1.056   4.004  20.750  0.00  0.00    +0.000 C 
BRANCH  25  26
ATOM     26  C   UNL     1       1.953   3.142  19.895  0.00  0.00    +0.000 A 
ATOM     27  C   UNL     1       3.197   2.713  20.381  0.00  0.00    +0.000 A 
ATOM     28  C   UNL     1       4.023   1.907  19.596  0.00  0.00    +0.000 A 
ATOM     29  C   UNL     1       3.617   1.530  18.317  0.00  0.00    +0.000 A 
ATOM     30  C   UNL     1       2.384   1.954  17.824  0.00  0.00    +0.000 A 
ATOM     31  C   UNL     1       1.556   2.759  18.609  0.00  0.00    +0.000 A 
ENDBRANCH  25  26
ENDBRANCH  24  25
ENDBRANCH   5  24
TORSDOF 9
ENDMDL
MODEL 8
REMARK VINA RESULT:      -6.7      3.693      6.375
REMARK  Name = 
REMARK  12 active torsions:
REMARK  status: ('A' for Active; 'I' for Inactive)
REMARK    1  A    between atoms: C_1  and  C_2
REMARK    2  A    between atoms: C_2  and  N_3
REMARK    3  A    between atoms: N_5  and  C_6
REMARK    4  A    between atoms: C_6  and  C_7
REMARK    5  A    between atoms: C_7  and  N_8
REMARK    6  A    between atoms: C_15  and  C_16
REMARK    7  A    between atoms: C_16  and  C_17
REMARK    8  A    between atoms: C_17  and  C_18
REMARK    9  A    between atoms: C_24  and  C_25
REMARK   10  A    between atoms: C_25  and  O_27
REMARK   11  A    between atoms: O_27  and  C_28
REMARK   12  A    between atoms: C_29  and  C_30
REMARK                            x       y       z     vdW  Elec       q    Type
REMARK                         _______ _______ _______ _____ _____    ______ ____
ROOT
ATOM      1  N   UNL     1       1.551   8.680  19.171  0.00  0.00    +0.000 N 
ATOM      2  C   UNL     1       1.157   8.529  20.509  0.00  0.00    +0.000 C 
ATOM      3  N   UNL     1       0.508   9.589  21.096  0.00  0.00    +0.000 N 
ATOM      4  N   UNL     1       1.393   7.483  21.231  0.00  0.00    +0.000 NA
ATOM      5  C   UNL     1       2.018   6.315  20.592  0.00  0.00    +0.000 C 
ATOM      6  C   UNL     1       2.850   6.674  19.380  0.00  0.00    +0.000 C 
ATOM      7  C   UNL     1       2.547   7.788  18.666  0.00  0.00    +0.000 C 
ATOM      8  C   UNL     1       3.247   8.160  17.378  0.00  0.00    +0.000 C 
ATOM      9  H   UNL     1      -0.284   9.892  20.550  0.00  0.00    +0.000 HD
ENDROOT
BRANCH   1  11
ATOM     10  C   UNL     1       1.538  11.085  18.370  0.00  0.00    +0.000 C 
ATOM     11  C   UNL     1       0.920   9.695  18.287  0.00  0.00    +0.000 C 
ENDBRANCH   1  11
BRANCH   6  12
ATOM     12  C   UNL     1       3.948   5.722  19.035  0.00  0.00    +0.000 C 
ATOM     13  O   UNL     1       4.952   5.525  19.701  0.00  0.00    +0.000 OA
BRANCH  12  14
ATOM     14  O   UNL     1       3.689   5.143  17.835  0.00  0.00    +0.000 OA
ATOM     15  C   UNL     1       4.815   4.786  17.027  0.00  0.00    +0.000 C 
ENDBRANCH  12  14
ENDBRANCH   6  12
BRANCH   3  16
ATOM     16  C   UNL     1       0.110   9.552  22.513  0.00  0.00    +0.000 C 
BRANCH  16  17
ATOM     17  C   UNL     1      -0.876  10.686  22.885  0.00  0.00    +0.000 C 
BRANCH  17  18
ATOM     18  N   UNL     1      -0.726  11.918  22.067  0.00  0.00    +0.000 NA
ATOM     19  C   UNL     1      -0.676  13.163  22.864  0.00  0.00    +0.000 C 
ATOM     20  C   UNL     1      -2.013  13.492  23.545  0.00  0.00    +0.000 C 
ATOM     21  O   UNL     1      -3.044  13.667  22.566  0.00  0.00    +0.000 OA
ATOM     22  C   UNL     1      -3.180  12.501  21.739  0.00  0.00    +0.000 C 
ATOM     23  C   UNL     1      -1.842  12.070  21.102  0.00  0.00    +0.000 C 
ENDBRANCH  17  18
ENDBRANCH  16  17
ENDBRANCH   3  16
BRANCH   5  24
ATOM     24  C   UNL     1       0.887   5.302  20.277  0.00  0.00    +0.000 C 
BRANCH  24  25
ATOM     25  C   UNL     1       1.112   3.895  20.845  0.00  0.00    +0.000 C 
BRANCH  25  26
ATOM     26  C   UNL     1       1.999   3.049  19.965  0.00  0.00    +0.000 A 
ATOM     27  C   UNL     1       1.569   2.664  18.686  0.00  0.00    +0.000 A 
ATOM     28  C   UNL     1       2.393   1.889  17.867  0.00  0.00    +0.000 A 
ATOM     29  C   UNL     1       3.648   1.488  18.320  0.00  0.00    +0.000 A 
ATOM     30  C   UNL     1       4.083   1.864  19.590  0.00  0.00    +0.000 A 
ATOM     31  C   UNL     1       3.261   2.639  20.410  0.00  0.00    +0.000 A 
ENDBRANCH  25  26
ENDBRANCH  24  25
ENDBRANCH   5  24
TORSDOF 9
ENDMDL
MODEL 9
REMARK VINA RESULT:      -6.6      3.446      7.280
REMARK  Name = 
REMARK  12 active torsions:
REMARK  status: ('A' for Active; 'I' for Inactive)
REMARK    1  A    between atoms: C_1  and  C_2
REMARK    2  A    between atoms: C_2  and  N_3
REMARK    3  A    between atoms: N_5  and  C_6
REMARK    4  A    between atoms: C_6  and  C_7
REMARK    5  A    between atoms: C_7  and  N_8
REMARK    6  A    between atoms: C_15  and  C_16
REMARK    7  A    between atoms: C_16  and  C_17
REMARK    8  A    between atoms: C_17  and  C_18
REMARK    9  A    between atoms: C_24  and  C_25
REMARK   10  A    between atoms: C_25  and  O_27
REMARK   11  A    between atoms: O_27  and  C_28
REMARK   12  A    between atoms: C_29  and  C_30
REMARK                            x       y       z     vdW  Elec       q    Type
REMARK                         _______ _______ _______ _____ _____    ______ ____
ROOT
ATOM      1  N   UNL     1       3.362   4.039  19.394  0.00  0.00    +0.000 N 
ATOM      2  C   UNL     1       4.472   4.802  19.002  0.00  0.00    +0.000 C 
ATOM      3  N   UNL     1       5.625   4.121  18.693  0.00  0.00    +0.000 N 
ATOM      4  N   UNL     1       4.493   6.094  18.946  0.00  0.00    +0.000 NA
ATOM      5  C   UNL     1       3.244   6.827  19.200  0.00  0.00    +0.000 C 
ATOM      6  C   UNL     1       2.273   6.065  20.073  0.00  0.00    +0.000 C 
ATOM      7  C   UNL     1       2.305   4.708  20.085  0.00  0.00    +0.000 C 
ATOM      8  C   UNL     1       1.299   3.863  20.834  0.00  0.00    +0.000 C 
ATOM      9  H   UNL     1       5.462   3.399  18.008  0.00  0.00    +0.000 HD
ENDROOT
BRANCH   1  11
ATOM     10  C   UNL     1       2.591   2.297  17.721  0.00  0.00    +0.000 C 
ATOM     11  C   UNL     1       3.258   2.594  19.058  0.00  0.00    +0.000 C 
ENDBRANCH   1  11
BRANCH   6  12
ATOM     12  C   UNL     1       1.301   6.893  20.849  0.00  0.00    +0.000 C 
ATOM     13  O   UNL     1       0.115   6.643  20.997  0.00  0.00    +0.000 OA
BRANCH  12  14
ATOM     14  O   UNL     1       1.924   8.002  21.324  0.00  0.00    +0.000 OA
ATOM     15  C   UNL     1       1.095   9.114  21.675  0.00  0.00    +0.000 C 
ENDBRANCH  12  14
ENDBRANCH   6  12
BRANCH   3  16
ATOM     16  C   UNL     1       6.861   4.834  18.331  0.00  0.00    +0.000 C 
BRANCH  16  17
ATOM     17  C   UNL     1       7.371   4.465  16.917  0.00  0.00    +0.000 C 
BRANCH  17  18
ATOM     18  N   UNL     1       7.073   5.483  15.876  0.00  0.00    +0.000 NA
ATOM     19  C   UNL     1       5.645   5.860  15.798  0.00  0.00    +0.000 C 
ATOM     20  C   UNL     1       4.753   4.722  15.280  0.00  0.00    +0.000 C 
ATOM     21  O   UNL     1       5.151   4.334  13.961  0.00  0.00    +0.000 OA
ATOM     22  C   UNL     1       6.530   3.938  13.928  0.00  0.00    +0.000 C 
ATOM     23  C   UNL     1       7.466   5.011  14.525  0.00  0.00    +0.000 C 
ENDBRANCH  17  18
ENDBRANCH  16  17
ENDBRANCH   3  16
BRANCH   5  24
ATOM     24  C   UNL     1       2.650   7.215  17.821  0.00  0.00    +0.000 C 
BRANCH  24  25
ATOM     25  C   UNL     1       2.910   8.667  17.398  0.00  0.00    +0.000 C 
BRANCH  25  26
ATOM     26  C   UNL     1       1.844   9.615  17.889  0.00  0.00    +0.000 A 
ATOM     27  C   UNL     1       2.188  10.900  18.334  0.00  0.00    +0.000 A 
ATOM     28  C   UNL     1       1.202  11.782  18.779  0.00  0.00    +0.000 A 
ATOM     29  C   UNL     1      -0.135  11.387  18.788  0.00  0.00    +0.000 A 
ATOM     30  C   UNL     1      -0.486  10.111  18.349  0.00  0.00    +0.000 A 
ATOM     31  C   UNL     1       0.498   9.228  17.904  0.00  0.00    +0.000 A 
ENDBRANCH  25  26
ENDBRANCH  24  25
ENDBRANCH   5  24
TORSDOF 9
ENDMDL
