MODEL 1
REMARK VINA RESULT:      -7.8      0.000      0.000
REMARK  Name = 
REMARK  2 active torsions:
REMARK  status: ('A' for Active; 'I' for Inactive)
REMARK    1  A    between atoms: N_1  and  C_2
REMARK    2  A    between atoms: C_7  and  C_8
REMARK                            x       y       z     vdW  Elec       q    Type
REMARK                         _______ _______ _______ _____ _____    ______ ____
ROOT
ATOM      1  C   UNL     1       7.421   5.028  14.530  0.00  0.00    +0.000 C 
ATOM      2  C   UNL     1       6.209   4.247  14.022  0.00  0.00    +0.000 C 
ATOM      3  C   UNL     1       5.677   3.200  15.008  0.00  0.00    +0.000 C 
ATOM      4  C   UNL     1       5.093   4.016  16.093  0.00  0.00    +0.000 A 
ATOM      5  C   UNL     1       4.409   3.542  17.208  0.00  0.00    +0.000 A 
ATOM      6  C   UNL     1       3.853   4.461  18.127  0.00  0.00    +0.000 A 
ATOM      7  C   UNL     1       4.044   5.850  17.893  0.00  0.00    +0.000 A 
ATOM      8  C   UNL     1       4.762   6.299  16.770  0.00  0.00    +0.000 A 
ATOM      9  C   UNL     1       5.270   5.361  15.872  0.00  0.00    +0.000 A 
ATOM     10  C   UNL     1       6.017   5.649  14.613  0.00  0.00    +0.000 C 
ENDROOT
BRANCH   6  11
ATOM     11  C   UNL     1       3.047   3.967  19.293  0.00  0.00    +0.000 A 
ATOM     12  C   UNL     1       3.570   3.006  20.186  0.00  0.00    +0.000 A 
ATOM     13  C   UNL     1       2.802   2.524  21.248  0.00  0.00    +0.000 A 
ATOM     14  C   UNL     1       1.496   2.978  21.432  0.00  0.00    +0.000 A 
ATOM     15  F   UNL     1       0.747   2.493  22.454  0.00  0.00    +0.000 F 
ATOM     16  C   UNL     1       0.959   3.925  20.560  0.00  0.00    +0.000 A 
ATOM     17  C   UNL     1       1.728   4.425  19.505  0.00  0.00    +0.000 A 
ENDBRANCH   6  11
BRANCH   1  18
ATOM     18  N   UNL     1       8.195   5.668  13.465  0.00  0.00    +0.000 NA
ATOM     19  H   UNL     1       9.152   5.870  13.832  0.00  0.00    +0.000 HD
ATOM     20  H   UNL     1       7.770   6.572  13.159  0.00  0.00    +0.000 HD
ENDBRANCH   1  18
TORSDOF 2
ENDMDL
MODEL 2
REMARK VINA RESULT:      -7.7      0.091      1.142
REMARK  Name = 
REMARK  2 active torsions:
REMARK  status: ('A' for Active; 'I' for Inactive)
REMARK    1  A    between atoms: N_1  and  C_2
REMARK    2  A    between atoms: C_7  and  C_8
REMARK                            x       y       z     vdW  Elec       q    Type
REMARK                         _______ _______ _______ _____ _____    ______ ____
ROOT
ATOM      1  C   UNL     1       7.441   5.011  14.533  0.00  0.00    +0.000 C 
ATOM      2  C   UNL     1       6.211   4.287  13.985  0.00  0.00    +0.000 C 
ATOM      3  C   UNL     1       5.643   3.214  14.921  0.00  0.00    +0.000 C 
ATOM      4  C   UNL     1       5.074   3.998  16.037  0.00  0.00    +0.000 A 
ATOM      5  C   UNL     1       4.368   3.496  17.126  0.00  0.00    +0.000 A 
ATOM      6  C   UNL     1       3.832   4.391  18.080  0.00  0.00    +0.000 A 
ATOM      7  C   UNL     1       4.063   5.782  17.908  0.00  0.00    +0.000 A 
ATOM      8  C   UNL     1       4.802   6.258  16.811  0.00  0.00    +0.000 A 
ATOM      9  C   UNL     1       5.290   5.346  15.875  0.00  0.00    +0.000 A 
ATOM     10  C   UNL     1       6.055   5.668  14.634  0.00  0.00    +0.000 C 
ENDROOT
BRANCH   6  11
ATOM     11  C   UNL     1       3.004   3.869  19.219  0.00  0.00    +0.000 A 
ATOM     12  C   UNL     1       1.656   4.258  19.379  0.00  0.00    +0.000 A 
ATOM     13  C   UNL     1       0.901   3.797  20.460  0.00  0.00    +0.000 A 
ATOM     14  C   UNL     1       1.478   2.952  21.408  0.00  0.00    +0.000 A 
ATOM     15  F   UNL     1       0.747   2.521  22.467  0.00  0.00    +0.000 F 
ATOM     16  C   UNL     1       2.809   2.557  21.270  0.00  0.00    +0.000 A 
ATOM     17  C   UNL     1       3.565   3.001  20.181  0.00  0.00    +0.000 A 
ENDBRANCH   6  11
BRANCH   1  18
ATOM     18  N   UNL     1       8.241   5.673  13.502  0.00  0.00    +0.000 NA
ATOM     19  H   UNL     1       7.661   6.429  13.073  0.00  0.00    +0.000 HD
ATOM     20  H   UNL     1       8.524   5.015  12.742  0.00  0.00    +0.000 HD
ENDBRANCH   1  18
TORSDOF 2
ENDMDL
MODEL 3
REMARK VINA RESULT:      -7.6      3.237      4.198
REMARK  Name = 
REMARK  2 active torsions:
REMARK  status: ('A' for Active; 'I' for Inactive)
REMARK    1  A    between atoms: N_1  and  C_2
REMARK    2  A    between atoms: C_7  and  C_8
REMARK                            x       y       z     vdW  Elec       q    Type
REMARK                         _______ _______ _______ _____ _____    ______ ____
ROOT
ATOM      1  C   UNL     1       5.675   4.330  14.430  0.00  0.00    +0.000 C 
ATOM      2  C   UNL     1       6.568   4.899  15.533  0.00  0.00    +0.000 C 
ATOM      3  C   UNL     1       6.164   6.300  16.008  0.00  0.00    +0.000 C 
ATOM      4  C   UNL     1       4.891   6.066  16.723  0.00  0.00    +0.000 A 
ATOM      5  C   UNL     1       4.143   7.014  17.413  0.00  0.00    +0.000 A 
ATOM      6  C   UNL     1       2.975   6.613  18.102  0.00  0.00    +0.000 A 
ATOM      7  C   UNL     1       2.586   5.248  18.036  0.00  0.00    +0.000 A 
ATOM      8  C   UNL     1       3.349   4.317  17.309  0.00  0.00    +0.000 A 
ATOM      9  C   UNL     1       4.511   4.746  16.668  0.00  0.00    +0.000 A 
ATOM     10  C   UNL     1       5.462   3.899  15.890  0.00  0.00    +0.000 C 
ENDROOT
BRANCH   6  11
ATOM     11  C   UNL     1       2.200   7.611  18.913  0.00  0.00    +0.000 A 
ATOM     12  C   UNL     1       1.750   8.822  18.344  0.00  0.00    +0.000 A 
ATOM     13  C   UNL     1       1.060   9.762  19.113  0.00  0.00    +0.000 A 
ATOM     14  C   UNL     1       0.818   9.519  20.465  0.00  0.00    +0.000 A 
ATOM     15  F   UNL     1       0.163  10.442  21.213  0.00  0.00    +0.000 F 
ATOM     16  C   UNL     1       1.255   8.329  21.048  0.00  0.00    +0.000 A 
ATOM     17  C   UNL     1       1.931   7.377  20.279  0.00  0.00    +0.000 A 
ENDBRANCH   6  11
BRANCH   1  18
ATOM     18  N   UNL     1       6.302   3.247  13.669  0.00  0.00    +0.000 NA
ATOM     19  H   UNL     1       5.913   3.260  12.700  0.00  0.00    +0.000 HD
ATOM     20  H   UNL     1       6.100   2.308  14.083  0.00  0.00    +0.000 HD
ENDBRANCH   1  18
TORSDOF 2
ENDMDL
MODEL 4
REMARK VINA RESULT:      -7.6      2.861      3.754
REMARK  Name = 
REMARK  2 active torsions:
REMARK  status: ('A' for Active; 'I' for Inactive)
REMARK    1  A    between atoms: N_1  and  C_2
REMARK    2  A    between atoms: C_7  and  C_8
REMARK                            x       y       z     vdW  Elec       q    Type
REMARK                         _______ _______ _______ _____ _____    ______ ____
ROOT
ATOM      1  C   UNL     1       5.790   4.122  13.942  0.00  0.00    +0.000 C 
ATOM      2  C   UNL     1       6.741   4.781  14.941  0.00  0.00    +0.000 C 
ATOM      3  C   UNL     1       6.275   6.153  15.442  0.00  0.00    +0.000 C 
ATOM      4  C   UNL     1       5.105   5.830  16.287  0.00  0.00    +0.000 A 
ATOM      5  C   UNL     1       4.357   6.728  17.041  0.00  0.00    +0.000 A 
ATOM      6  C   UNL     1       3.302   6.247  17.851  0.00  0.00    +0.000 A 
ATOM      7  C   UNL     1       3.021   4.854  17.839  0.00  0.00    +0.000 A 
ATOM      8  C   UNL     1       3.779   3.974  17.046  0.00  0.00    +0.000 A 
ATOM      9  C   UNL     1       4.830   4.484  16.284  0.00  0.00    +0.000 A 
ATOM     10  C   UNL     1       5.763   3.702  15.420  0.00  0.00    +0.000 C 
ENDROOT
BRANCH   6  11
ATOM     11  C   UNL     1       2.535   7.194  18.728  0.00  0.00    +0.000 A 
ATOM     12  C   UNL     1       2.190   6.844  20.052  0.00  0.00    +0.000 A 
ATOM     13  C   UNL     1       1.446   7.716  20.852  0.00  0.00    +0.000 A 
ATOM     14  C   UNL     1       1.020   8.943  20.344  0.00  0.00    +0.000 A 
ATOM     15  F   UNL     1       0.282   9.777  21.117  0.00  0.00    +0.000 F 
ATOM     16  C   UNL     1       1.348   9.307  19.038  0.00  0.00    +0.000 A 
ATOM     17  C   UNL     1       2.108   8.447  18.238  0.00  0.00    +0.000 A 
ENDBRANCH   6  11
BRANCH   1  18
ATOM     18  N   UNL     1       6.421   3.079  13.131  0.00  0.00    +0.000 NA
ATOM     19  H   UNL     1       5.919   3.027  12.216  0.00  0.00    +0.000 HD
ATOM     20  H   UNL     1       6.363   2.140  13.584  0.00  0.00    +0.000 HD
ENDBRANCH   1  18
TORSDOF 2
ENDMDL
MODEL 5
REMARK VINA RESULT:      -7.5      4.132      7.188
REMARK  Name = 
REMARK  2 active torsions:
REMARK  status: ('A' for Active; 'I' for Inactive)
REMARK    1  A    between atoms: N_1  and  C_2
REMARK    2  A    between atoms: C_7  and  C_8
REMARK                            x       y       z     vdW  Elec       q    Type
REMARK                         _______ _______ _______ _____ _____    ______ ____
ROOT
ATOM      1  C   UNL     1       1.843   3.009  21.554  0.00  0.00    +0.000 C 
ATOM      2  C   UNL     1       1.246   4.169  20.757  0.00  0.00    +0.000 C 
ATOM      3  C   UNL     1       2.288   5.103  20.130  0.00  0.00    +0.000 C 
ATOM      4  C   UNL     1       2.897   4.274  19.069  0.00  0.00    +0.000 A 
ATOM      5  C   UNL     1       3.857   4.682  18.148  0.00  0.00    +0.000 A 
ATOM      6  C   UNL     1       4.292   3.780  17.150  0.00  0.00    +0.000 A 
ATOM      7  C   UNL     1       3.751   2.466  17.144  0.00  0.00    +0.000 A 
ATOM      8  C   UNL     1       2.801   2.074  18.103  0.00  0.00    +0.000 A 
ATOM      9  C   UNL     1       2.375   3.002  19.053  0.00  0.00    +0.000 A 
ATOM     10  C   UNL     1       1.351   2.780  20.116  0.00  0.00    +0.000 C 
ENDROOT
BRANCH   6  11
ATOM     11  C   UNL     1       5.270   4.230  16.104  0.00  0.00    +0.000 A 
ATOM     12  C   UNL     1       5.259   3.674  14.806  0.00  0.00    +0.000 A 
ATOM     13  C   UNL     1       6.194   4.072  13.848  0.00  0.00    +0.000 A 
ATOM     14  C   UNL     1       7.166   5.019  14.169  0.00  0.00    +0.000 A 
ATOM     15  F   UNL     1       8.085   5.389  13.242  0.00  0.00    +0.000 F 
ATOM     16  C   UNL     1       7.197   5.580  15.446  0.00  0.00    +0.000 A 
ATOM     17  C   UNL     1       6.253   5.199  16.404  0.00  0.00    +0.000 A 
ENDBRANCH   6  11
BRANCH   1  18
ATOM     18  N   UNL     1       0.909   2.411  22.510  0.00  0.00    +0.000 NA
ATOM     19  H   UNL     1       0.574   1.503  22.116  0.00  0.00    +0.000 HD
ATOM     20  H   UNL     1       0.073   3.017  22.674  0.00  0.00    +0.000 HD
ENDBRANCH   1  18
TORSDOF 2
ENDMDL
MODEL 6
REMARK VINA RESULT:      -7.5      4.831      7.383
REMARK  Name = 
REMARK  2 active torsions:
REMARK  status: ('A' for Active; 'I' for Inactive)
REMARK    1  A    between atoms: N_1  and  C_2
REMARK    2  A    between atoms: C_7  and  C_8
REMARK                            x       y       z     vdW  Elec       q    Type
REMARK                         _______ _______ _______ _____ _____    ______ ____
ROOT
ATOM      1  C   UNL     1       1.064   9.572  21.971  0.00  0.00    +0.000 C 
ATOM      2  C   UNL     1       0.278   9.544  20.660  0.00  0.00    +0.000 C 
ATOM      3  C   UNL     1       1.153   9.563  19.401  0.00  0.00    +0.000 C 
ATOM      4  C   UNL     1       1.796   8.232  19.410  0.00  0.00    +0.000 A 
ATOM      5  C   UNL     1       2.639   7.714  18.432  0.00  0.00    +0.000 A 
ATOM      6  C   UNL     1       3.123   6.392  18.560  0.00  0.00    +0.000 A 
ATOM      7  C   UNL     1       2.753   5.644  19.710  0.00  0.00    +0.000 A 
ATOM      8  C   UNL     1       1.919   6.204  20.695  0.00  0.00    +0.000 A 
ATOM      9  C   UNL     1       1.439   7.501  20.518  0.00  0.00    +0.000 A 
ATOM     10  C   UNL     1       0.518   8.240  21.430  0.00  0.00    +0.000 C 
ENDROOT
BRANCH   6  11
ATOM     11  C   UNL     1       3.971   5.793  17.475  0.00  0.00    +0.000 A 
ATOM     12  C   UNL     1       4.682   6.610  16.570  0.00  0.00    +0.000 A 
ATOM     13  C   UNL     1       5.442   6.047  15.542  0.00  0.00    +0.000 A 
ATOM     14  C   UNL     1       5.495   4.662  15.387  0.00  0.00    +0.000 A 
ATOM     15  F   UNL     1       6.219   4.120  14.376  0.00  0.00    +0.000 F 
ATOM     16  C   UNL     1       4.799   3.836  16.269  0.00  0.00    +0.000 A 
ATOM     17  C   UNL     1       4.050   4.392  17.312  0.00  0.00    +0.000 A 
ENDBRANCH   6  11
BRANCH   1  18
ATOM     18  N   UNL     1       0.272  10.014  23.120  0.00  0.00    +0.000 NA
ATOM     19  H   UNL     1       0.444   9.353  23.910  0.00  0.00    +0.000 HD
ATOM     20  H   UNL     1      -0.753  10.011  22.916  0.00  0.00    +0.000 HD
ENDBRANCH   1  18
TORSDOF 2
ENDMDL
MODEL 7
REMARK VINA RESULT:      -7.5      4.147      7.169
REMARK  Name = 
REMARK  2 active torsions:
REMARK  status: ('A' for Active; 'I' for Inactive)
REMARK    1  A    between atoms: N_1  and  C_2
REMARK    2  A    between atoms: C_7  and  C_8
REMARK                            x       y       z     vdW  Elec       q    Type
REMARK                         _______ _______ _______ _____ _____    ______ ____
ROOT
ATOM      1  C   UNL     1       1.902   2.998  21.535  0.00  0.00    +0.000 C 
ATOM      2  C   UNL     1       1.382   4.220  20.778  0.00  0.00    +0.000 C 
ATOM      3  C   UNL     1       2.482   5.096  20.167  0.00  0.00    +0.000 C 
ATOM      4  C   UNL     1       3.023   4.257  19.077  0.00  0.00    +0.000 A 
ATOM      5  C   UNL     1       4.003   4.623  18.159  0.00  0.00    +0.000 A 
ATOM      6  C   UNL     1       4.365   3.722  17.131  0.00  0.00    +0.000 A 
ATOM      7  C   UNL     1       3.733   2.450  17.093  0.00  0.00    +0.000 A 
ATOM      8  C   UNL     1       2.764   2.099  18.050  0.00  0.00    +0.000 A 
ATOM      9  C   UNL     1       2.413   3.026  19.030  0.00  0.00    +0.000 A 
ATOM     10  C   UNL     1       1.384   2.847  20.096  0.00  0.00    +0.000 C 
ENDROOT
BRANCH   6  11
ATOM     11  C   UNL     1       5.365   4.133  16.089  0.00  0.00    +0.000 A 
ATOM     12  C   UNL     1       6.430   5.004  16.403  0.00  0.00    +0.000 A 
ATOM     13  C   UNL     1       7.337   5.410  15.421  0.00  0.00    +0.000 A 
ATOM     14  C   UNL     1       7.191   4.967  14.106  0.00  0.00    +0.000 A 
ATOM     15  F   UNL     1       8.062   5.378  13.152  0.00  0.00    +0.000 F 
ATOM     16  C   UNL     1       6.144   4.107  13.774  0.00  0.00    +0.000 A 
ATOM     17  C   UNL     1       5.243   3.683  14.756  0.00  0.00    +0.000 A 
ENDBRANCH   6  11
BRANCH   1  18
ATOM     18  N   UNL     1       0.934   2.440  22.482  0.00  0.00    +0.000 NA
ATOM     19  H   UNL     1       0.650   1.494  22.141  0.00  0.00    +0.000 HD
ATOM     20  H   UNL     1       0.073   3.027  22.556  0.00  0.00    +0.000 HD
ENDBRANCH   1  18
TORSDOF 2
ENDMDL
MODEL 8
REMARK VINA RESULT:      -7.5      5.024      7.284
REMARK  Name = 
REMARK  2 active torsions:
REMARK  status: ('A' for Active; 'I' for Inactive)
REMARK    1  A    between atoms: N_1  and  C_2
REMARK    2  A    between atoms: C_7  and  C_8
REMARK                            x       y       z     vdW  Elec       q    Type
REMARK                         _______ _______ _______ _____ _____    ______ ____
ROOT
ATOM      1  C   UNL     1       0.963  10.829  20.943  0.00  0.00    +0.000 C 
ATOM      2  C   UNL     1       0.169  10.494  19.680  0.00  0.00    +0.000 C 
ATOM      3  C   UNL     1       1.037  10.194  18.452  0.00  0.00    +0.000 C 
ATOM      4  C   UNL     1       1.663   8.897  18.783  0.00  0.00    +0.000 A 
ATOM      5  C   UNL     1       2.494   8.145  17.958  0.00  0.00    +0.000 A 
ATOM      6  C   UNL     1       2.962   6.886  18.402  0.00  0.00    +0.000 A 
ATOM      7  C   UNL     1       2.589   6.446  19.701  0.00  0.00    +0.000 A 
ATOM      8  C   UNL     1       1.768   7.240  20.522  0.00  0.00    +0.000 A 
ATOM      9  C   UNL     1       1.303   8.462  20.036  0.00  0.00    +0.000 A 
ATOM     10  C   UNL     1       0.397   9.413  20.744  0.00  0.00    +0.000 C 
ENDROOT
BRANCH   6  11
ATOM     11  C   UNL     1       3.796   6.030  17.494  0.00  0.00    +0.000 A 
ATOM     12  C   UNL     1       3.675   4.623  17.503  0.00  0.00    +0.000 A 
ATOM     13  C   UNL     1       4.479   3.831  16.680  0.00  0.00    +0.000 A 
ATOM     14  C   UNL     1       5.427   4.423  15.846  0.00  0.00    +0.000 A 
ATOM     15  F   UNL     1       6.219   3.648  15.063  0.00  0.00    +0.000 F 
ATOM     16  C   UNL     1       5.565   5.811  15.823  0.00  0.00    +0.000 A 
ATOM     17  C   UNL     1       4.751   6.611  16.631  0.00  0.00    +0.000 A 
ENDBRANCH   6  11
BRANCH   1  18
ATOM     18  N   UNL     1       0.183  11.548  21.952  0.00  0.00    +0.000 NA
ATOM     19  H   UNL     1      -0.725  11.833  21.522  0.00  0.00    +0.000 HD
ATOM     20  H   UNL     1       0.670  12.413  22.281  0.00  0.00    +0.000 HD
ENDBRANCH   1  18
TORSDOF 2
ENDMDL
MODEL 9
REMARK VINA RESULT:      -7.3      4.408      6.022
REMARK  Name = 
REMARK  2 active torsions:
REMARK  status: ('A' for Active; 'I' for Inactive)
REMARK    1  A    between atoms: N_1  and  C_2
REMARK    2  A    between atoms: C_7  and  C_8
REMARK                            x       y       z     vdW  Elec       q    Type
REMARK                         _______ _______ _______ _____ _____    ______ ____
ROOT
ATOM      1  C   UNL     1       3.643   2.119  19.212  0.00  0.00    +0.000 C 
ATOM      2  C   UNL     1       2.124   2.159  19.384  0.00  0.00    +0.000 C 
ATOM      3  C   UNL     1       1.639   3.133  20.464  0.00  0.00    +0.000 C 
ATOM      4  C   UNL     1       1.923   4.461  19.880  0.00  0.00    +0.000 A 
ATOM      5  C   UNL     1       1.601   5.695  20.436  0.00  0.00    +0.000 A 
ATOM      6  C   UNL     1       1.886   6.878  19.716  0.00  0.00    +0.000 A 
ATOM      7  C   UNL     1       2.529   6.764  18.454  0.00  0.00    +0.000 A 
ATOM      8  C   UNL     1       2.865   5.503  17.930  0.00  0.00    +0.000 A 
ATOM      9  C   UNL     1       2.540   4.359  18.656  0.00  0.00    +0.000 A 
ATOM     10  C   UNL     1       2.781   2.945  18.243  0.00  0.00    +0.000 C 
ENDROOT
BRANCH   6  11
ATOM     11  C   UNL     1       1.475   8.212  20.269  0.00  0.00    +0.000 A 
ATOM     12  C   UNL     1       1.238   8.389  21.650  0.00  0.00    +0.000 A 
ATOM     13  C   UNL     1       0.822   9.624  22.152  0.00  0.00    +0.000 A 
ATOM     14  C   UNL     1       0.620  10.701  21.289  0.00  0.00    +0.000 A 
ATOM     15  F   UNL     1       0.198  11.893  21.779  0.00  0.00    +0.000 F 
ATOM     16  C   UNL     1       0.847  10.548  19.921  0.00  0.00    +0.000 A 
ATOM     17  C   UNL     1       1.280   9.319  19.413  0.00  0.00    +0.000 A 
ENDBRANCH   6  11
BRANCH   1  18
ATOM     18  N   UNL     1       4.128   0.906  18.551  0.00  0.00    +0.000 NA
ATOM     19  H   UNL     1       5.137   1.041  18.319  0.00  0.00    +0.000 HD
ATOM     20  H   UNL     1       3.616   0.714  17.661  0.00  0.00    +0.000 HD
ENDBRANCH   1  18
TORSDOF 2
ENDMDL
