MODEL 1
REMARK VINA RESULT:      -6.6      0.000      0.000
REMARK  Name = 
REMARK  7 active torsions:
REMARK  status: ('A' for Active; 'I' for Inactive)
REMARK    1  A    between atoms: C_2  and  C_3
REMARK    2  A    between atoms: C_2  and  C_4
REMARK    3  A    between atoms: C_4  and  C_5
REMARK    4  A    between atoms: C_5  and  C_6
REMARK    5  A    between atoms: C_5  and  C_10
REMARK    6  A    between atoms: C_6  and  C_7
REMARK    7  A    between atoms: C_7  and  O_9
REMARK                            x       y       z     vdW  Elec       q    Type
REMARK                         _______ _______ _______ _____ _____    ______ ____
ROOT
ATOM      1  C   UNL     1       5.503   5.470  16.567  0.00  0.00    +0.000 C 
ENDROOT
BRANCH   1   2
ATOM      2  C   UNL     1       4.175   5.024  17.177  0.00  0.00    +0.000 A 
ATOM      3  C   UNL     1       3.707   3.720  16.950  0.00  0.00    +0.000 A 
ATOM      4  C   UNL     1       2.489   3.293  17.486  0.00  0.00    +0.000 A 
ATOM      5  C   UNL     1       1.722   4.161  18.259  0.00  0.00    +0.000 A 
ATOM      6  C   UNL     1       2.162   5.461  18.483  0.00  0.00    +0.000 A 
ATOM      7  C   UNL     1       3.374   5.893  17.937  0.00  0.00    +0.000 A 
ENDBRANCH   1   2
BRANCH   1   8
ATOM      8  C   UNL     1       5.905   6.926  16.937  0.00  0.00    +0.000 C 
BRANCH   8  10
ATOM      9  C   UNL     1       7.707   6.029  18.428  0.00  0.00    +0.000 C 
ATOM     10  C   UNL     1       7.195   7.052  17.722  0.00  0.00    +0.000 C 
ATOM     11  C   UNL     1       7.862   8.402  17.713  0.00  0.00    +0.000 C 
ENDBRANCH   8  10
ENDBRANCH   1   8
BRANCH   1  12
ATOM     12  C   UNL     1       5.416   5.264  15.041  0.00  0.00    +0.000 C 
BRANCH  12  13
ATOM     13  C   UNL     1       6.683   4.698  14.445  0.00  0.00    +0.000 C 
ATOM     14  O   UNL     1       7.772   5.249  14.460  0.00  0.00    +0.000 OA
BRANCH  13  15
ATOM     15  O   UNL     1       6.507   3.467  13.911  0.00  0.00    +0.000 OA
ATOM     16  H   UNL     1       7.337   3.002  13.692  0.00  0.00    +0.000 HD
ENDBRANCH  13  15
ENDBRANCH  12  13
ENDBRANCH   1  12
TORSDOF 6
ENDMDL
MODEL 2
REMARK VINA RESULT:      -6.6      0.651      1.649
REMARK  Name = 
REMARK  7 active torsions:
REMARK  status: ('A' for Active; 'I' for Inactive)
REMARK    1  A    between atoms: C_2  and  C_3
REMARK    2  A    between atoms: C_2  and  C_4
REMARK    3  A    between atoms: C_4  and  C_5
REMARK    4  A    between atoms: C_5  and  C_6
REMARK    5  A    between atoms: C_5  and  C_10
REMARK    6  A    between atoms: C_6  and  C_7
REMARK    7  A    between atoms: C_7  and  O_9
REMARK                            x       y       z     vdW  Elec       q    Type
REMARK                         _______ _______ _______ _____ _____    ______ ____
ROOT
ATOM      1  C   UNL     1       5.354   5.065  16.906  0.00  0.00    +0.000 C 
ENDROOT
BRANCH   1   2
ATOM      2  C   UNL     1       4.049   4.395  17.333  0.00  0.00    +0.000 A 
ATOM      3  C   UNL     1       2.962   5.184  17.741  0.00  0.00    +0.000 A 
ATOM      4  C   UNL     1       1.762   4.596  18.148  0.00  0.00    +0.000 A 
ATOM      5  C   UNL     1       1.630   3.209  18.152  0.00  0.00    +0.000 A 
ATOM      6  C   UNL     1       2.700   2.411  17.765  0.00  0.00    +0.000 A 
ATOM      7  C   UNL     1       3.905   2.999  17.369  0.00  0.00    +0.000 A 
ENDBRANCH   1   2
BRANCH   1   8
ATOM      8  C   UNL     1       5.629   6.417  17.624  0.00  0.00    +0.000 C 
BRANCH   8  10
ATOM      9  C   UNL     1       7.732   7.775  17.529  0.00  0.00    +0.000 C 
ATOM     10  C   UNL     1       7.084   6.678  17.959  0.00  0.00    +0.000 C 
ATOM     11  C   UNL     1       7.791   5.621  18.764  0.00  0.00    +0.000 C 
ENDBRANCH   8  10
ENDBRANCH   1   8
BRANCH   1  12
ATOM     12  C   UNL     1       5.328   5.221  15.372  0.00  0.00    +0.000 C 
BRANCH  12  13
ATOM     13  C   UNL     1       6.582   4.710  14.702  0.00  0.00    +0.000 C 
ATOM     14  O   UNL     1       7.658   5.285  14.696  0.00  0.00    +0.000 OA
BRANCH  13  15
ATOM     15  O   UNL     1       6.410   3.498  14.124  0.00  0.00    +0.000 OA
ATOM     16  H   UNL     1       5.481   3.284  13.909  0.00  0.00    +0.000 HD
ENDBRANCH  13  15
ENDBRANCH  12  13
ENDBRANCH   1  12
TORSDOF 6
ENDMDL
MODEL 3
REMARK VINA RESULT:      -6.5      0.174      1.496
REMARK  Name = 
REMARK  7 active torsions:
REMARK  status: ('A' for Active; 'I' for Inactive)
REMARK    1  A    between atoms: C_2  and  C_3
REMARK    2  A    between atoms: C_2  and  C_4
REMARK    3  A    between atoms: C_4  and  C_5
REMARK    4  A    between atoms: C_5  and  C_6
REMARK    5  A    between atoms: C_5  and  C_10
REMARK    6  A    between atoms: C_6  and  C_7
REMARK    7  A    between atoms: C_7  and  O_9
REMARK                            x       y       z     vdW  Elec       q    Type
REMARK                         _______ _______ _______ _____ _____    ______ ____
ROOT
ATOM      1  C   UNL     1       5.560   5.582  16.581  0.00  0.00    +0.000 C 
ENDROOT
BRANCH   1   2
ATOM      2  C   UNL     1       4.226   5.081  17.132  0.00  0.00    +0.000 A 
ATOM      3  C   UNL     1       3.429   5.935  17.910  0.00  0.00    +0.000 A 
ATOM      4  C   UNL     1       2.211   5.496  18.436  0.00  0.00    +0.000 A 
ATOM      5  C   UNL     1       1.771   4.198  18.192  0.00  0.00    +0.000 A 
ATOM      6  C   UNL     1       2.554   3.333  17.436  0.00  0.00    +0.000 A 
ATOM      7  C   UNL     1       3.778   3.767  16.919  0.00  0.00    +0.000 A 
ENDBRANCH   1   2
BRANCH   1   8
ATOM      8  C   UNL     1       5.963   6.992  17.101  0.00  0.00    +0.000 C 
BRANCH   8  10
ATOM      9  C   UNL     1       7.737   6.000  18.566  0.00  0.00    +0.000 C 
ATOM     10  C   UNL     1       7.279   7.043  17.852  0.00  0.00    +0.000 C 
ATOM     11  C   UNL     1       8.036   8.343  17.800  0.00  0.00    +0.000 C 
ENDBRANCH   8  10
ENDBRANCH   1   8
BRANCH   1  12
ATOM     12  C   UNL     1       5.485   5.535  15.041  0.00  0.00    +0.000 C 
BRANCH  12  13
ATOM     13  C   UNL     1       6.622   4.762  14.415  0.00  0.00    +0.000 C 
ATOM     14  O   UNL     1       6.494   3.772  13.713  0.00  0.00    +0.000 OA
BRANCH  13  15
ATOM     15  O   UNL     1       7.832   5.306  14.678  0.00  0.00    +0.000 OA
ATOM     16  H   UNL     1       8.166   5.900  13.979  0.00  0.00    +0.000 HD
ENDBRANCH  13  15
ENDBRANCH  12  13
ENDBRANCH   1  12
TORSDOF 6
ENDMDL
MODEL 4
REMARK VINA RESULT:      -6.4      0.522      1.043
REMARK  Name = 
REMARK  7 active torsions:
REMARK  status: ('A' for Active; 'I' for Inactive)
REMARK    1  A    between atoms: C_2  and  C_3
REMARK    2  A    between atoms: C_2  and  C_4
REMARK    3  A    between atoms: C_4  and  C_5
REMARK    4  A    between atoms: C_5  and  C_6
REMARK    5  A    between atoms: C_5  and  C_10
REMARK    6  A    between atoms: C_6  and  C_7
REMARK    7  A    between atoms: C_7  and  O_9
REMARK                            x       y       z     vdW  Elec       q    Type
REMARK                         _______ _______ _______ _____ _____    ______ ____
ROOT
ATOM      1  C   UNL     1       5.503   5.468  16.912  0.00  0.00    +0.000 C 
ENDROOT
BRANCH   1   2
ATOM      2  C   UNL     1       4.218   5.023  17.609  0.00  0.00    +0.000 A 
ATOM      3  C   UNL     1       3.390   4.068  17.000  0.00  0.00    +0.000 A 
ATOM      4  C   UNL     1       2.203   3.655  17.611  0.00  0.00    +0.000 A 
ATOM      5  C   UNL     1       1.827   4.190  18.842  0.00  0.00    +0.000 A 
ATOM      6  C   UNL     1       2.628   5.148  19.452  0.00  0.00    +0.000 A 
ATOM      7  C   UNL     1       3.809   5.570  18.836  0.00  0.00    +0.000 A 
ENDBRANCH   1   2
BRANCH   1   8
ATOM      8  C   UNL     1       5.893   6.946  17.198  0.00  0.00    +0.000 C 
BRANCH   8  10
ATOM      9  C   UNL     1       7.978   8.252  17.669  0.00  0.00    +0.000 C 
ATOM     10  C   UNL     1       7.251   7.134  17.843  0.00  0.00    +0.000 C 
ATOM     11  C   UNL     1       7.776   5.983  18.660  0.00  0.00    +0.000 C 
ENDBRANCH   8  10
ENDBRANCH   1   8
BRANCH   1  12
ATOM     12  C   UNL     1       5.342   5.195  15.402  0.00  0.00    +0.000 C 
BRANCH  12  13
ATOM     13  C   UNL     1       6.603   4.671  14.756  0.00  0.00    +0.000 C 
ATOM     14  O   UNL     1       7.679   5.244  14.752  0.00  0.00    +0.000 OA
BRANCH  13  15
ATOM     15  O   UNL     1       6.436   3.449  14.198  0.00  0.00    +0.000 OA
ATOM     16  H   UNL     1       7.079   2.779  14.499  0.00  0.00    +0.000 HD
ENDBRANCH  13  15
ENDBRANCH  12  13
ENDBRANCH   1  12
TORSDOF 6
ENDMDL
MODEL 5
REMARK VINA RESULT:      -6.4      1.146      1.613
REMARK  Name = 
REMARK  7 active torsions:
REMARK  status: ('A' for Active; 'I' for Inactive)
REMARK    1  A    between atoms: C_2  and  C_3
REMARK    2  A    between atoms: C_2  and  C_4
REMARK    3  A    between atoms: C_4  and  C_5
REMARK    4  A    between atoms: C_5  and  C_6
REMARK    5  A    between atoms: C_5  and  C_10
REMARK    6  A    between atoms: C_6  and  C_7
REMARK    7  A    between atoms: C_7  and  O_9
REMARK                            x       y       z     vdW  Elec       q    Type
REMARK                         _______ _______ _______ _____ _____    ______ ____
ROOT
ATOM      1  C   UNL     1       5.680   4.869  16.966  0.00  0.00    +0.000 C 
ENDROOT
BRANCH   1   2
ATOM      2  C   UNL     1       4.633   4.041  17.709  0.00  0.00    +0.000 A 
ATOM      3  C   UNL     1       3.453   3.660  17.052  0.00  0.00    +0.000 A 
ATOM      4  C   UNL     1       2.474   2.914  17.714  0.00  0.00    +0.000 A 
ATOM      5  C   UNL     1       2.661   2.536  19.042  0.00  0.00    +0.000 A 
ATOM      6  C   UNL     1       3.817   2.918  19.713  0.00  0.00    +0.000 A 
ATOM      7  C   UNL     1       4.791   3.674  19.056  0.00  0.00    +0.000 A 
ENDBRANCH   1   2
BRANCH   1   8
ATOM      8  C   UNL     1       5.788   6.338  17.466  0.00  0.00    +0.000 C 
BRANCH   8  10
ATOM      9  C   UNL     1       7.766   7.873  17.557  0.00  0.00    +0.000 C 
ATOM     10  C   UNL     1       7.161   6.744  17.965  0.00  0.00    +0.000 C 
ATOM     11  C   UNL     1       7.843   5.793  18.912  0.00  0.00    +0.000 C 
ENDBRANCH   8  10
ENDBRANCH   1   8
BRANCH   1  12
ATOM     12  C   UNL     1       5.363   4.794  15.459  0.00  0.00    +0.000 C 
BRANCH  12  13
ATOM     13  C   UNL     1       6.588   4.565  14.605  0.00  0.00    +0.000 C 
ATOM     14  O   UNL     1       7.597   5.250  14.629  0.00  0.00    +0.000 OA
BRANCH  13  15
ATOM     15  O   UNL     1       6.477   3.472  13.814  0.00  0.00    +0.000 OA
ATOM     16  H   UNL     1       6.681   2.630  14.263  0.00  0.00    +0.000 HD
ENDBRANCH  13  15
ENDBRANCH  12  13
ENDBRANCH   1  12
TORSDOF 6
ENDMDL
MODEL 6
REMARK VINA RESULT:      -6.3      0.811      1.205
REMARK  Name = 
REMARK  7 active torsions:
REMARK  status: ('A' for Active; 'I' for Inactive)
REMARK    1  A    between atoms: C_2  and  C_3
REMARK    2  A    between atoms: C_2  and  C_4
REMARK    3  A    between atoms: C_4  and  C_5
REMARK    4  A    between atoms: C_5  and  C_6
REMARK    5  A    between atoms: C_5  and  C_10
REMARK    6  A    between atoms: C_6  and  C_7
REMARK    7  A    between atoms: C_7  and  O_9
REMARK                            x       y       z     vdW  Elec       q    Type
REMARK                         _______ _______ _______ _____ _____    ______ ____
ROOT
ATOM      1  C   UNL     1       5.365   4.985  17.098  0.00  0.00    +0.000 C 
ENDROOT
BRANCH   1   2
ATOM      2  C   UNL     1       4.051   4.297  17.464  0.00  0.00    +0.000 A 
ATOM      3  C   UNL     1       3.992   2.896  17.529  0.00  0.00    +0.000 A 
ATOM      4  C   UNL     1       2.799   2.243  17.849  0.00  0.00    +0.000 A 
ATOM      5  C   UNL     1       1.647   2.981  18.111  0.00  0.00    +0.000 A 
ATOM      6  C   UNL     1       1.682   4.368  18.037  0.00  0.00    +0.000 A 
ATOM      7  C   UNL     1       2.872   5.022  17.705  0.00  0.00    +0.000 A 
ENDBRANCH   1   2
BRANCH   1   8
ATOM      8  C   UNL     1       5.687   6.229  17.973  0.00  0.00    +0.000 C 
BRANCH   8  10
ATOM      9  C   UNL     1       7.927   5.682  18.954  0.00  0.00    +0.000 C 
ATOM     10  C   UNL     1       7.164   6.488  18.196  0.00  0.00    +0.000 C 
ATOM     11  C   UNL     1       7.735   7.729  17.560  0.00  0.00    +0.000 C 
ENDBRANCH   8  10
ENDBRANCH   1   8
BRANCH   1  12
ATOM     12  C   UNL     1       5.316   5.333  15.596  0.00  0.00    +0.000 C 
BRANCH  12  13
ATOM     13  C   UNL     1       6.406   4.662  14.795  0.00  0.00    +0.000 C 
ATOM     14  O   UNL     1       6.275   3.630  14.158  0.00  0.00    +0.000 OA
BRANCH  13  15
ATOM     15  O   UNL     1       7.570   5.353  14.814  0.00  0.00    +0.000 OA
ATOM     16  H   UNL     1       8.339   4.853  14.478  0.00  0.00    +0.000 HD
ENDBRANCH  13  15
ENDBRANCH  12  13
ENDBRANCH   1  12
TORSDOF 6
ENDMDL
MODEL 7
REMARK VINA RESULT:      -6.3      1.294      1.924
REMARK  Name = 
REMARK  7 active torsions:
REMARK  status: ('A' for Active; 'I' for Inactive)
REMARK    1  A    between atoms: C_2  and  C_3
REMARK    2  A    between atoms: C_2  and  C_4
REMARK    3  A    between atoms: C_4  and  C_5
REMARK    4  A    between atoms: C_5  and  C_6
REMARK    5  A    between atoms: C_5  and  C_10
REMARK    6  A    between atoms: C_6  and  C_7
REMARK    7  A    between atoms: C_7  and  O_9
REMARK                            x       y       z     vdW  Elec       q    Type
REMARK                         _______ _______ _______ _____ _____    ______ ____
ROOT
ATOM      1  C   UNL     1       5.846   4.449  16.740  0.00  0.00    +0.000 C 
ENDROOT
BRANCH   1   2
ATOM      2  C   UNL     1       4.755   4.959  17.680  0.00  0.00    +0.000 A 
ATOM      3  C   UNL     1       4.066   6.142  17.371  0.00  0.00    +0.000 A 
ATOM      4  C   UNL     1       3.074   6.636  18.221  0.00  0.00    +0.000 A 
ATOM      5  C   UNL     1       2.753   5.954  19.393  0.00  0.00    +0.000 A 
ATOM      6  C   UNL     1       3.436   4.789  19.723  0.00  0.00    +0.000 A 
ATOM      7  C   UNL     1       4.437   4.300  18.879  0.00  0.00    +0.000 A 
ENDBRANCH   1   2
BRANCH   1   8
ATOM      8  C   UNL     1       7.287   4.620  17.300  0.00  0.00    +0.000 C 
BRANCH   8  10
ATOM      9  C   UNL     1       7.589   7.102  17.469  0.00  0.00    +0.000 C 
ATOM     10  C   UNL     1       7.523   5.903  18.073  0.00  0.00    +0.000 C 
ATOM     11  C   UNL     1       7.729   5.767  19.559  0.00  0.00    +0.000 C 
ENDBRANCH   8  10
ENDBRANCH   1   8
BRANCH   1  12
ATOM     12  C   UNL     1       5.668   5.154  15.380  0.00  0.00    +0.000 C 
BRANCH  12  13
ATOM     13  C   UNL     1       6.709   4.752  14.362  0.00  0.00    +0.000 C 
ATOM     14  O   UNL     1       7.682   5.421  14.052  0.00  0.00    +0.000 OA
BRANCH  13  15
ATOM     15  O   UNL     1       6.481   3.527  13.835  0.00  0.00    +0.000 OA
ATOM     16  H   UNL     1       6.117   3.541  12.929  0.00  0.00    +0.000 HD
ENDBRANCH  13  15
ENDBRANCH  12  13
ENDBRANCH   1  12
TORSDOF 6
ENDMDL
MODEL 8
REMARK VINA RESULT:      -6.3      1.213      1.447
REMARK  Name = 
REMARK  7 active torsions:
REMARK  status: ('A' for Active; 'I' for Inactive)
REMARK    1  A    between atoms: C_2  and  C_3
REMARK    2  A    between atoms: C_2  and  C_4
REMARK    3  A    between atoms: C_4  and  C_5
REMARK    4  A    between atoms: C_5  and  C_6
REMARK    5  A    between atoms: C_5  and  C_10
REMARK    6  A    between atoms: C_6  and  C_7
REMARK    7  A    between atoms: C_7  and  O_9
REMARK                            x       y       z     vdW  Elec       q    Type
REMARK                         _______ _______ _______ _____ _____    ______ ____
ROOT
ATOM      1  C   UNL     1       5.979   4.388  16.682  0.00  0.00    +0.000 C 
ENDROOT
BRANCH   1   2
ATOM      2  C   UNL     1       4.835   4.768  17.622  0.00  0.00    +0.000 A 
ATOM      3  C   UNL     1       4.531   3.945  18.717  0.00  0.00    +0.000 A 
ATOM      4  C   UNL     1       3.482   4.263  19.583  0.00  0.00    +0.000 A 
ATOM      5  C   UNL     1       2.722   5.412  19.369  0.00  0.00    +0.000 A 
ATOM      6  C   UNL     1       3.000   6.231  18.281  0.00  0.00    +0.000 A 
ATOM      7  C   UNL     1       4.042   5.907  17.408  0.00  0.00    +0.000 A 
ENDBRANCH   1   2
BRANCH   1   8
ATOM      8  C   UNL     1       7.392   4.593  17.299  0.00  0.00    +0.000 C 
BRANCH   8  10
ATOM      9  C   UNL     1       7.603   5.747  19.513  0.00  0.00    +0.000 C 
ATOM     10  C   UNL     1       7.535   5.824  18.172  0.00  0.00    +0.000 C 
ATOM     11  C   UNL     1       7.551   7.154  17.466  0.00  0.00    +0.000 C 
ENDBRANCH   8  10
ENDBRANCH   1   8
BRANCH   1  12
ATOM     12  C   UNL     1       5.800   5.182  15.372  0.00  0.00    +0.000 C 
BRANCH  12  13
ATOM     13  C   UNL     1       6.774   4.774  14.293  0.00  0.00    +0.000 C 
ATOM     14  O   UNL     1       7.727   5.438  13.920  0.00  0.00    +0.000 OA
BRANCH  13  15
ATOM     15  O   UNL     1       6.510   3.547  13.787  0.00  0.00    +0.000 OA
ATOM     16  H   UNL     1       7.193   3.209  13.176  0.00  0.00    +0.000 HD
ENDBRANCH  13  15
ENDBRANCH  12  13
ENDBRANCH   1  12
TORSDOF 6
ENDMDL
MODEL 9
REMARK VINA RESULT:      -6.2      1.835      3.379
REMARK  Name = 
REMARK  7 active torsions:
REMARK  status: ('A' for Active; 'I' for Inactive)
REMARK    1  A    between atoms: C_2  and  C_3
REMARK    2  A    between atoms: C_2  and  C_4
REMARK    3  A    between atoms: C_4  and  C_5
REMARK    4  A    between atoms: C_5  and  C_6
REMARK    5  A    between atoms: C_5  and  C_10
REMARK    6  A    between atoms: C_6  and  C_7
REMARK    7  A    between atoms: C_7  and  O_9
REMARK                            x       y       z     vdW  Elec       q    Type
REMARK                         _______ _______ _______ _____ _____    ______ ____
ROOT
ATOM      1  C   UNL     1       5.759   5.317  15.966  0.00  0.00    +0.000 C 
ENDROOT
BRANCH   1   2
ATOM      2  C   UNL     1       4.480   5.227  16.797  0.00  0.00    +0.000 A 
ATOM      3  C   UNL     1       3.785   4.010  16.875  0.00  0.00    +0.000 A 
ATOM      4  C   UNL     1       2.606   3.905  17.618  0.00  0.00    +0.000 A 
ATOM      5  C   UNL     1       2.104   5.015  18.294  0.00  0.00    +0.000 A 
ATOM      6  C   UNL     1       2.771   6.232  18.215  0.00  0.00    +0.000 A 
ATOM      7  C   UNL     1       3.944   6.341  17.463  0.00  0.00    +0.000 A 
ENDBRANCH   1   2
BRANCH   1   8
ATOM      8  C   UNL     1       6.124   3.996  15.232  0.00  0.00    +0.000 C 
BRANCH   8  10
ATOM      9  C   UNL     1       5.661   3.487  12.822  0.00  0.00    +0.000 C 
ATOM     10  C   UNL     1       6.386   4.142  13.746  0.00  0.00    +0.000 C 
ATOM     11  C   UNL     1       7.536   5.029  13.347  0.00  0.00    +0.000 C 
ENDBRANCH   8  10
ENDBRANCH   1   8
BRANCH   1  12
ATOM     12  C   UNL     1       6.895   5.795  16.894  0.00  0.00    +0.000 C 
BRANCH  12  13
ATOM     13  C   UNL     1       7.254   4.787  17.960  0.00  0.00    +0.000 C 
ATOM     14  O   UNL     1       6.647   4.627  19.006  0.00  0.00    +0.000 OA
BRANCH  13  15
ATOM     15  O   UNL     1       8.320   4.025  17.623  0.00  0.00    +0.000 OA
ATOM     16  H   UNL     1       8.444   3.912  16.661  0.00  0.00    +0.000 HD
ENDBRANCH  13  15
ENDBRANCH  12  13
ENDBRANCH   1  12
TORSDOF 6
ENDMDL
