MODEL 1
REMARK VINA RESULT:      -7.2      0.000      0.000
REMARK  Name = 
REMARK  11 active torsions:
REMARK  status: ('A' for Active; 'I' for Inactive)
REMARK    1  A    between atoms: C_1  and  C_2
REMARK    2  A    between atoms: C_2  and  C_3
REMARK    3  A    between atoms: C_3  and  C_4
REMARK    4  A    between atoms: C_4  and  N_5
REMARK    5  A    between atoms: N_5  and  C_6
REMARK    6  A    between atoms: C_7  and  C_9
REMARK    7  A    between atoms: N_11  and  C_12
REMARK    8  A    between atoms: C_16  and  S_17
REMARK    9  A    between atoms: S_17  and  N_20
REMARK   10  A    between atoms: N_20  and  C_21
REMARK   11  A    between atoms: N_20  and  C_22
REMARK                            x       y       z     vdW  Elec       q    Type
REMARK                         _______ _______ _______ _____ _____    ______ ____
ROOT
ATOM      1  C   UNL     1       3.841   5.304  18.155  0.00  0.00    +0.000 A 
ATOM      2  C   UNL     1       3.517   4.756  19.336  0.00  0.00    +0.000 A 
ATOM      3  N   UNL     1       2.581   5.141  20.263  0.00  0.00    +0.000 N 
ATOM      4  C   UNL     1       2.143   4.236  21.320  0.00  0.00    +0.000 C 
ATOM      5  C   UNL     1       2.076   6.441  20.154  0.00  0.00    +0.000 A 
ATOM      6  C   UNL     1       1.256   6.992  21.133  0.00  0.00    +0.000 A 
ATOM      7  C   UNL     1       0.849   8.327  21.051  0.00  0.00    +0.000 A 
ATOM      8  C   UNL     1       1.267   9.109  19.960  0.00  0.00    +0.000 A 
ATOM      9  C   UNL     1       2.059   8.568  18.958  0.00  0.00    +0.000 A 
ATOM     10  C   UNL     1       2.444   7.232  19.048  0.00  0.00    +0.000 A 
ATOM     11  C   UNL     1       3.263   6.659  17.944  0.00  0.00    +0.000 A 
ATOM     12  O   UNL     1       3.426   7.305  16.913  0.00  0.00    +0.000 OA
ENDROOT
BRANCH   1  15
ATOM     13  N   UNL     1       6.051   5.164  16.998  0.00  0.00    +0.000 N 
ATOM     14  C   UNL     1       6.683   6.227  17.787  0.00  0.00    +0.000 C 
ATOM     15  C   UNL     1       4.768   4.631  17.198  0.00  0.00    +0.000 C 
ATOM     16  O   UNL     1       4.397   3.621  16.614  0.00  0.00    +0.000 OA
BRANCH  13  17
ATOM     17  C   UNL     1       6.925   4.462  16.059  0.00  0.00    +0.000 C 
BRANCH  17  18
ATOM     18  C   UNL     1       6.780   4.904  14.602  0.00  0.00    +0.000 C 
BRANCH  18  20
ATOM     19  C   UNL     1       6.734   3.812  12.363  0.00  0.00    +0.000 C 
ATOM     20  C   UNL     1       6.048   3.898  13.719  0.00  0.00    +0.000 C 
ENDBRANCH  18  20
ENDBRANCH  17  18
ENDBRANCH  13  17
ENDBRANCH   1  15
BRANCH   8  21
ATOM     21  S   UNL     1       0.839  10.827  19.870  0.00  0.00    +0.000 S 
ATOM     22  O   UNL     1       1.109  11.399  21.171  0.00  0.00    +0.000 OA
ATOM     23  O   UNL     1       1.484  11.383  18.689  0.00  0.00    +0.000 OA
BRANCH  21  24
ATOM     24  N   UNL     1      -0.836  10.807  19.613  0.00  0.00    +0.000 NA
ATOM     25  C   UNL     1      -1.592  12.008  20.022  0.00  0.00    +0.000 C 
ATOM     26  C   UNL     1      -1.238  10.328  18.276  0.00  0.00    +0.000 C 
ENDBRANCH  21  24
ENDBRANCH   8  21
TORSDOF 6
ENDMDL
MODEL 2
REMARK VINA RESULT:      -6.8      1.144      1.431
REMARK  Name = 
REMARK  11 active torsions:
REMARK  status: ('A' for Active; 'I' for Inactive)
REMARK    1  A    between atoms: C_1  and  C_2
REMARK    2  A    between atoms: C_2  and  C_3
REMARK    3  A    between atoms: C_3  and  C_4
REMARK    4  A    between atoms: C_4  and  N_5
REMARK    5  A    between atoms: N_5  and  C_6
REMARK    6  A    between atoms: C_7  and  C_9
REMARK    7  A    between atoms: N_11  and  C_12
REMARK    8  A    between atoms: C_16  and  S_17
REMARK    9  A    between atoms: S_17  and  N_20
REMARK   10  A    between atoms: N_20  and  C_21
REMARK   11  A    between atoms: N_20  and  C_22
REMARK                            x       y       z     vdW  Elec       q    Type
REMARK                         _______ _______ _______ _____ _____    ______ ____
ROOT
ATOM      1  C   UNL     1       3.962   5.520  18.002  0.00  0.00    +0.000 A 
ATOM      2  C   UNL     1       3.604   5.107  19.226  0.00  0.00    +0.000 A 
ATOM      3  N   UNL     1       2.656   5.603  20.087  0.00  0.00    +0.000 N 
ATOM      4  C   UNL     1       2.180   4.824  21.224  0.00  0.00    +0.000 C 
ATOM      5  C   UNL     1       2.178   6.892  19.829  0.00  0.00    +0.000 A 
ATOM      6  C   UNL     1       1.348   7.558  20.725  0.00  0.00    +0.000 A 
ATOM      7  C   UNL     1       0.968   8.883  20.493  0.00  0.00    +0.000 A 
ATOM      8  C   UNL     1       1.422   9.537  19.333  0.00  0.00    +0.000 A 
ATOM      9  C   UNL     1       2.224   8.879  18.413  0.00  0.00    +0.000 A 
ATOM     10  C   UNL     1       2.583   7.555  18.653  0.00  0.00    +0.000 A 
ATOM     11  C   UNL     1       3.414   6.854  17.635  0.00  0.00    +0.000 A 
ATOM     12  O   UNL     1       3.610   7.383  16.546  0.00  0.00    +0.000 OA
ENDROOT
BRANCH   1  15
ATOM     13  N   UNL     1       6.163   5.261  16.848  0.00  0.00    +0.000 N 
ATOM     14  C   UNL     1       6.776   6.445  17.461  0.00  0.00    +0.000 C 
ATOM     15  C   UNL     1       4.896   4.733  17.143  0.00  0.00    +0.000 C 
ATOM     16  O   UNL     1       4.545   3.640  16.721  0.00  0.00    +0.000 OA
BRANCH  13  17
ATOM     17  C   UNL     1       7.045   4.448  16.012  0.00  0.00    +0.000 C 
BRANCH  17  18
ATOM     18  C   UNL     1       7.002   4.789  14.522  0.00  0.00    +0.000 C 
BRANCH  18  20
ATOM     19  C   UNL     1       6.637   3.680  12.320  0.00  0.00    +0.000 C 
ATOM     20  C   UNL     1       6.060   3.906  13.711  0.00  0.00    +0.000 C 
ENDBRANCH  18  20
ENDBRANCH  17  18
ENDBRANCH  13  17
ENDBRANCH   1  15
BRANCH   8  21
ATOM     21  S   UNL     1       1.027  11.242  19.052  0.00  0.00    +0.000 S 
ATOM     22  O   UNL     1       2.066  11.782  18.201  0.00  0.00    +0.000 OA
ATOM     23  O   UNL     1      -0.363  11.310  18.625  0.00  0.00    +0.000 OA
BRANCH  21  24
ATOM     24  N   UNL     1       1.156  11.940  20.590  0.00  0.00    +0.000 NA
ATOM     25  C   UNL     1       2.062  13.098  20.728  0.00  0.00    +0.000 C 
ATOM     26  C   UNL     1      -0.138  12.166  21.263  0.00  0.00    +0.000 C 
ENDBRANCH  21  24
ENDBRANCH   8  21
TORSDOF 6
ENDMDL
MODEL 3
REMARK VINA RESULT:      -6.8      1.221      1.569
REMARK  Name = 
REMARK  11 active torsions:
REMARK  status: ('A' for Active; 'I' for Inactive)
REMARK    1  A    between atoms: C_1  and  C_2
REMARK    2  A    between atoms: C_2  and  C_3
REMARK    3  A    between atoms: C_3  and  C_4
REMARK    4  A    between atoms: C_4  and  N_5
REMARK    5  A    between atoms: N_5  and  C_6
REMARK    6  A    between atoms: C_7  and  C_9
REMARK    7  A    between atoms: N_11  and  C_12
REMARK    8  A    between atoms: C_16  and  S_17
REMARK    9  A    between atoms: S_17  and  N_20
REMARK   10  A    between atoms: N_20  and  C_21
REMARK   11  A    between atoms: N_20  and  C_22
REMARK                            x       y       z     vdW  Elec       q    Type
REMARK                         _______ _______ _______ _____ _____    ______ ____
ROOT
ATOM      1  C   UNL     1       3.819   6.176  18.143  0.00  0.00    +0.000 A 
ATOM      2  C   UNL     1       3.566   5.509  19.278  0.00  0.00    +0.000 A 
ATOM      3  N   UNL     1       2.581   5.697  20.216  0.00  0.00    +0.000 N 
ATOM      4  C   UNL     1       2.265   4.670  21.202  0.00  0.00    +0.000 C 
ATOM      5  C   UNL     1       1.903   6.920  20.187  0.00  0.00    +0.000 A 
ATOM      6  C   UNL     1       1.010   7.285  21.189  0.00  0.00    +0.000 A 
ATOM      7  C   UNL     1       0.424   8.555  21.192  0.00  0.00    +0.000 A 
ATOM      8  C   UNL     1       0.737   9.460  20.162  0.00  0.00    +0.000 A 
ATOM      9  C   UNL     1       1.601   9.102  19.138  0.00  0.00    +0.000 A 
ATOM     10  C   UNL     1       2.166   7.829  19.143  0.00  0.00    +0.000 A 
ATOM     11  C   UNL     1       3.062   7.450  18.015  0.00  0.00    +0.000 A 
ATOM     12  O   UNL     1       3.141   8.182  17.033  0.00  0.00    +0.000 OA
ENDROOT
BRANCH   1  15
ATOM     13  N   UNL     1       4.737   4.400  16.643  0.00  0.00    +0.000 N 
ATOM     14  C   UNL     1       3.607   3.481  16.817  0.00  0.00    +0.000 C 
ATOM     15  C   UNL     1       4.835   5.703  17.156  0.00  0.00    +0.000 C 
ATOM     16  O   UNL     1       5.729   6.463  16.806  0.00  0.00    +0.000 OA
BRANCH  13  17
ATOM     17  C   UNL     1       5.749   3.989  15.672  0.00  0.00    +0.000 C 
BRANCH  17  18
ATOM     18  C   UNL     1       5.466   4.425  14.234  0.00  0.00    +0.000 C 
BRANCH  18  20
ATOM     19  C   UNL     1       5.303   3.241  12.047  0.00  0.00    +0.000 C 
ATOM     20  C   UNL     1       6.238   3.635  13.182  0.00  0.00    +0.000 C 
ENDBRANCH  18  20
ENDBRANCH  17  18
ENDBRANCH  13  17
ENDBRANCH   1  15
BRANCH   8  21
ATOM     21  S   UNL     1       0.078  11.105  20.182  0.00  0.00    +0.000 S 
ATOM     22  O   UNL     1      -0.965  11.131  21.185  0.00  0.00    +0.000 OA
ATOM     23  O   UNL     1       1.198  12.031  20.282  0.00  0.00    +0.000 OA
BRANCH  21  24
ATOM     24  N   UNL     1      -0.626  11.271  18.650  0.00  0.00    +0.000 NA
ATOM     25  C   UNL     1      -1.777  10.398  18.341  0.00  0.00    +0.000 C 
ATOM     26  C   UNL     1      -0.867  12.669  18.242  0.00  0.00    +0.000 C 
ENDBRANCH  21  24
ENDBRANCH   8  21
TORSDOF 6
ENDMDL
MODEL 4
REMARK VINA RESULT:      -6.6      1.594      2.003
REMARK  Name = 
REMARK  11 active torsions:
REMARK  status: ('A' for Active; 'I' for Inactive)
REMARK    1  A    between atoms: C_1  and  C_2
REMARK    2  A    between atoms: C_2  and  C_3
REMARK    3  A    between atoms: C_3  and  C_4
REMARK    4  A    between atoms: C_4  and  N_5
REMARK    5  A    between atoms: N_5  and  C_6
REMARK    6  A    between atoms: C_7  and  C_9
REMARK    7  A    between atoms: N_11  and  C_12
REMARK    8  A    between atoms: C_16  and  S_17
REMARK    9  A    between atoms: S_17  and  N_20
REMARK   10  A    between atoms: N_20  and  C_21
REMARK   11  A    between atoms: N_20  and  C_22
REMARK                            x       y       z     vdW  Elec       q    Type
REMARK                         _______ _______ _______ _____ _____    ______ ____
ROOT
ATOM      1  C   UNL     1       3.730   6.448  18.107  0.00  0.00    +0.000 A 
ATOM      2  C   UNL     1       3.520   5.742  19.228  0.00  0.00    +0.000 A 
ATOM      3  N   UNL     1       2.539   5.862  20.181  0.00  0.00    +0.000 N 
ATOM      4  C   UNL     1       2.281   4.797  21.143  0.00  0.00    +0.000 C 
ATOM      5  C   UNL     1       1.807   7.054  20.191  0.00  0.00    +0.000 A 
ATOM      6  C   UNL     1       0.911   7.353  21.211  0.00  0.00    +0.000 A 
ATOM      7  C   UNL     1       0.269   8.595  21.253  0.00  0.00    +0.000 A 
ATOM      8  C   UNL     1       0.529   9.539  20.243  0.00  0.00    +0.000 A 
ATOM      9  C   UNL     1       1.395   9.246  19.201  0.00  0.00    +0.000 A 
ATOM     10  C   UNL     1       2.016   8.000  19.168  0.00  0.00    +0.000 A 
ATOM     11  C   UNL     1       2.915   7.690  18.020  0.00  0.00    +0.000 A 
ATOM     12  O   UNL     1       2.949   8.450  17.057  0.00  0.00    +0.000 OA
ENDROOT
BRANCH   1  15
ATOM     13  N   UNL     1       4.795   4.715  16.657  0.00  0.00    +0.000 N 
ATOM     14  C   UNL     1       3.795   3.677  16.932  0.00  0.00    +0.000 C 
ATOM     15  C   UNL     1       4.754   6.047  17.098  0.00  0.00    +0.000 C 
ATOM     16  O   UNL     1       5.532   6.888  16.666  0.00  0.00    +0.000 OA
BRANCH  13  17
ATOM     17  C   UNL     1       5.809   4.374  15.660  0.00  0.00    +0.000 C 
BRANCH  17  18
ATOM     18  C   UNL     1       5.318   4.422  14.212  0.00  0.00    +0.000 C 
BRANCH  18  20
ATOM     19  C   UNL     1       5.382   3.199  12.042  0.00  0.00    +0.000 C 
ATOM     20  C   UNL     1       6.210   3.668  13.230  0.00  0.00    +0.000 C 
ENDBRANCH  18  20
ENDBRANCH  17  18
ENDBRANCH  13  17
ENDBRANCH   1  15
BRANCH   8  21
ATOM     21  S   UNL     1      -0.203  11.151  20.313  0.00  0.00    +0.000 S 
ATOM     22  O   UNL     1      -1.385  11.117  19.478  0.00  0.00    +0.000 OA
ATOM     23  O   UNL     1      -0.322  11.524  21.716  0.00  0.00    +0.000 OA
BRANCH  21  24
ATOM     24  N   UNL     1       0.958  12.148  19.585  0.00  0.00    +0.000 NA
ATOM     25  C   UNL     1       0.491  13.053  18.515  0.00  0.00    +0.000 C 
ATOM     26  C   UNL     1       1.851  12.833  20.539  0.00  0.00    +0.000 C 
ENDBRANCH  21  24
ENDBRANCH   8  21
TORSDOF 6
ENDMDL
MODEL 5
REMARK VINA RESULT:      -6.5      3.147      8.299
REMARK  Name = 
REMARK  11 active torsions:
REMARK  status: ('A' for Active; 'I' for Inactive)
REMARK    1  A    between atoms: C_1  and  C_2
REMARK    2  A    between atoms: C_2  and  C_3
REMARK    3  A    between atoms: C_3  and  C_4
REMARK    4  A    between atoms: C_4  and  N_5
REMARK    5  A    between atoms: N_5  and  C_6
REMARK    6  A    between atoms: C_7  and  C_9
REMARK    7  A    between atoms: N_11  and  C_12
REMARK    8  A    between atoms: C_16  and  S_17
REMARK    9  A    between atoms: S_17  and  N_20
REMARK   10  A    between atoms: N_20  and  C_21
REMARK   11  A    between atoms: N_20  and  C_22
REMARK                            x       y       z     vdW  Elec       q    Type
REMARK                         _______ _______ _______ _____ _____    ______ ____
ROOT
ATOM      1  C   UNL     1       0.577  11.193  19.349  0.00  0.00    +0.000 A 
ATOM      2  C   UNL     1       0.014  10.657  20.441  0.00  0.00    +0.000 A 
ATOM      3  N   UNL     1       0.323   9.507  21.124  0.00  0.00    +0.000 N 
ATOM      4  C   UNL     1      -0.179   9.265  22.472  0.00  0.00    +0.000 C 
ATOM      5  C   UNL     1       1.132   8.576  20.464  0.00  0.00    +0.000 A 
ATOM      6  C   UNL     1       1.367   7.309  20.989  0.00  0.00    +0.000 A 
ATOM      7  C   UNL     1       2.095   6.362  20.261  0.00  0.00    +0.000 A 
ATOM      8  C   UNL     1       2.599   6.705  18.994  0.00  0.00    +0.000 A 
ATOM      9  C   UNL     1       2.401   7.973  18.469  0.00  0.00    +0.000 A 
ATOM     10  C   UNL     1       1.686   8.909  19.212  0.00  0.00    +0.000 A 
ATOM     11  C   UNL     1       1.515  10.277  18.647  0.00  0.00    +0.000 A 
ATOM     12  O   UNL     1       2.147  10.600  17.645  0.00  0.00    +0.000 OA
ENDROOT
BRANCH   1  15
ATOM     13  N   UNL     1       0.963  13.661  19.285  0.00  0.00    +0.000 N 
ATOM     14  C   UNL     1       2.226  13.618  20.030  0.00  0.00    +0.000 C 
ATOM     15  C   UNL     1       0.212  12.555  18.857  0.00  0.00    +0.000 C 
ATOM     16  O   UNL     1      -0.727  12.681  18.083  0.00  0.00    +0.000 OA
BRANCH  13  17
ATOM     17  C   UNL     1       0.573  14.972  18.767  0.00  0.00    +0.000 C 
BRANCH  17  18
ATOM     18  C   UNL     1       1.723  15.972  18.638  0.00  0.00    +0.000 C 
BRANCH  18  20
ATOM     19  C   UNL     1       1.144  18.031  17.359  0.00  0.00    +0.000 C 
ATOM     20  C   UNL     1       1.291  17.431  18.750  0.00  0.00    +0.000 C 
ENDBRANCH  18  20
ENDBRANCH  17  18
ENDBRANCH  13  17
ENDBRANCH   1  15
BRANCH   8  21
ATOM     21  S   UNL     1       3.451   5.501  18.012  0.00  0.00    +0.000 S 
ATOM     22  O   UNL     1       2.469   4.524  17.593  0.00  0.00    +0.000 OA
ATOM     23  O   UNL     1       4.229   6.216  17.010  0.00  0.00    +0.000 OA
BRANCH  21  24
ATOM     24  N   UNL     1       4.518   4.774  19.109  0.00  0.00    +0.000 NA
ATOM     25  C   UNL     1       4.422   3.309  19.270  0.00  0.00    +0.000 C 
ATOM     26  C   UNL     1       5.917   5.226  18.983  0.00  0.00    +0.000 C 
ENDBRANCH  21  24
ENDBRANCH   8  21
TORSDOF 6
ENDMDL
MODEL 6
REMARK VINA RESULT:      -6.4      1.462      1.900
REMARK  Name = 
REMARK  11 active torsions:
REMARK  status: ('A' for Active; 'I' for Inactive)
REMARK    1  A    between atoms: C_1  and  C_2
REMARK    2  A    between atoms: C_2  and  C_3
REMARK    3  A    between atoms: C_3  and  C_4
REMARK    4  A    between atoms: C_4  and  N_5
REMARK    5  A    between atoms: N_5  and  C_6
REMARK    6  A    between atoms: C_7  and  C_9
REMARK    7  A    between atoms: N_11  and  C_12
REMARK    8  A    between atoms: C_16  and  S_17
REMARK    9  A    between atoms: S_17  and  N_20
REMARK   10  A    between atoms: N_20  and  C_21
REMARK   11  A    between atoms: N_20  and  C_22
REMARK                            x       y       z     vdW  Elec       q    Type
REMARK                         _______ _______ _______ _____ _____    ______ ____
ROOT
ATOM      1  C   UNL     1       3.965   6.214  18.120  0.00  0.00    +0.000 A 
ATOM      2  C   UNL     1       3.672   5.614  19.283  0.00  0.00    +0.000 A 
ATOM      3  N   UNL     1       2.648   5.848  20.168  0.00  0.00    +0.000 N 
ATOM      4  C   UNL     1       2.302   4.878  21.200  0.00  0.00    +0.000 C 
ATOM      5  C   UNL     1       1.962   7.060  20.038  0.00  0.00    +0.000 A 
ATOM      6  C   UNL     1       1.027   7.474  20.980  0.00  0.00    +0.000 A 
ATOM      7  C   UNL     1       0.431   8.736  20.883  0.00  0.00    +0.000 A 
ATOM      8  C   UNL     1       0.778   9.581  19.814  0.00  0.00    +0.000 A 
ATOM      9  C   UNL     1       1.685   9.172  18.849  0.00  0.00    +0.000 A 
ATOM     10  C   UNL     1       2.259   7.907  18.953  0.00  0.00    +0.000 A 
ATOM     11  C   UNL     1       3.203   7.471  17.886  0.00  0.00    +0.000 A 
ATOM     12  O   UNL     1       3.315   8.144  16.866  0.00  0.00    +0.000 OA
ENDROOT
BRANCH   1  15
ATOM     13  N   UNL     1       4.888   4.407  16.662  0.00  0.00    +0.000 N 
ATOM     14  C   UNL     1       3.695   3.556  16.733  0.00  0.00    +0.000 C 
ATOM     15  C   UNL     1       5.024   5.694  17.205  0.00  0.00    +0.000 C 
ATOM     16  O   UNL     1       5.985   6.403  16.937  0.00  0.00    +0.000 OA
BRANCH  13  17
ATOM     17  C   UNL     1       5.945   3.948  15.763  0.00  0.00    +0.000 C 
BRANCH  17  18
ATOM     18  C   UNL     1       5.903   4.566  14.364  0.00  0.00    +0.000 C 
BRANCH  18  20
ATOM     19  C   UNL     1       6.611   3.569  12.192  0.00  0.00    +0.000 C 
ATOM     20  C   UNL     1       5.528   3.580  13.262  0.00  0.00    +0.000 C 
ENDBRANCH  18  20
ENDBRANCH  17  18
ENDBRANCH  13  17
ENDBRANCH   1  15
BRANCH   8  21
ATOM     21  S   UNL     1       0.105  11.217  19.709  0.00  0.00    +0.000 S 
ATOM     22  O   UNL     1       0.743  11.866  18.584  0.00  0.00    +0.000 OA
ATOM     23  O   UNL     1      -1.347  11.103  19.747  0.00  0.00    +0.000 OA
BRANCH  21  24
ATOM     24  N   UNL     1       0.627  11.955  21.142  0.00  0.00    +0.000 NA
ATOM     25  C   UNL     1       1.526  13.120  21.008  0.00  0.00    +0.000 C 
ATOM     26  C   UNL     1      -0.446  12.195  22.126  0.00  0.00    +0.000 C 
ENDBRANCH  21  24
ENDBRANCH   8  21
TORSDOF 6
ENDMDL
MODEL 7
REMARK VINA RESULT:      -6.3      1.409      1.731
REMARK  Name = 
REMARK  11 active torsions:
REMARK  status: ('A' for Active; 'I' for Inactive)
REMARK    1  A    between atoms: C_1  and  C_2
REMARK    2  A    between atoms: C_2  and  C_3
REMARK    3  A    between atoms: C_3  and  C_4
REMARK    4  A    between atoms: C_4  and  N_5
REMARK    5  A    between atoms: N_5  and  C_6
REMARK    6  A    between atoms: C_7  and  C_9
REMARK    7  A    between atoms: N_11  and  C_12
REMARK    8  A    between atoms: C_16  and  S_17
REMARK    9  A    between atoms: S_17  and  N_20
REMARK   10  A    between atoms: N_20  and  C_21
REMARK   11  A    between atoms: N_20  and  C_22
REMARK                            x       y       z     vdW  Elec       q    Type
REMARK                         _______ _______ _______ _____ _____    ______ ____
ROOT
ATOM      1  C   UNL     1       3.778   5.739  17.987  0.00  0.00    +0.000 A 
ATOM      2  C   UNL     1       3.519   5.227  19.199  0.00  0.00    +0.000 A 
ATOM      3  N   UNL     1       2.594   5.605  20.141  0.00  0.00    +0.000 N 
ATOM      4  C   UNL     1       2.235   4.726  21.248  0.00  0.00    +0.000 C 
ATOM      5  C   UNL     1       2.021   6.873  19.994  0.00  0.00    +0.000 A 
ATOM      6  C   UNL     1       1.206   7.425  20.977  0.00  0.00    +0.000 A 
ATOM      7  C   UNL     1       0.730   8.734  20.853  0.00  0.00    +0.000 A 
ATOM      8  C   UNL     1       1.074   9.488  19.716  0.00  0.00    +0.000 A 
ATOM      9  C   UNL     1       1.860   8.943  18.712  0.00  0.00    +0.000 A 
ATOM     10  C   UNL     1       2.315   7.633  18.845  0.00  0.00    +0.000 A 
ATOM     11  C   UNL     1       3.127   7.053  17.739  0.00  0.00    +0.000 A 
ATOM     12  O   UNL     1       3.225   7.662  16.677  0.00  0.00    +0.000 OA
ENDROOT
BRANCH   1  15
ATOM     13  N   UNL     1       6.002   5.585  16.859  0.00  0.00    +0.000 N 
ATOM     14  C   UNL     1       6.641   6.618  17.682  0.00  0.00    +0.000 C 
ATOM     15  C   UNL     1       4.708   5.071  17.028  0.00  0.00    +0.000 C 
ATOM     16  O   UNL     1       4.327   4.082  16.415  0.00  0.00    +0.000 OA
BRANCH  13  17
ATOM     17  C   UNL     1       6.878   4.890  15.917  0.00  0.00    +0.000 C 
BRANCH  17  18
ATOM     18  C   UNL     1       6.651   5.253  14.449  0.00  0.00    +0.000 C 
BRANCH  18  20
ATOM     19  C   UNL     1       5.299   3.718  13.026  0.00  0.00    +0.000 C 
ATOM     20  C   UNL     1       6.705   4.060  13.500  0.00  0.00    +0.000 C 
ENDBRANCH  18  20
ENDBRANCH  17  18
ENDBRANCH  13  17
ENDBRANCH   1  15
BRANCH   8  21
ATOM     21  S   UNL     1       0.558  11.177  19.570  0.00  0.00    +0.000 S 
ATOM     22  O   UNL     1      -0.144  11.297  18.310  0.00  0.00    +0.000 OA
ATOM     23  O   UNL     1      -0.115  11.544  20.808  0.00  0.00    +0.000 OA
BRANCH  21  24
ATOM     24  N   UNL     1       2.017  12.033  19.472  0.00  0.00    +0.000 NA
ATOM     25  C   UNL     1       2.436  12.495  18.133  0.00  0.00    +0.000 C 
ATOM     26  C   UNL     1       2.171  13.086  20.494  0.00  0.00    +0.000 C 
ENDBRANCH  21  24
ENDBRANCH   8  21
TORSDOF 6
ENDMDL
MODEL 8
REMARK VINA RESULT:      -6.3      1.576      2.272
REMARK  Name = 
REMARK  11 active torsions:
REMARK  status: ('A' for Active; 'I' for Inactive)
REMARK    1  A    between atoms: C_1  and  C_2
REMARK    2  A    between atoms: C_2  and  C_3
REMARK    3  A    between atoms: C_3  and  C_4
REMARK    4  A    between atoms: C_4  and  N_5
REMARK    5  A    between atoms: N_5  and  C_6
REMARK    6  A    between atoms: C_7  and  C_9
REMARK    7  A    between atoms: N_11  and  C_12
REMARK    8  A    between atoms: C_16  and  S_17
REMARK    9  A    between atoms: S_17  and  N_20
REMARK   10  A    between atoms: N_20  and  C_21
REMARK   11  A    between atoms: N_20  and  C_22
REMARK                            x       y       z     vdW  Elec       q    Type
REMARK                         _______ _______ _______ _____ _____    ______ ____
ROOT
ATOM      1  C   UNL     1       3.449   6.534  18.038  0.00  0.00    +0.000 A 
ATOM      2  C   UNL     1       3.251   5.817  19.155  0.00  0.00    +0.000 A 
ATOM      3  N   UNL     1       2.339   5.989  20.167  0.00  0.00    +0.000 N 
ATOM      4  C   UNL     1       2.056   4.923  21.121  0.00  0.00    +0.000 C 
ATOM      5  C   UNL     1       1.705   7.233  20.246  0.00  0.00    +0.000 A 
ATOM      6  C   UNL     1       0.896   7.574  21.324  0.00  0.00    +0.000 A 
ATOM      7  C   UNL     1       0.357   8.860  21.430  0.00  0.00    +0.000 A 
ATOM      8  C   UNL     1       0.630   9.806  20.426  0.00  0.00    +0.000 A 
ATOM      9  C   UNL     1       1.409   9.474  19.328  0.00  0.00    +0.000 A 
ATOM     10  C   UNL     1       1.928   8.185  19.232  0.00  0.00    +0.000 A 
ATOM     11  C   UNL     1       2.731   7.837  18.026  0.00  0.00    +0.000 A 
ATOM     12  O   UNL     1       2.768   8.615  17.079  0.00  0.00    +0.000 OA
ENDROOT
BRANCH   1  15
ATOM     13  N   UNL     1       4.647   4.710  16.820  0.00  0.00    +0.000 N 
ATOM     14  C   UNL     1       3.950   3.614  17.503  0.00  0.00    +0.000 C 
ATOM     15  C   UNL     1       4.379   6.080  16.961  0.00  0.00    +0.000 C 
ATOM     16  O   UNL     1       4.881   6.910  16.215  0.00  0.00    +0.000 OA
BRANCH  13  17
ATOM     17  C   UNL     1       5.554   4.315  15.744  0.00  0.00    +0.000 C 
BRANCH  17  18
ATOM     18  C   UNL     1       7.021   4.674  15.984  0.00  0.00    +0.000 C 
BRANCH  18  20
ATOM     19  C   UNL     1       7.660   5.824  18.100  0.00  0.00    +0.000 C 
ATOM     20  C   UNL     1       7.480   4.472  17.424  0.00  0.00    +0.000 C 
ENDBRANCH  18  20
ENDBRANCH  17  18
ENDBRANCH  13  17
ENDBRANCH   1  15
BRANCH   8  21
ATOM     21  S   UNL     1       0.032  11.468  20.574  0.00  0.00    +0.000 S 
ATOM     22  O   UNL     1      -1.304  11.390  21.125  0.00  0.00    +0.000 OA
ATOM     23  O   UNL     1       1.052  12.248  21.261  0.00  0.00    +0.000 OA
BRANCH  21  24
ATOM     24  N   UNL     1      -0.064  12.000  18.968  0.00  0.00    +0.000 NA
ATOM     25  C   UNL     1      -1.411  12.086  18.368  0.00  0.00    +0.000 C 
ATOM     26  C   UNL     1       0.748  13.198  18.677  0.00  0.00    +0.000 C 
ENDBRANCH  21  24
ENDBRANCH   8  21
TORSDOF 6
ENDMDL
MODEL 9
REMARK VINA RESULT:      -6.3      1.695      2.190
REMARK  Name = 
REMARK  11 active torsions:
REMARK  status: ('A' for Active; 'I' for Inactive)
REMARK    1  A    between atoms: C_1  and  C_2
REMARK    2  A    between atoms: C_2  and  C_3
REMARK    3  A    between atoms: C_3  and  C_4
REMARK    4  A    between atoms: C_4  and  N_5
REMARK    5  A    between atoms: N_5  and  C_6
REMARK    6  A    between atoms: C_7  and  C_9
REMARK    7  A    between atoms: N_11  and  C_12
REMARK    8  A    between atoms: C_16  and  S_17
REMARK    9  A    between atoms: S_17  and  N_20
REMARK   10  A    between atoms: N_20  and  C_21
REMARK   11  A    between atoms: N_20  and  C_22
REMARK                            x       y       z     vdW  Elec       q    Type
REMARK                         _______ _______ _______ _____ _____    ______ ____
ROOT
ATOM      1  C   UNL     1       4.914   5.600  17.581  0.00  0.00    +0.000 A 
ATOM      2  C   UNL     1       4.767   4.540  18.389  0.00  0.00    +0.000 A 
ATOM      3  N   UNL     1       3.782   4.251  19.301  0.00  0.00    +0.000 N 
ATOM      4  C   UNL     1       3.615   2.905  19.838  0.00  0.00    +0.000 C 
ATOM      5  C   UNL     1       2.955   5.308  19.698  0.00  0.00    +0.000 A 
ATOM      6  C   UNL     1       2.041   5.170  20.737  0.00  0.00    +0.000 A 
ATOM      7  C   UNL     1       1.300   6.270  21.182  0.00  0.00    +0.000 A 
ATOM      8  C   UNL     1       1.479   7.518  20.561  0.00  0.00    +0.000 A 
ATOM      9  C   UNL     1       2.363   7.667  19.503  0.00  0.00    +0.000 A 
ATOM     10  C   UNL     1       3.084   6.559  19.063  0.00  0.00    +0.000 A 
ATOM     11  C   UNL     1       4.001   6.730  17.902  0.00  0.00    +0.000 A 
ATOM     12  O   UNL     1       3.970   7.772  17.255  0.00  0.00    +0.000 OA
ENDROOT
BRANCH   1  15
ATOM     13  N   UNL     1       6.131   4.542  15.672  0.00  0.00    +0.000 N 
ATOM     14  C   UNL     1       5.238   3.383  15.570  0.00  0.00    +0.000 C 
ATOM     15  C   UNL     1       5.965   5.647  16.521  0.00  0.00    +0.000 C 
ATOM     16  O   UNL     1       6.655   6.652  16.406  0.00  0.00    +0.000 OA
BRANCH  13  17
ATOM     17  C   UNL     1       7.165   4.642  14.643  0.00  0.00    +0.000 C 
BRANCH  17  18
ATOM     18  C   UNL     1       6.634   4.878  13.228  0.00  0.00    +0.000 C 
BRANCH  18  20
ATOM     19  C   UNL     1       5.528   3.057  11.936  0.00  0.00    +0.000 C 
ATOM     20  C   UNL     1       6.862   3.707  12.278  0.00  0.00    +0.000 C 
ENDBRANCH  18  20
ENDBRANCH  17  18
ENDBRANCH  13  17
ENDBRANCH   1  15
BRANCH   8  21
ATOM     21  S   UNL     1       0.618   8.949  21.156  0.00  0.00    +0.000 S 
ATOM     22  O   UNL     1      -0.734   8.532  21.463  0.00  0.00    +0.000 OA
ATOM     23  O   UNL     1       1.438   9.559  22.194  0.00  0.00    +0.000 OA
BRANCH  21  24
ATOM     24  N   UNL     1       0.586   9.982  19.814  0.00  0.00    +0.000 NA
ATOM     25  C   UNL     1      -0.663  10.022  19.027  0.00  0.00    +0.000 C 
ATOM     26  C   UNL     1       1.118  11.334  20.078  0.00  0.00    +0.000 C 
ENDBRANCH  21  24
ENDBRANCH   8  21
TORSDOF 6
ENDMDL
