MODEL 1
REMARK VINA RESULT:      -7.9      0.000      0.000
REMARK  Name = 
REMARK  9 active torsions:
REMARK  status: ('A' for Active; 'I' for Inactive)
REMARK    1  A    between atoms: C_5  and  C_6
REMARK    2  A    between atoms: C_6  and  N_7
REMARK    3  A    between atoms: N_7  and  C_8
REMARK    4  A    between atoms: N_7  and  C_15
REMARK    5  A    between atoms: C_8  and  C_9
REMARK    6  A    between atoms: C_9  and  N_10
REMARK    7  A    between atoms: C_15  and  C_16
REMARK    8  A    between atoms: C_16  and  N_17
REMARK    9  A    between atoms: C_21  and  C_22
REMARK                            x       y       z     vdW  Elec       q    Type
REMARK                         _______ _______ _______ _____ _____    ______ ____
ROOT
ATOM      1  N   UNL     1       2.923   7.089  18.222  0.00  0.00    +0.000 NA
ENDROOT
BRANCH   1   2
ATOM      2  C   UNL     1       1.944   8.191  18.022  0.00  0.00    +0.000 C 
BRANCH   2   7
ATOM      3 CL   UNL     1      -0.607   9.894  23.214  0.00  0.00    +0.000 Cl
ATOM      4  C   UNL     1       0.185   9.504  21.737  0.00  0.00    +0.000 A 
ATOM      5  C   UNL     1       1.266   8.630  21.742  0.00  0.00    +0.000 A 
ATOM      6  C   UNL     1       1.859   8.256  20.534  0.00  0.00    +0.000 A 
ATOM      7  C   UNL     1       1.363   8.742  19.309  0.00  0.00    +0.000 A 
ATOM      8  C   UNL     1       0.319   9.683  19.335  0.00  0.00    +0.000 A 
ATOM      9 CL   UNL     1      -0.298  10.413  17.896  0.00  0.00    +0.000 Cl
ATOM     10  C   UNL     1      -0.275  10.054  20.543  0.00  0.00    +0.000 A 
ENDBRANCH   2   7
ENDBRANCH   1   2
BRANCH   1  11
ATOM     11  C   UNL     1       2.304   5.758  18.002  0.00  0.00    +0.000 C 
BRANCH  11  12
ATOM     12  C   UNL     1       2.252   4.869  19.257  0.00  0.00    +0.000 C 
BRANCH  12  13
ATOM     13  N   UNL     1       2.870   3.577  19.035  0.00  0.00    +0.000 N 
ATOM     14  C   UNL     1       3.754   2.944  19.853  0.00  0.00    +0.000 A 
ATOM     15  C   UNL     1       4.068   1.778  19.192  0.00  0.00    +0.000 A 
ATOM     16  N   UNL     1       3.402   1.700  17.995  0.00  0.00    +0.000 NA
ATOM     17  C   UNL     1       2.693   2.802  17.922  0.00  0.00    +0.000 A 
ENDBRANCH  12  13
ENDBRANCH  11  12
ENDBRANCH   1  11
BRANCH   1  18
ATOM     18  C   UNL     1       4.112   7.268  17.350  0.00  0.00    +0.000 C 
BRANCH  18  19
ATOM     19  C   UNL     1       4.673   6.001  16.681  0.00  0.00    +0.000 C 
BRANCH  19  20
ATOM     20  N   UNL     1       5.967   5.522  17.123  0.00  0.00    +0.000 N 
ATOM     21  C   UNL     1       6.430   5.516  18.416  0.00  0.00    +0.000 A 
ATOM     22  C   UNL     1       7.631   4.859  18.377  0.00  0.00    +0.000 A 
ATOM     23  N   UNL     1       7.908   4.452  17.107  0.00  0.00    +0.000 NA
ATOM     24  C   UNL     1       6.912   4.875  16.340  0.00  0.00    +0.000 A 
BRANCH  24  25
ATOM     25  C   UNL     1       6.841   4.611  14.894  0.00  0.00    +0.000 A 
ATOM     26  C   UNL     1       7.717   5.294  14.037  0.00  0.00    +0.000 A 
ATOM     27  C   UNL     1       7.677   5.091  12.654  0.00  0.00    +0.000 A 
ATOM     28  C   UNL     1       6.768   4.189  12.108  0.00  0.00    +0.000 A 
ATOM     29  C   UNL     1       5.880   3.516  12.940  0.00  0.00    +0.000 A 
ATOM     30  C   UNL     1       5.899   3.750  14.317  0.00  0.00    +0.000 A 
ENDBRANCH  24  25
ENDBRANCH  19  20
ENDBRANCH  18  19
ENDBRANCH   1  18
TORSDOF 9
ENDMDL
MODEL 2
REMARK VINA RESULT:      -7.8      0.965      1.218
REMARK  Name = 
REMARK  9 active torsions:
REMARK  status: ('A' for Active; 'I' for Inactive)
REMARK    1  A    between atoms: C_5  and  C_6
REMARK    2  A    between atoms: C_6  and  N_7
REMARK    3  A    between atoms: N_7  and  C_8
REMARK    4  A    between atoms: N_7  and  C_15
REMARK    5  A    between atoms: C_8  and  C_9
REMARK    6  A    between atoms: C_9  and  N_10
REMARK    7  A    between atoms: C_15  and  C_16
REMARK    8  A    between atoms: C_16  and  N_17
REMARK    9  A    between atoms: C_21  and  C_22
REMARK                            x       y       z     vdW  Elec       q    Type
REMARK                         _______ _______ _______ _____ _____    ______ ____
ROOT
ATOM      1  N   UNL     1       3.252   6.728  18.177  0.00  0.00    +0.000 NA
ENDROOT
BRANCH   1   2
ATOM      2  C   UNL     1       2.069   7.617  18.022  0.00  0.00    +0.000 C 
BRANCH   2   7
ATOM      3 CL   UNL     1      -0.153   9.896  23.144  0.00  0.00    +0.000 Cl
ATOM      4  C   UNL     1       0.578   9.304  21.703  0.00  0.00    +0.000 A 
ATOM      5  C   UNL     1       1.178   8.049  21.697  0.00  0.00    +0.000 A 
ATOM      6  C   UNL     1       1.703   7.539  20.509  0.00  0.00    +0.000 A 
ATOM      7  C   UNL     1       1.619   8.276  19.311  0.00  0.00    +0.000 A 
ATOM      8  C   UNL     1       1.078   9.572  19.359  0.00  0.00    +0.000 A 
ATOM      9 CL   UNL     1       1.015  10.595  17.967  0.00  0.00    +0.000 Cl
ATOM     10  C   UNL     1       0.549  10.079  20.547  0.00  0.00    +0.000 A 
ENDBRANCH   2   7
ENDBRANCH   1   2
BRANCH   1  11
ATOM     11  C   UNL     1       2.975   5.356  17.683  0.00  0.00    +0.000 C 
BRANCH  11  12
ATOM     12  C   UNL     1       1.680   4.734  18.236  0.00  0.00    +0.000 C 
BRANCH  12  13
ATOM     13  N   UNL     1       1.915   3.982  19.452  0.00  0.00    +0.000 N 
ATOM     14  C   UNL     1       1.049   3.815  20.488  0.00  0.00    +0.000 A 
ATOM     15  C   UNL     1       1.743   3.060  21.406  0.00  0.00    +0.000 A 
ATOM     16  N   UNL     1       3.006   2.777  20.952  0.00  0.00    +0.000 NA
ATOM     17  C   UNL     1       3.086   3.353  19.775  0.00  0.00    +0.000 A 
ENDBRANCH  12  13
ENDBRANCH  11  12
ENDBRANCH   1  11
BRANCH   1  18
ATOM     18  C   UNL     1       4.441   7.302  17.498  0.00  0.00    +0.000 C 
BRANCH  18  19
ATOM     19  C   UNL     1       5.151   6.401  16.471  0.00  0.00    +0.000 C 
BRANCH  19  20
ATOM     20  N   UNL     1       6.326   5.676  16.910  0.00  0.00    +0.000 N 
ATOM     21  C   UNL     1       6.787   5.586  18.200  0.00  0.00    +0.000 A 
ATOM     22  C   UNL     1       7.833   4.702  18.160  0.00  0.00    +0.000 A 
ATOM     23  N   UNL     1       8.015   4.240  16.892  0.00  0.00    +0.000 NA
ATOM     24  C   UNL     1       7.118   4.849  16.127  0.00  0.00    +0.000 A 
BRANCH  24  25
ATOM     25  C   UNL     1       6.986   4.595  14.683  0.00  0.00    +0.000 A 
ATOM     26  C   UNL     1       7.798   5.314  13.792  0.00  0.00    +0.000 A 
ATOM     27  C   UNL     1       7.697   5.122  12.411  0.00  0.00    +0.000 A 
ATOM     28  C   UNL     1       6.792   4.196  11.900  0.00  0.00    +0.000 A 
ATOM     29  C   UNL     1       5.967   3.488  12.766  0.00  0.00    +0.000 A 
ATOM     30  C   UNL     1       6.045   3.710  14.143  0.00  0.00    +0.000 A 
ENDBRANCH  24  25
ENDBRANCH  19  20
ENDBRANCH  18  19
ENDBRANCH   1  18
TORSDOF 9
ENDMDL
MODEL 3
REMARK VINA RESULT:      -7.5      1.878      3.753
REMARK  Name = 
REMARK  9 active torsions:
REMARK  status: ('A' for Active; 'I' for Inactive)
REMARK    1  A    between atoms: C_5  and  C_6
REMARK    2  A    between atoms: C_6  and  N_7
REMARK    3  A    between atoms: N_7  and  C_8
REMARK    4  A    between atoms: N_7  and  C_15
REMARK    5  A    between atoms: C_8  and  C_9
REMARK    6  A    between atoms: C_9  and  N_10
REMARK    7  A    between atoms: C_15  and  C_16
REMARK    8  A    between atoms: C_16  and  N_17
REMARK    9  A    between atoms: C_21  and  C_22
REMARK                            x       y       z     vdW  Elec       q    Type
REMARK                         _______ _______ _______ _____ _____    ______ ____
ROOT
ATOM      1  N   UNL     1       3.325   4.898  18.088  0.00  0.00    +0.000 NA
ENDROOT
BRANCH   1   2
ATOM      2  C   UNL     1       3.747   6.052  18.926  0.00  0.00    +0.000 C 
BRANCH   2   7
ATOM      3 CL   UNL     1       0.342  11.029  18.901  0.00  0.00    +0.000 Cl
ATOM      4  C   UNL     1       1.222   9.551  18.867  0.00  0.00    +0.000 A 
ATOM      5  C   UNL     1       2.050   9.263  17.787  0.00  0.00    +0.000 A 
ATOM      6  C   UNL     1       2.821   8.100  17.798  0.00  0.00    +0.000 A 
ATOM      7  C   UNL     1       2.782   7.221  18.898  0.00  0.00    +0.000 A 
ATOM      8  C   UNL     1       1.882   7.494  19.942  0.00  0.00    +0.000 A 
ATOM      9 CL   UNL     1       1.686   6.432  21.291  0.00  0.00    +0.000 Cl
ATOM     10  C   UNL     1       1.114   8.661  19.932  0.00  0.00    +0.000 A 
ENDBRANCH   2   7
ENDBRANCH   1   2
BRANCH   1  11
ATOM     11  C   UNL     1       1.848   4.756  18.053  0.00  0.00    +0.000 C 
BRANCH  11  12
ATOM     12  C   UNL     1       1.338   3.362  18.461  0.00  0.00    +0.000 C 
BRANCH  12  13
ATOM     13  N   UNL     1       1.731   3.013  19.812  0.00  0.00    +0.000 N 
ATOM     14  C   UNL     1       0.958   3.080  20.930  0.00  0.00    +0.000 A 
ATOM     15  C   UNL     1       1.788   2.680  21.952  0.00  0.00    +0.000 A 
ATOM     16  N   UNL     1       3.041   2.384  21.479  0.00  0.00    +0.000 NA
ATOM     17  C   UNL     1       2.981   2.601  20.185  0.00  0.00    +0.000 A 
ENDBRANCH  12  13
ENDBRANCH  11  12
ENDBRANCH   1  11
BRANCH   1  18
ATOM     18  C   UNL     1       3.876   5.010  16.713  0.00  0.00    +0.000 C 
BRANCH  18  19
ATOM     19  C   UNL     1       4.768   3.853  16.231  0.00  0.00    +0.000 C 
BRANCH  19  20
ATOM     20  N   UNL     1       5.791   4.154  15.250  0.00  0.00    +0.000 N 
ATOM     21  C   UNL     1       5.774   3.792  13.926  0.00  0.00    +0.000 A 
ATOM     22  C   UNL     1       6.865   4.398  13.362  0.00  0.00    +0.000 A 
ATOM     23  N   UNL     1       7.538   5.128  14.294  0.00  0.00    +0.000 NA
ATOM     24  C   UNL     1       6.902   4.960  15.447  0.00  0.00    +0.000 A 
BRANCH  24  25
ATOM     25  C   UNL     1       7.320   5.612  16.699  0.00  0.00    +0.000 A 
ATOM     26  C   UNL     1       7.586   4.813  17.821  0.00  0.00    +0.000 A 
ATOM     27  C   UNL     1       7.969   5.385  19.039  0.00  0.00    +0.000 A 
ATOM     28  C   UNL     1       8.106   6.766  19.147  0.00  0.00    +0.000 A 
ATOM     29  C   UNL     1       7.829   7.575  18.050  0.00  0.00    +0.000 A 
ATOM     30  C   UNL     1       7.411   7.001  16.847  0.00  0.00    +0.000 A 
ENDBRANCH  24  25
ENDBRANCH  19  20
ENDBRANCH  18  19
ENDBRANCH   1  18
TORSDOF 9
ENDMDL
MODEL 4
REMARK VINA RESULT:      -7.5      1.086      1.636
REMARK  Name = 
REMARK  9 active torsions:
REMARK  status: ('A' for Active; 'I' for Inactive)
REMARK    1  A    between atoms: C_5  and  C_6
REMARK    2  A    between atoms: C_6  and  N_7
REMARK    3  A    between atoms: N_7  and  C_8
REMARK    4  A    between atoms: N_7  and  C_15
REMARK    5  A    between atoms: C_8  and  C_9
REMARK    6  A    between atoms: C_9  and  N_10
REMARK    7  A    between atoms: C_15  and  C_16
REMARK    8  A    between atoms: C_16  and  N_17
REMARK    9  A    between atoms: C_21  and  C_22
REMARK                            x       y       z     vdW  Elec       q    Type
REMARK                         _______ _______ _______ _____ _____    ______ ____
ROOT
ATOM      1  N   UNL     1       2.777   5.935  18.050  0.00  0.00    +0.000 NA
ENDROOT
BRANCH   1   2
ATOM      2  C   UNL     1       2.565   7.404  17.947  0.00  0.00    +0.000 C 
BRANCH   2   7
ATOM      3 CL   UNL     1      -0.243   9.541  22.837  0.00  0.00    +0.000 Cl
ATOM      4  C   UNL     1       0.651   8.992  21.473  0.00  0.00    +0.000 A 
ATOM      5  C   UNL     1       1.282   7.754  21.514  0.00  0.00    +0.000 A 
ATOM      6  C   UNL     1       1.943   7.277  20.380  0.00  0.00    +0.000 A 
ATOM      7  C   UNL     1       1.964   8.030  19.191  0.00  0.00    +0.000 A 
ATOM      8  C   UNL     1       1.385   9.310  19.198  0.00  0.00    +0.000 A 
ATOM      9 CL   UNL     1       1.440  10.354  17.821  0.00  0.00    +0.000 Cl
ATOM     10  C   UNL     1       0.721   9.785  20.331  0.00  0.00    +0.000 A 
ENDBRANCH   2   7
ENDBRANCH   1   2
BRANCH   1  11
ATOM     11  C   UNL     1       1.503   5.187  17.911  0.00  0.00    +0.000 C 
BRANCH  11  12
ATOM     12  C   UNL     1       1.644   3.662  18.074  0.00  0.00    +0.000 C 
BRANCH  12  13
ATOM     13  N   UNL     1       1.901   3.284  19.449  0.00  0.00    +0.000 N 
ATOM     14  C   UNL     1       1.048   3.410  20.503  0.00  0.00    +0.000 A 
ATOM     15  C   UNL     1       1.761   2.949  21.586  0.00  0.00    +0.000 A 
ATOM     16  N   UNL     1       3.021   2.558  21.212  0.00  0.00    +0.000 NA
ATOM     17  C   UNL     1       3.082   2.779  19.919  0.00  0.00    +0.000 A 
ENDBRANCH  12  13
ENDBRANCH  11  12
ENDBRANCH   1  11
BRANCH   1  18
ATOM     18  C   UNL     1       3.773   5.470  17.052  0.00  0.00    +0.000 C 
BRANCH  18  19
ATOM     19  C   UNL     1       5.067   6.293  16.934  0.00  0.00    +0.000 C 
BRANCH  19  20
ATOM     20  N   UNL     1       6.311   5.653  17.314  0.00  0.00    +0.000 N 
ATOM     21  C   UNL     1       6.822   5.569  18.586  0.00  0.00    +0.000 A 
ATOM     22  C   UNL     1       7.931   4.771  18.488  0.00  0.00    +0.000 A 
ATOM     23  N   UNL     1       8.104   4.356  17.203  0.00  0.00    +0.000 NA
ATOM     24  C   UNL     1       7.137   4.910  16.484  0.00  0.00    +0.000 A 
BRANCH  24  25
ATOM     25  C   UNL     1       6.975   4.681  15.039  0.00  0.00    +0.000 A 
ATOM     26  C   UNL     1       6.035   3.734  14.605  0.00  0.00    +0.000 A 
ATOM     27  C   UNL     1       5.857   3.467  13.244  0.00  0.00    +0.000 A 
ATOM     28  C   UNL     1       6.607   4.155  12.295  0.00  0.00    +0.000 A 
ATOM     29  C   UNL     1       7.557   5.084  12.707  0.00  0.00    +0.000 A 
ATOM     30  C   UNL     1       7.757   5.320  14.069  0.00  0.00    +0.000 A 
ENDBRANCH  24  25
ENDBRANCH  19  20
ENDBRANCH  18  19
ENDBRANCH   1  18
TORSDOF 9
ENDMDL
MODEL 5
REMARK VINA RESULT:      -7.4      1.658      3.297
REMARK  Name = 
REMARK  9 active torsions:
REMARK  status: ('A' for Active; 'I' for Inactive)
REMARK    1  A    between atoms: C_5  and  C_6
REMARK    2  A    between atoms: C_6  and  N_7
REMARK    3  A    between atoms: N_7  and  C_8
REMARK    4  A    between atoms: N_7  and  C_15
REMARK    5  A    between atoms: C_8  and  C_9
REMARK    6  A    between atoms: C_9  and  N_10
REMARK    7  A    between atoms: C_15  and  C_16
REMARK    8  A    between atoms: C_16  and  N_17
REMARK    9  A    between atoms: C_21  and  C_22
REMARK                            x       y       z     vdW  Elec       q    Type
REMARK                         _______ _______ _______ _____ _____    ______ ____
ROOT
ATOM      1  N   UNL     1       2.933   5.420  18.268  0.00  0.00    +0.000 NA
ENDROOT
BRANCH   1   2
ATOM      2  C   UNL     1       2.772   6.886  18.072  0.00  0.00    +0.000 C 
BRANCH   2   7
ATOM      3 CL   UNL     1      -0.420   9.355  22.553  0.00  0.00    +0.000 Cl
ATOM      4  C   UNL     1       0.584   8.707  21.315  0.00  0.00    +0.000 A 
ATOM      5  C   UNL     1       1.128   7.435  21.461  0.00  0.00    +0.000 A 
ATOM      6  C   UNL     1       1.879   6.881  20.423  0.00  0.00    +0.000 A 
ATOM      7  C   UNL     1       2.078   7.589  19.222  0.00  0.00    +0.000 A 
ATOM      8  C   UNL     1       1.582   8.901  19.128  0.00  0.00    +0.000 A 
ATOM      9 CL   UNL     1       1.853   9.890  17.737  0.00  0.00    +0.000 Cl
ATOM     10  C   UNL     1       0.828   9.453  20.166  0.00  0.00    +0.000 A 
ENDBRANCH   2   7
ENDBRANCH   1   2
BRANCH   1  11
ATOM     11  C   UNL     1       1.716   4.675  17.859  0.00  0.00    +0.000 C 
BRANCH  11  12
ATOM     12  C   UNL     1       1.729   3.184  18.244  0.00  0.00    +0.000 C 
BRANCH  12  13
ATOM     13  N   UNL     1       1.951   2.991  19.663  0.00  0.00    +0.000 N 
ATOM     14  C   UNL     1       1.076   3.260  20.670  0.00  0.00    +0.000 A 
ATOM     15  C   UNL     1       1.761   2.943  21.821  0.00  0.00    +0.000 A 
ATOM     16  N   UNL     1       3.026   2.499  21.532  0.00  0.00    +0.000 NA
ATOM     17  C   UNL     1       3.117   2.546  20.223  0.00  0.00    +0.000 A 
ENDBRANCH  12  13
ENDBRANCH  11  12
ENDBRANCH   1  11
BRANCH   1  18
ATOM     18  C   UNL     1       4.128   4.915  17.544  0.00  0.00    +0.000 C 
BRANCH  18  19
ATOM     19  C   UNL     1       4.341   5.442  16.115  0.00  0.00    +0.000 C 
BRANCH  19  20
ATOM     20  N   UNL     1       5.492   4.954  15.381  0.00  0.00    +0.000 N 
ATOM     21  C   UNL     1       5.464   4.289  14.180  0.00  0.00    +0.000 A 
ATOM     22  C   UNL     1       6.773   4.144  13.806  0.00  0.00    +0.000 A 
ATOM     23  N   UNL     1       7.597   4.710  14.731  0.00  0.00    +0.000 NA
ATOM     24  C   UNL     1       6.823   5.180  15.700  0.00  0.00    +0.000 A 
BRANCH  24  25
ATOM     25  C   UNL     1       7.349   5.885  16.880  0.00  0.00    +0.000 A 
ATOM     26  C   UNL     1       7.638   5.146  18.037  0.00  0.00    +0.000 A 
ATOM     27  C   UNL     1       8.123   5.772  19.190  0.00  0.00    +0.000 A 
ATOM     28  C   UNL     1       8.340   7.147  19.197  0.00  0.00    +0.000 A 
ATOM     29  C   UNL     1       8.042   7.899  18.065  0.00  0.00    +0.000 A 
ATOM     30  C   UNL     1       7.522   7.274  16.929  0.00  0.00    +0.000 A 
ENDBRANCH  24  25
ENDBRANCH  19  20
ENDBRANCH  18  19
ENDBRANCH   1  18
TORSDOF 9
ENDMDL
MODEL 6
REMARK VINA RESULT:      -7.3      1.324      1.848
REMARK  Name = 
REMARK  9 active torsions:
REMARK  status: ('A' for Active; 'I' for Inactive)
REMARK    1  A    between atoms: C_5  and  C_6
REMARK    2  A    between atoms: C_6  and  N_7
REMARK    3  A    between atoms: N_7  and  C_8
REMARK    4  A    between atoms: N_7  and  C_15
REMARK    5  A    between atoms: C_8  and  C_9
REMARK    6  A    between atoms: C_9  and  N_10
REMARK    7  A    between atoms: C_15  and  C_16
REMARK    8  A    between atoms: C_16  and  N_17
REMARK    9  A    between atoms: C_21  and  C_22
REMARK                            x       y       z     vdW  Elec       q    Type
REMARK                         _______ _______ _______ _____ _____    ______ ____
ROOT
ATOM      1  N   UNL     1       3.295   6.925  18.394  0.00  0.00    +0.000 NA
ENDROOT
BRANCH   1   2
ATOM      2  C   UNL     1       1.905   7.400  18.160  0.00  0.00    +0.000 C 
BRANCH   2   7
ATOM      3 CL   UNL     1       1.366  13.021  20.276  0.00  0.00    +0.000 Cl
ATOM      4  C   UNL     1       1.407  11.419  19.649  0.00  0.00    +0.000 A 
ATOM      5  C   UNL     1       1.811  11.201  18.336  0.00  0.00    +0.000 A 
ATOM      6  C   UNL     1       1.916   9.896  17.853  0.00  0.00    +0.000 A 
ATOM      7  C   UNL     1       1.633   8.796  18.685  0.00  0.00    +0.000 A 
ATOM      8  C   UNL     1       1.153   9.044  19.982  0.00  0.00    +0.000 A 
ATOM      9 CL   UNL     1       0.686   7.768  21.051  0.00  0.00    +0.000 Cl
ATOM     10  C   UNL     1       1.052  10.350  20.467  0.00  0.00    +0.000 A 
ENDBRANCH   2   7
ENDBRANCH   1   2
BRANCH   1  11
ATOM     11  C   UNL     1       3.378   6.033  19.578  0.00  0.00    +0.000 C 
BRANCH  11  12
ATOM     12  C   UNL     1       2.301   4.934  19.618  0.00  0.00    +0.000 C 
BRANCH  12  13
ATOM     13  N   UNL     1       2.836   3.635  19.259  0.00  0.00    +0.000 N 
ATOM     14  C   UNL     1       2.223   2.678  18.511  0.00  0.00    +0.000 A 
ATOM     15  C   UNL     1       3.114   1.631  18.485  0.00  0.00    +0.000 A 
ATOM     16  N   UNL     1       4.242   1.930  19.206  0.00  0.00    +0.000 NA
ATOM     17  C   UNL     1       4.044   3.142  19.669  0.00  0.00    +0.000 A 
ENDBRANCH  12  13
ENDBRANCH  11  12
ENDBRANCH   1  11
BRANCH   1  18
ATOM     18  C   UNL     1       3.837   6.249  17.188  0.00  0.00    +0.000 C 
BRANCH  18  19
ATOM     19  C   UNL     1       5.238   6.686  16.724  0.00  0.00    +0.000 C 
BRANCH  19  20
ATOM     20  N   UNL     1       6.372   5.904  17.175  0.00  0.00    +0.000 N 
ATOM     21  C   UNL     1       6.857   5.846  18.458  0.00  0.00    +0.000 A 
ATOM     22  C   UNL     1       7.838   4.890  18.441  0.00  0.00    +0.000 A 
ATOM     23  N   UNL     1       7.957   4.355  17.195  0.00  0.00    +0.000 NA
ATOM     24  C   UNL     1       7.086   4.986  16.419  0.00  0.00    +0.000 A 
BRANCH  24  25
ATOM     25  C   UNL     1       6.902   4.670  14.993  0.00  0.00    +0.000 A 
ATOM     26  C   UNL     1       7.727   5.298  14.048  0.00  0.00    +0.000 A 
ATOM     27  C   UNL     1       7.580   5.046  12.681  0.00  0.00    +0.000 A 
ATOM     28  C   UNL     1       6.612   4.149  12.239  0.00  0.00    +0.000 A 
ATOM     29  C   UNL     1       5.772   3.531  13.158  0.00  0.00    +0.000 A 
ATOM     30  C   UNL     1       5.899   3.815  14.520  0.00  0.00    +0.000 A 
ENDBRANCH  24  25
ENDBRANCH  19  20
ENDBRANCH  18  19
ENDBRANCH   1  18
TORSDOF 9
ENDMDL
MODEL 7
REMARK VINA RESULT:      -7.3      1.321      3.007
REMARK  Name = 
REMARK  9 active torsions:
REMARK  status: ('A' for Active; 'I' for Inactive)
REMARK    1  A    between atoms: C_5  and  C_6
REMARK    2  A    between atoms: C_6  and  N_7
REMARK    3  A    between atoms: N_7  and  C_8
REMARK    4  A    between atoms: N_7  and  C_15
REMARK    5  A    between atoms: C_8  and  C_9
REMARK    6  A    between atoms: C_9  and  N_10
REMARK    7  A    between atoms: C_15  and  C_16
REMARK    8  A    between atoms: C_16  and  N_17
REMARK    9  A    between atoms: C_21  and  C_22
REMARK                            x       y       z     vdW  Elec       q    Type
REMARK                         _______ _______ _______ _____ _____    ______ ____
ROOT
ATOM      1  N   UNL     1       3.003   6.123  18.192  0.00  0.00    +0.000 NA
ENDROOT
BRANCH   1   2
ATOM      2  C   UNL     1       2.528   7.519  17.994  0.00  0.00    +0.000 C 
BRANCH   2   7
ATOM      3 CL   UNL     1      -0.460   9.609  22.797  0.00  0.00    +0.000 Cl
ATOM      4  C   UNL     1       0.485   9.072  21.463  0.00  0.00    +0.000 A 
ATOM      5  C   UNL     1       1.101   7.825  21.510  0.00  0.00    +0.000 A 
ATOM      6  C   UNL     1       1.803   7.360  20.397  0.00  0.00    +0.000 A 
ATOM      7  C   UNL     1       1.882   8.132  19.222  0.00  0.00    +0.000 A 
ATOM      8  C   UNL     1       1.317   9.418  19.226  0.00  0.00    +0.000 A 
ATOM      9 CL   UNL     1       1.441  10.483  17.871  0.00  0.00    +0.000 Cl
ATOM     10  C   UNL     1       0.611   9.882  20.338  0.00  0.00    +0.000 A 
ENDBRANCH   2   7
ENDBRANCH   1   2
BRANCH   1  11
ATOM     11  C   UNL     1       2.003   5.133  17.719  0.00  0.00    +0.000 C 
BRANCH  11  12
ATOM     12  C   UNL     1       1.568   4.114  18.788  0.00  0.00    +0.000 C 
BRANCH  12  13
ATOM     13  N   UNL     1       2.582   3.105  19.023  0.00  0.00    +0.000 N 
ATOM     14  C   UNL     1       3.535   3.117  19.994  0.00  0.00    +0.000 A 
ATOM     15  C   UNL     1       4.266   1.972  19.780  0.00  0.00    +0.000 A 
ATOM     16  N   UNL     1       3.782   1.277  18.701  0.00  0.00    +0.000 NA
ATOM     17  C   UNL     1       2.771   1.988  18.258  0.00  0.00    +0.000 A 
ENDBRANCH  12  13
ENDBRANCH  11  12
ENDBRANCH   1  11
BRANCH   1  18
ATOM     18  C   UNL     1       4.313   5.907  17.528  0.00  0.00    +0.000 C 
BRANCH  18  19
ATOM     19  C   UNL     1       4.450   4.637  16.671  0.00  0.00    +0.000 C 
BRANCH  19  20
ATOM     20  N   UNL     1       5.493   4.611  15.665  0.00  0.00    +0.000 N 
ATOM     21  C   UNL     1       5.376   4.117  14.389  0.00  0.00    +0.000 A 
ATOM     22  C   UNL     1       6.556   4.420  13.764  0.00  0.00    +0.000 A 
ATOM     23  N   UNL     1       7.382   5.094  14.611  0.00  0.00    +0.000 NA
ATOM     24  C   UNL     1       6.750   5.189  15.773  0.00  0.00    +0.000 A 
BRANCH  24  25
ATOM     25  C   UNL     1       7.317   5.874  16.945  0.00  0.00    +0.000 A 
ATOM     26  C   UNL     1       7.631   5.119  18.085  0.00  0.00    +0.000 A 
ATOM     27  C   UNL     1       8.156   5.726  19.230  0.00  0.00    +0.000 A 
ATOM     28  C   UNL     1       8.388   7.099  19.247  0.00  0.00    +0.000 A 
ATOM     29  C   UNL     1       8.066   7.866  18.134  0.00  0.00    +0.000 A 
ATOM     30  C   UNL     1       7.507   7.261  17.006  0.00  0.00    +0.000 A 
ENDBRANCH  24  25
ENDBRANCH  19  20
ENDBRANCH  18  19
ENDBRANCH   1  18
TORSDOF 9
ENDMDL
MODEL 8
REMARK VINA RESULT:      -7.2      2.008      3.932
REMARK  Name = 
REMARK  9 active torsions:
REMARK  status: ('A' for Active; 'I' for Inactive)
REMARK    1  A    between atoms: C_5  and  C_6
REMARK    2  A    between atoms: C_6  and  N_7
REMARK    3  A    between atoms: N_7  and  C_8
REMARK    4  A    between atoms: N_7  and  C_15
REMARK    5  A    between atoms: C_8  and  C_9
REMARK    6  A    between atoms: C_9  and  N_10
REMARK    7  A    between atoms: C_15  and  C_16
REMARK    8  A    between atoms: C_16  and  N_17
REMARK    9  A    between atoms: C_21  and  C_22
REMARK                            x       y       z     vdW  Elec       q    Type
REMARK                         _______ _______ _______ _____ _____    ______ ____
ROOT
ATOM      1  N   UNL     1       3.783   4.142  18.288  0.00  0.00    +0.000 NA
ENDROOT
BRANCH   1   2
ATOM      2  C   UNL     1       4.337   5.451  18.726  0.00  0.00    +0.000 C 
BRANCH   2   7
ATOM      3 CL   UNL     1       0.804  10.335  18.563  0.00  0.00    +0.000 Cl
ATOM      4  C   UNL     1       1.721   8.879  18.574  0.00  0.00    +0.000 A 
ATOM      5  C   UNL     1       2.531   8.564  17.488  0.00  0.00    +0.000 A 
ATOM      6  C   UNL     1       3.332   7.422  17.531  0.00  0.00    +0.000 A 
ATOM      7  C   UNL     1       3.341   6.593  18.669  0.00  0.00    +0.000 A 
ATOM      8  C   UNL     1       2.459   6.890  19.722  0.00  0.00    +0.000 A 
ATOM      9 CL   UNL     1       2.322   5.885  21.121  0.00  0.00    +0.000 Cl
ATOM     10  C   UNL     1       1.661   8.035  19.679  0.00  0.00    +0.000 A 
ENDBRANCH   2   7
ENDBRANCH   1   2
BRANCH   1  11
ATOM     11  C   UNL     1       2.331   4.233  17.990  0.00  0.00    +0.000 C 
BRANCH  11  12
ATOM     12  C   UNL     1       1.504   3.043  18.509  0.00  0.00    +0.000 C 
BRANCH  12  13
ATOM     13  N   UNL     1       1.751   2.781  19.914  0.00  0.00    +0.000 N 
ATOM     14  C   UNL     1       0.850   2.869  20.930  0.00  0.00    +0.000 A 
ATOM     15  C   UNL     1       1.570   2.560  22.062  0.00  0.00    +0.000 A 
ATOM     16  N   UNL     1       2.880   2.299  21.752  0.00  0.00    +0.000 NA
ATOM     17  C   UNL     1       2.963   2.448  20.450  0.00  0.00    +0.000 A 
ENDBRANCH  12  13
ENDBRANCH  11  12
ENDBRANCH   1  11
BRANCH   1  18
ATOM     18  C   UNL     1       4.528   3.613  17.117  0.00  0.00    +0.000 C 
BRANCH  18  19
ATOM     19  C   UNL     1       4.459   4.444  15.824  0.00  0.00    +0.000 C 
BRANCH  19  20
ATOM     20  N   UNL     1       5.637   4.478  14.980  0.00  0.00    +0.000 N 
ATOM     21  C   UNL     1       5.698   4.109  13.659  0.00  0.00    +0.000 A 
ATOM     22  C   UNL     1       6.962   4.431  13.242  0.00  0.00    +0.000 A 
ATOM     23  N   UNL     1       7.668   4.995  14.260  0.00  0.00    +0.000 NA
ATOM     24  C   UNL     1       6.875   5.002  15.323  0.00  0.00    +0.000 A 
BRANCH  24  25
ATOM     25  C   UNL     1       7.279   5.556  16.625  0.00  0.00    +0.000 A 
ATOM     26  C   UNL     1       7.323   6.950  16.784  0.00  0.00    +0.000 A 
ATOM     27  C   UNL     1       7.717   7.525  17.995  0.00  0.00    +0.000 A 
ATOM     28  C   UNL     1       8.059   6.714  19.073  0.00  0.00    +0.000 A 
ATOM     29  C   UNL     1       8.040   5.331  18.930  0.00  0.00    +0.000 A 
ATOM     30  C   UNL     1       7.681   4.761  17.705  0.00  0.00    +0.000 A 
ENDBRANCH  24  25
ENDBRANCH  19  20
ENDBRANCH  18  19
ENDBRANCH   1  18
TORSDOF 9
ENDMDL
MODEL 9
REMARK VINA RESULT:      -7.2      1.507      1.896
REMARK  Name = 
REMARK  9 active torsions:
REMARK  status: ('A' for Active; 'I' for Inactive)
REMARK    1  A    between atoms: C_5  and  C_6
REMARK    2  A    between atoms: C_6  and  N_7
REMARK    3  A    between atoms: N_7  and  C_8
REMARK    4  A    between atoms: N_7  and  C_15
REMARK    5  A    between atoms: C_8  and  C_9
REMARK    6  A    between atoms: C_9  and  N_10
REMARK    7  A    between atoms: C_15  and  C_16
REMARK    8  A    between atoms: C_16  and  N_17
REMARK    9  A    between atoms: C_21  and  C_22
REMARK                            x       y       z     vdW  Elec       q    Type
REMARK                         _______ _______ _______ _____ _____    ______ ____
ROOT
ATOM      1  N   UNL     1       3.298   7.402  18.316  0.00  0.00    +0.000 NA
ENDROOT
BRANCH   1   2
ATOM      2  C   UNL     1       1.978   7.958  17.912  0.00  0.00    +0.000 C 
BRANCH   2   7
ATOM      3 CL   UNL     1       0.880  13.021  20.998  0.00  0.00    +0.000 Cl
ATOM      4  C   UNL     1       1.080  11.568  20.099  0.00  0.00    +0.000 A 
ATOM      5  C   UNL     1       1.428  11.629  18.754  0.00  0.00    +0.000 A 
ATOM      6  C   UNL     1       1.664  10.450  18.046  0.00  0.00    +0.000 A 
ATOM      7  C   UNL     1       1.568   9.198  18.683  0.00  0.00    +0.000 A 
ATOM      8  C   UNL     1       1.141   9.158  20.021  0.00  0.00    +0.000 A 
ATOM      9 CL   UNL     1       0.899   7.670  20.868  0.00  0.00    +0.000 Cl
ATOM     10  C   UNL     1       0.909  10.339  20.730  0.00  0.00    +0.000 A 
ENDBRANCH   2   7
ENDBRANCH   1   2
BRANCH   1  11
ATOM     11  C   UNL     1       3.160   6.064  18.945  0.00  0.00    +0.000 C 
BRANCH  11  12
ATOM     12  C   UNL     1       1.945   5.257  18.453  0.00  0.00    +0.000 C 
BRANCH  12  13
ATOM     13  N   UNL     1       1.689   4.099  19.286  0.00  0.00    +0.000 N 
ATOM     14  C   UNL     1       1.450   4.094  20.625  0.00  0.00    +0.000 A 
ATOM     15  C   UNL     1       1.304   2.765  20.950  0.00  0.00    +0.000 A 
ATOM     16  N   UNL     1       1.457   1.971  19.842  0.00  0.00    +0.000 NA
ATOM     17  C   UNL     1       1.697   2.802  18.853  0.00  0.00    +0.000 A 
ENDBRANCH  12  13
ENDBRANCH  11  12
ENDBRANCH   1  11
BRANCH   1  18
ATOM     18  C   UNL     1       4.228   7.347  17.160  0.00  0.00    +0.000 C 
BRANCH  18  19
ATOM     19  C   UNL     1       4.685   5.948  16.709  0.00  0.00    +0.000 C 
BRANCH  19  20
ATOM     20  N   UNL     1       6.002   5.504  17.120  0.00  0.00    +0.000 N 
ATOM     21  C   UNL     1       6.499   5.521  18.400  0.00  0.00    +0.000 A 
ATOM     22  C   UNL     1       7.714   4.892  18.335  0.00  0.00    +0.000 A 
ATOM     23  N   UNL     1       7.967   4.481  17.062  0.00  0.00    +0.000 NA
ATOM     24  C   UNL     1       6.941   4.873  16.318  0.00  0.00    +0.000 A 
BRANCH  24  25
ATOM     25  C   UNL     1       6.838   4.594  14.877  0.00  0.00    +0.000 A 
ATOM     26  C   UNL     1       7.695   5.268  13.993  0.00  0.00    +0.000 A 
ATOM     27  C   UNL     1       7.624   5.051  12.614  0.00  0.00    +0.000 A 
ATOM     28  C   UNL     1       6.703   4.143  12.098  0.00  0.00    +0.000 A 
ATOM     29  C   UNL     1       5.834   3.479  12.956  0.00  0.00    +0.000 A 
ATOM     30  C   UNL     1       5.883   3.728  14.330  0.00  0.00    +0.000 A 
ENDBRANCH  24  25
ENDBRANCH  19  20
ENDBRANCH  18  19
ENDBRANCH   1  18
TORSDOF 9
ENDMDL
