MODEL 1
REMARK VINA RESULT:      -7.4      0.000      0.000
REMARK  Name = 
REMARK  10 active torsions:
REMARK  status: ('A' for Active; 'I' for Inactive)
REMARK    1  A    between atoms: C_1  and  C_2
REMARK    2  A    between atoms: C_5  and  C_6
REMARK    3  A    between atoms: C_10  and  C_11
REMARK    4  A    between atoms: N_14  and  C_15
REMARK    5  A    between atoms: C_15  and  C_16
REMARK    6  A    between atoms: C_16  and  C_17
REMARK    7  A    between atoms: C_17  and  O_18
REMARK    8  A    between atoms: C_22  and  N_23
REMARK    9  A    between atoms: N_23  and  C_24
REMARK   10  A    between atoms: N_23  and  C_25
REMARK                            x       y       z     vdW  Elec       q    Type
REMARK                         _______ _______ _______ _____ _____    ______ ____
ROOT
ATOM      1  C   UNL     1       2.304   7.437  19.110  0.00  0.00    +0.000 A 
ATOM      2  C   UNL     1       2.459   8.220  17.956  0.00  0.00    +0.000 A 
ATOM      3  C   UNL     1       1.912   9.502  17.864  0.00  0.00    +0.000 A 
ATOM      4  C   UNL     1       1.196  10.041  18.938  0.00  0.00    +0.000 A 
ATOM      5  C   UNL     1       1.017   9.301  20.107  0.00  0.00    +0.000 A 
ATOM      6  C   UNL     1       1.560   8.007  20.172  0.00  0.00    +0.000 A 
ENDROOT
BRANCH   1  11
ATOM      7  C   UNL     1       4.683   2.317  19.725  0.00  0.00    +0.000 C 
ATOM      8  C   UNL     1       3.958   3.609  19.512  0.00  0.00    +0.000 A 
ATOM      9  C   UNL     1       4.715   4.746  19.289  0.00  0.00    +0.000 A 
ATOM     10  N   UNL     1       4.213   5.978  19.148  0.00  0.00    +0.000 NA
ATOM     11  C   UNL     1       2.878   6.080  19.233  0.00  0.00    +0.000 A 
ATOM     12  N   UNL     1       2.050   5.033  19.438  0.00  0.00    +0.000 NA
ATOM     13  C   UNL     1       2.576   3.792  19.582  0.00  0.00    +0.000 A 
BRANCH  13  14
ATOM     14  N   UNL     1       1.710   2.751  19.940  0.00  0.00    +0.000 N 
ATOM     15  C   UNL     1       1.293   2.721  21.344  0.00  0.00    +0.000 C 
ATOM     16  C   UNL     1       0.661   2.329  19.017  0.00  0.00    +0.000 C 
ENDBRANCH  13  14
ENDBRANCH   1  11
BRANCH   5  17
ATOM     17  C   UNL     1       0.293   9.858  21.251  0.00  0.00    +0.000 A 
ATOM     18  C   UNL     1      -0.147   9.169  22.415  0.00  0.00    +0.000 A 
ATOM     19  C   UNL     1      -0.776  10.110  23.193  0.00  0.00    +0.000 A 
ATOM     20  N   UNL     1      -0.696  11.274  22.492  0.00  0.00    +0.000 N 
ATOM     21  N   UNL     1      -0.039  11.159  21.325  0.00  0.00    +0.000 NA
BRANCH  20  22
ATOM     22  C   UNL     1      -1.257  12.553  22.877  0.00  0.00    +0.000 C 
BRANCH  22  23
ATOM     23  C   UNL     1      -2.705  12.468  23.344  0.00  0.00    +0.000 C 
BRANCH  23  24
ATOM     24  C   UNL     1      -3.685  13.147  22.395  0.00  0.00    +0.000 C 
BRANCH  24  25
ATOM     25  O   UNL     1      -4.824  12.309  22.224  0.00  0.00    +0.000 OA
ATOM     26  H   UNL     1      -4.797  11.625  22.914  0.00  0.00    +0.000 HD
ENDBRANCH  24  25
ENDBRANCH  23  24
ENDBRANCH  22  23
ENDBRANCH  20  22
ENDBRANCH   5  17
TORSDOF 7
ENDMDL
MODEL 2
REMARK VINA RESULT:      -7.3      1.237      2.375
REMARK  Name = 
REMARK  10 active torsions:
REMARK  status: ('A' for Active; 'I' for Inactive)
REMARK    1  A    between atoms: C_1  and  C_2
REMARK    2  A    between atoms: C_5  and  C_6
REMARK    3  A    between atoms: C_10  and  C_11
REMARK    4  A    between atoms: N_14  and  C_15
REMARK    5  A    between atoms: C_15  and  C_16
REMARK    6  A    between atoms: C_16  and  C_17
REMARK    7  A    between atoms: C_17  and  O_18
REMARK    8  A    between atoms: C_22  and  N_23
REMARK    9  A    between atoms: N_23  and  C_24
REMARK   10  A    between atoms: N_23  and  C_25
REMARK                            x       y       z     vdW  Elec       q    Type
REMARK                         _______ _______ _______ _____ _____    ______ ____
ROOT
ATOM      1  C   UNL     1       2.266   7.502  19.202  0.00  0.00    +0.000 A 
ATOM      2  C   UNL     1       2.407   8.270  18.036  0.00  0.00    +0.000 A 
ATOM      3  C   UNL     1       1.834   9.539  17.924  0.00  0.00    +0.000 A 
ATOM      4  C   UNL     1       1.106  10.080  18.989  0.00  0.00    +0.000 A 
ATOM      5  C   UNL     1       0.940   9.355  20.169  0.00  0.00    +0.000 A 
ATOM      6  C   UNL     1       1.509   8.074  20.254  0.00  0.00    +0.000 A 
ENDROOT
BRANCH   1  11
ATOM      7  C   UNL     1       4.352   2.249  19.761  0.00  0.00    +0.000 C 
ATOM      8  C   UNL     1       3.918   3.671  19.589  0.00  0.00    +0.000 A 
ATOM      9  C   UNL     1       2.826   4.107  20.320  0.00  0.00    +0.000 A 
ATOM     10  N   UNL     1       2.284   5.326  20.223  0.00  0.00    +0.000 NA
ATOM     11  C   UNL     1       2.867   6.159  19.347  0.00  0.00    +0.000 A 
ATOM     12  N   UNL     1       3.941   5.836  18.595  0.00  0.00    +0.000 NA
ATOM     13  C   UNL     1       4.476   4.595  18.703  0.00  0.00    +0.000 A 
BRANCH  13  14
ATOM     14  N   UNL     1       5.492   4.239  17.808  0.00  0.00    +0.000 N 
ATOM     15  C   UNL     1       5.071   4.007  16.424  0.00  0.00    +0.000 C 
ATOM     16  C   UNL     1       6.806   4.865  17.914  0.00  0.00    +0.000 C 
ENDBRANCH  13  14
ENDBRANCH   1  11
BRANCH   5  17
ATOM     17  C   UNL     1       0.203   9.914  21.303  0.00  0.00    +0.000 A 
ATOM     18  C   UNL     1      -0.136   9.262  22.521  0.00  0.00    +0.000 A 
ATOM     19  C   UNL     1      -0.826  10.190  23.264  0.00  0.00    +0.000 A 
ATOM     20  N   UNL     1      -0.874  11.310  22.493  0.00  0.00    +0.000 N 
ATOM     21  N   UNL     1      -0.245  11.183  21.312  0.00  0.00    +0.000 NA
BRANCH  20  22
ATOM     22  C   UNL     1      -1.538  12.555  22.821  0.00  0.00    +0.000 C 
BRANCH  22  23
ATOM     23  C   UNL     1      -2.940  12.368  23.388  0.00  0.00    +0.000 C 
BRANCH  23  24
ATOM     24  C   UNL     1      -3.651  13.682  23.686  0.00  0.00    +0.000 C 
BRANCH  24  25
ATOM     25  O   UNL     1      -3.789  13.828  25.096  0.00  0.00    +0.000 OA
ATOM     26  H   UNL     1      -4.264  13.049  25.430  0.00  0.00    +0.000 HD
ENDBRANCH  24  25
ENDBRANCH  23  24
ENDBRANCH  22  23
ENDBRANCH  20  22
ENDBRANCH   5  17
TORSDOF 7
ENDMDL
MODEL 3
REMARK VINA RESULT:      -7.3      1.744      2.768
REMARK  Name = 
REMARK  10 active torsions:
REMARK  status: ('A' for Active; 'I' for Inactive)
REMARK    1  A    between atoms: C_1  and  C_2
REMARK    2  A    between atoms: C_5  and  C_6
REMARK    3  A    between atoms: C_10  and  C_11
REMARK    4  A    between atoms: N_14  and  C_15
REMARK    5  A    between atoms: C_15  and  C_16
REMARK    6  A    between atoms: C_16  and  C_17
REMARK    7  A    between atoms: C_17  and  O_18
REMARK    8  A    between atoms: C_22  and  N_23
REMARK    9  A    between atoms: N_23  and  C_24
REMARK   10  A    between atoms: N_23  and  C_25
REMARK                            x       y       z     vdW  Elec       q    Type
REMARK                         _______ _______ _______ _____ _____    ______ ____
ROOT
ATOM      1  C   UNL     1       2.244   7.545  19.207  0.00  0.00    +0.000 A 
ATOM      2  C   UNL     1       2.373   8.302  18.033  0.00  0.00    +0.000 A 
ATOM      3  C   UNL     1       1.804   9.572  17.917  0.00  0.00    +0.000 A 
ATOM      4  C   UNL     1       1.091  10.125  18.986  0.00  0.00    +0.000 A 
ATOM      5  C   UNL     1       0.938   9.411  20.175  0.00  0.00    +0.000 A 
ATOM      6  C   UNL     1       1.503   8.129  20.264  0.00  0.00    +0.000 A 
ENDROOT
BRANCH   1  11
ATOM      7  C   UNL     1       4.317   2.290  19.792  0.00  0.00    +0.000 C 
ATOM      8  C   UNL     1       3.885   3.711  19.608  0.00  0.00    +0.000 A 
ATOM      9  C   UNL     1       2.826   4.170  20.372  0.00  0.00    +0.000 A 
ATOM     10  N   UNL     1       2.288   5.390  20.271  0.00  0.00    +0.000 NA
ATOM     11  C   UNL     1       2.841   6.201  19.356  0.00  0.00    +0.000 A 
ATOM     12  N   UNL     1       3.883   5.855  18.569  0.00  0.00    +0.000 NA
ATOM     13  C   UNL     1       4.414   4.613  18.682  0.00  0.00    +0.000 A 
BRANCH  13  14
ATOM     14  N   UNL     1       5.392   4.231  17.755  0.00  0.00    +0.000 N 
ATOM     15  C   UNL     1       4.963   4.187  16.355  0.00  0.00    +0.000 C 
ATOM     16  C   UNL     1       6.768   4.687  17.923  0.00  0.00    +0.000 C 
ENDBRANCH  13  14
ENDBRANCH   1  11
BRANCH   5  17
ATOM     17  C   UNL     1       0.218   9.984  21.313  0.00  0.00    +0.000 A 
ATOM     18  C   UNL     1      -0.239   9.306  22.477  0.00  0.00    +0.000 A 
ATOM     19  C   UNL     1      -0.856  10.261  23.250  0.00  0.00    +0.000 A 
ATOM     20  N   UNL     1      -0.753  11.420  22.545  0.00  0.00    +0.000 N 
ATOM     21  N   UNL     1      -0.092  11.291  21.382  0.00  0.00    +0.000 NA
BRANCH  20  22
ATOM     22  C   UNL     1      -1.294  12.710  22.923  0.00  0.00    +0.000 C 
BRANCH  22  23
ATOM     23  C   UNL     1      -0.987  13.817  21.922  0.00  0.00    +0.000 C 
BRANCH  23  24
ATOM     24  C   UNL     1       0.192  14.691  22.331  0.00  0.00    +0.000 C 
BRANCH  24  25
ATOM     25  O   UNL     1       1.405  14.020  22.005  0.00  0.00    +0.000 OA
ATOM     26  H   UNL     1       2.131  14.661  22.093  0.00  0.00    +0.000 HD
ENDBRANCH  24  25
ENDBRANCH  23  24
ENDBRANCH  22  23
ENDBRANCH  20  22
ENDBRANCH   5  17
TORSDOF 7
ENDMDL
MODEL 4
REMARK VINA RESULT:      -7.2      1.253      2.390
REMARK  Name = 
REMARK  10 active torsions:
REMARK  status: ('A' for Active; 'I' for Inactive)
REMARK    1  A    between atoms: C_1  and  C_2
REMARK    2  A    between atoms: C_5  and  C_6
REMARK    3  A    between atoms: C_10  and  C_11
REMARK    4  A    between atoms: N_14  and  C_15
REMARK    5  A    between atoms: C_15  and  C_16
REMARK    6  A    between atoms: C_16  and  C_17
REMARK    7  A    between atoms: C_17  and  O_18
REMARK    8  A    between atoms: C_22  and  N_23
REMARK    9  A    between atoms: N_23  and  C_24
REMARK   10  A    between atoms: N_23  and  C_25
REMARK                            x       y       z     vdW  Elec       q    Type
REMARK                         _______ _______ _______ _____ _____    ______ ____
ROOT
ATOM      1  C   UNL     1       2.252   7.490  19.205  0.00  0.00    +0.000 A 
ATOM      2  C   UNL     1       2.376   8.234  18.022  0.00  0.00    +0.000 A 
ATOM      3  C   UNL     1       1.805   9.502  17.895  0.00  0.00    +0.000 A 
ATOM      4  C   UNL     1       1.097  10.067  18.961  0.00  0.00    +0.000 A 
ATOM      5  C   UNL     1       0.949   9.366  20.158  0.00  0.00    +0.000 A 
ATOM      6  C   UNL     1       1.515   8.085  20.259  0.00  0.00    +0.000 A 
ENDROOT
BRANCH   1  11
ATOM      7  C   UNL     1       4.330   2.241  19.830  0.00  0.00    +0.000 C 
ATOM      8  C   UNL     1       3.898   3.661  19.639  0.00  0.00    +0.000 A 
ATOM      9  C   UNL     1       2.811   4.110  20.369  0.00  0.00    +0.000 A 
ATOM     10  N   UNL     1       2.271   5.329  20.257  0.00  0.00    +0.000 NA
ATOM     11  C   UNL     1       2.851   6.148  19.367  0.00  0.00    +0.000 A 
ATOM     12  N   UNL     1       3.921   5.811  18.614  0.00  0.00    +0.000 NA
ATOM     13  C   UNL     1       4.453   4.571  18.737  0.00  0.00    +0.000 A 
BRANCH  13  14
ATOM     14  N   UNL     1       5.465   4.200  17.842  0.00  0.00    +0.000 N 
ATOM     15  C   UNL     1       5.043   3.983  16.457  0.00  0.00    +0.000 C 
ATOM     16  C   UNL     1       6.791   4.800  17.955  0.00  0.00    +0.000 C 
ENDBRANCH  13  14
ENDBRANCH   1  11
BRANCH   5  17
ATOM     17  C   UNL     1       0.234   9.951  21.293  0.00  0.00    +0.000 A 
ATOM     18  C   UNL     1      -0.237   9.282  22.456  0.00  0.00    +0.000 A 
ATOM     19  C   UNL     1      -0.843  10.246  23.225  0.00  0.00    +0.000 A 
ATOM     20  N   UNL     1      -0.721  11.403  22.519  0.00  0.00    +0.000 N 
ATOM     21  N   UNL     1      -0.058  11.263  21.358  0.00  0.00    +0.000 NA
BRANCH  20  22
ATOM     22  C   UNL     1      -1.244  12.701  22.893  0.00  0.00    +0.000 C 
BRANCH  22  23
ATOM     23  C   UNL     1      -1.635  13.568  21.702  0.00  0.00    +0.000 C 
BRANCH  23  24
ATOM     24  C   UNL     1      -2.954  13.153  21.063  0.00  0.00    +0.000 C 
BRANCH  24  25
ATOM     25  O   UNL     1      -2.685  12.353  19.915  0.00  0.00    +0.000 OA
ATOM     26  H   UNL     1      -3.522  11.944  19.636  0.00  0.00    +0.000 HD
ENDBRANCH  24  25
ENDBRANCH  23  24
ENDBRANCH  22  23
ENDBRANCH  20  22
ENDBRANCH   5  17
TORSDOF 7
ENDMDL
MODEL 5
REMARK VINA RESULT:      -7.1      0.964      1.029
REMARK  Name = 
REMARK  10 active torsions:
REMARK  status: ('A' for Active; 'I' for Inactive)
REMARK    1  A    between atoms: C_1  and  C_2
REMARK    2  A    between atoms: C_5  and  C_6
REMARK    3  A    between atoms: C_10  and  C_11
REMARK    4  A    between atoms: N_14  and  C_15
REMARK    5  A    between atoms: C_15  and  C_16
REMARK    6  A    between atoms: C_16  and  C_17
REMARK    7  A    between atoms: C_17  and  O_18
REMARK    8  A    between atoms: C_22  and  N_23
REMARK    9  A    between atoms: N_23  and  C_24
REMARK   10  A    between atoms: N_23  and  C_25
REMARK                            x       y       z     vdW  Elec       q    Type
REMARK                         _______ _______ _______ _____ _____    ______ ____
ROOT
ATOM      1  C   UNL     1       2.305   7.434  19.095  0.00  0.00    +0.000 A 
ATOM      2  C   UNL     1       2.484   8.217  17.945  0.00  0.00    +0.000 A 
ATOM      3  C   UNL     1       1.937   9.498  17.842  0.00  0.00    +0.000 A 
ATOM      4  C   UNL     1       1.197  10.036  18.900  0.00  0.00    +0.000 A 
ATOM      5  C   UNL     1       0.994   9.295  20.065  0.00  0.00    +0.000 A 
ATOM      6  C   UNL     1       1.538   8.003  20.141  0.00  0.00    +0.000 A 
ENDROOT
BRANCH   1  11
ATOM      7  C   UNL     1       4.684   2.319  19.752  0.00  0.00    +0.000 C 
ATOM      8  C   UNL     1       3.959   3.609  19.530  0.00  0.00    +0.000 A 
ATOM      9  C   UNL     1       4.715   4.743  19.288  0.00  0.00    +0.000 A 
ATOM     10  N   UNL     1       4.213   5.974  19.136  0.00  0.00    +0.000 NA
ATOM     11  C   UNL     1       2.879   6.078  19.230  0.00  0.00    +0.000 A 
ATOM     12  N   UNL     1       2.051   5.034  19.452  0.00  0.00    +0.000 NA
ATOM     13  C   UNL     1       2.577   3.794  19.607  0.00  0.00    +0.000 A 
BRANCH  13  14
ATOM     14  N   UNL     1       1.713   2.758  19.983  0.00  0.00    +0.000 N 
ATOM     15  C   UNL     1       1.304   2.747  21.389  0.00  0.00    +0.000 C 
ATOM     16  C   UNL     1       0.658   2.325  19.071  0.00  0.00    +0.000 C 
ENDBRANCH  13  14
ENDBRANCH   1  11
BRANCH   5  17
ATOM     17  C   UNL     1       0.245   9.851  21.193  0.00  0.00    +0.000 A 
ATOM     18  C   UNL     1       0.086   9.285  22.488  0.00  0.00    +0.000 A 
ATOM     19  C   UNL     1      -0.698  10.168  23.191  0.00  0.00    +0.000 A 
ATOM     20  N   UNL     1      -0.970  11.180  22.324  0.00  0.00    +0.000 N 
ATOM     21  N   UNL     1      -0.400  11.029  21.116  0.00  0.00    +0.000 NA
BRANCH  20  22
ATOM     22  C   UNL     1      -1.805  12.337  22.582  0.00  0.00    +0.000 C 
BRANCH  22  23
ATOM     23  C   UNL     1      -1.324  13.604  21.885  0.00  0.00    +0.000 C 
BRANCH  23  24
ATOM     24  C   UNL     1      -2.269  14.085  20.792  0.00  0.00    +0.000 C 
BRANCH  24  25
ATOM     25  O   UNL     1      -2.120  13.253  19.646  0.00  0.00    +0.000 OA
ATOM     26  H   UNL     1      -2.931  13.331  19.115  0.00  0.00    +0.000 HD
ENDBRANCH  24  25
ENDBRANCH  23  24
ENDBRANCH  22  23
ENDBRANCH  20  22
ENDBRANCH   5  17
TORSDOF 7
ENDMDL
MODEL 6
REMARK VINA RESULT:      -7.0      3.516      4.470
REMARK  Name = 
REMARK  10 active torsions:
REMARK  status: ('A' for Active; 'I' for Inactive)
REMARK    1  A    between atoms: C_1  and  C_2
REMARK    2  A    between atoms: C_5  and  C_6
REMARK    3  A    between atoms: C_10  and  C_11
REMARK    4  A    between atoms: N_14  and  C_15
REMARK    5  A    between atoms: C_15  and  C_16
REMARK    6  A    between atoms: C_16  and  C_17
REMARK    7  A    between atoms: C_17  and  O_18
REMARK    8  A    between atoms: C_22  and  N_23
REMARK    9  A    between atoms: N_23  and  C_24
REMARK   10  A    between atoms: N_23  and  C_25
REMARK                            x       y       z     vdW  Elec       q    Type
REMARK                         _______ _______ _______ _____ _____    ______ ____
ROOT
ATOM      1  C   UNL     1       2.121   7.690  19.240  0.00  0.00    +0.000 A 
ATOM      2  C   UNL     1       2.077   7.615  20.640  0.00  0.00    +0.000 A 
ATOM      3  C   UNL     1       1.243   8.449  21.390  0.00  0.00    +0.000 A 
ATOM      4  C   UNL     1       0.420   9.381  20.750  0.00  0.00    +0.000 A 
ATOM      5  C   UNL     1       0.428   9.491  19.359  0.00  0.00    +0.000 A 
ATOM      6  C   UNL     1       1.286   8.656  18.626  0.00  0.00    +0.000 A 
ENDROOT
BRANCH   1  11
ATOM      7  C   UNL     1       5.642   4.485  16.144  0.00  0.00    +0.000 C 
ATOM      8  C   UNL     1       4.635   5.235  16.958  0.00  0.00    +0.000 A 
ATOM      9  C   UNL     1       4.602   6.614  16.837  0.00  0.00    +0.000 A 
ATOM     10  N   UNL     1       3.805   7.420  17.546  0.00  0.00    +0.000 NA
ATOM     11  C   UNL     1       2.991   6.815  18.425  0.00  0.00    +0.000 A 
ATOM     12  N   UNL     1       2.937   5.479  18.611  0.00  0.00    +0.000 NA
ATOM     13  C   UNL     1       3.755   4.676  17.887  0.00  0.00    +0.000 A 
BRANCH  13  14
ATOM     14  N   UNL     1       3.784   3.313  18.204  0.00  0.00    +0.000 N 
ATOM     15  C   UNL     1       4.214   2.983  19.565  0.00  0.00    +0.000 C 
ATOM     16  C   UNL     1       2.741   2.426  17.698  0.00  0.00    +0.000 C 
ENDBRANCH  13  14
ENDBRANCH   1  11
BRANCH   5  17
ATOM     17  C   UNL     1      -0.446  10.443  18.671  0.00  0.00    +0.000 A 
ATOM     18  C   UNL     1      -0.499  11.853  18.849  0.00  0.00    +0.000 A 
ATOM     19  C   UNL     1      -1.471  12.304  17.989  0.00  0.00    +0.000 A 
ATOM     20  N   UNL     1      -1.944  11.193  17.361  0.00  0.00    +0.000 N 
ATOM     21  N   UNL     1      -1.333  10.056  17.736  0.00  0.00    +0.000 NA
BRANCH  20  22
ATOM     22  C   UNL     1      -3.018  11.142  16.389  0.00  0.00    +0.000 C 
BRANCH  22  23
ATOM     23  C   UNL     1      -2.704  10.272  15.179  0.00  0.00    +0.000 C 
BRANCH  23  24
ATOM     24  C   UNL     1      -3.848  10.199  14.176  0.00  0.00    +0.000 C 
BRANCH  24  25
ATOM     25  O   UNL     1      -3.327   9.851  12.897  0.00  0.00    +0.000 OA
ATOM     26  H   UNL     1      -4.053   9.912  12.254  0.00  0.00    +0.000 HD
ENDBRANCH  24  25
ENDBRANCH  23  24
ENDBRANCH  22  23
ENDBRANCH  20  22
ENDBRANCH   5  17
TORSDOF 7
ENDMDL
MODEL 7
REMARK VINA RESULT:      -7.0      1.153      1.291
REMARK  Name = 
REMARK  10 active torsions:
REMARK  status: ('A' for Active; 'I' for Inactive)
REMARK    1  A    between atoms: C_1  and  C_2
REMARK    2  A    between atoms: C_5  and  C_6
REMARK    3  A    between atoms: C_10  and  C_11
REMARK    4  A    between atoms: N_14  and  C_15
REMARK    5  A    between atoms: C_15  and  C_16
REMARK    6  A    between atoms: C_16  and  C_17
REMARK    7  A    between atoms: C_17  and  O_18
REMARK    8  A    between atoms: C_22  and  N_23
REMARK    9  A    between atoms: N_23  and  C_24
REMARK   10  A    between atoms: N_23  and  C_25
REMARK                            x       y       z     vdW  Elec       q    Type
REMARK                         _______ _______ _______ _____ _____    ______ ____
ROOT
ATOM      1  C   UNL     1       2.300   7.436  19.091  0.00  0.00    +0.000 A 
ATOM      2  C   UNL     1       2.473   8.223  17.943  0.00  0.00    +0.000 A 
ATOM      3  C   UNL     1       1.926   9.505  17.847  0.00  0.00    +0.000 A 
ATOM      4  C   UNL     1       1.192  10.040  18.911  0.00  0.00    +0.000 A 
ATOM      5  C   UNL     1       0.996   9.295  20.075  0.00  0.00    +0.000 A 
ATOM      6  C   UNL     1       1.539   8.002  20.144  0.00  0.00    +0.000 A 
ENDROOT
BRANCH   1  11
ATOM      7  C   UNL     1       4.678   2.317  19.721  0.00  0.00    +0.000 C 
ATOM      8  C   UNL     1       3.953   3.609  19.506  0.00  0.00    +0.000 A 
ATOM      9  C   UNL     1       4.710   4.744  19.272  0.00  0.00    +0.000 A 
ATOM     10  N   UNL     1       4.208   5.976  19.127  0.00  0.00    +0.000 NA
ATOM     11  C   UNL     1       2.874   6.080  19.219  0.00  0.00    +0.000 A 
ATOM     12  N   UNL     1       2.046   5.034  19.434  0.00  0.00    +0.000 NA
ATOM     13  C   UNL     1       2.571   3.794  19.582  0.00  0.00    +0.000 A 
BRANCH  13  14
ATOM     14  N   UNL     1       1.707   2.755  19.950  0.00  0.00    +0.000 N 
ATOM     15  C   UNL     1       1.298   2.733  21.356  0.00  0.00    +0.000 C 
ATOM     16  C   UNL     1       0.651   2.330  19.035  0.00  0.00    +0.000 C 
ENDBRANCH  13  14
ENDBRANCH   1  11
BRANCH   5  17
ATOM     17  C   UNL     1       0.253   9.848  21.209  0.00  0.00    +0.000 A 
ATOM     18  C   UNL     1       0.064   9.257  22.489  0.00  0.00    +0.000 A 
ATOM     19  C   UNL     1      -0.699  10.148  23.205  0.00  0.00    +0.000 A 
ATOM     20  N   UNL     1      -0.932  11.188  22.359  0.00  0.00    +0.000 N 
ATOM     21  N   UNL     1      -0.354  11.047  21.153  0.00  0.00    +0.000 NA
BRANCH  20  22
ATOM     22  C   UNL     1      -1.733  12.363  22.636  0.00  0.00    +0.000 C 
BRANCH  22  23
ATOM     23  C   UNL     1      -0.911  13.635  22.809  0.00  0.00    +0.000 C 
BRANCH  23  24
ATOM     24  C   UNL     1      -1.348  14.477  24.000  0.00  0.00    +0.000 C 
BRANCH  24  25
ATOM     25  O   UNL     1      -1.376  15.849  23.617  0.00  0.00    +0.000 OA
ATOM     26  H   UNL     1      -0.457  16.148  23.515  0.00  0.00    +0.000 HD
ENDBRANCH  24  25
ENDBRANCH  23  24
ENDBRANCH  22  23
ENDBRANCH  20  22
ENDBRANCH   5  17
TORSDOF 7
ENDMDL
MODEL 8
REMARK VINA RESULT:      -6.9      2.981      8.508
REMARK  Name = 
REMARK  10 active torsions:
REMARK  status: ('A' for Active; 'I' for Inactive)
REMARK    1  A    between atoms: C_1  and  C_2
REMARK    2  A    between atoms: C_5  and  C_6
REMARK    3  A    between atoms: C_10  and  C_11
REMARK    4  A    between atoms: N_14  and  C_15
REMARK    5  A    between atoms: C_15  and  C_16
REMARK    6  A    between atoms: C_16  and  C_17
REMARK    7  A    between atoms: C_17  and  O_18
REMARK    8  A    between atoms: C_22  and  N_23
REMARK    9  A    between atoms: N_23  and  C_24
REMARK   10  A    between atoms: N_23  and  C_25
REMARK                            x       y       z     vdW  Elec       q    Type
REMARK                         _______ _______ _______ _____ _____    ______ ____
ROOT
ATOM      1  C   UNL     1       1.135   8.968  19.974  0.00  0.00    +0.000 A 
ATOM      2  C   UNL     1       1.658   9.414  18.751  0.00  0.00    +0.000 A 
ATOM      3  C   UNL     1       2.458   8.591  17.956  0.00  0.00    +0.000 A 
ATOM      4  C   UNL     1       2.752   7.286  18.364  0.00  0.00    +0.000 A 
ATOM      5  C   UNL     1       2.252   6.797  19.572  0.00  0.00    +0.000 A 
ATOM      6  C   UNL     1       1.464   7.646  20.365  0.00  0.00    +0.000 A 
ENDROOT
BRANCH   1  11
ATOM      7  C   UNL     1      -1.964  12.249  23.423  0.00  0.00    +0.000 C 
ATOM      8  C   UNL     1      -1.235  11.401  22.428  0.00  0.00    +0.000 A 
ATOM      9  C   UNL     1      -0.445  10.371  22.911  0.00  0.00    +0.000 A 
ATOM     10  N   UNL     1       0.314   9.574  22.150  0.00  0.00    +0.000 NA
ATOM     11  C   UNL     1       0.281   9.818  20.831  0.00  0.00    +0.000 A 
ATOM     12  N   UNL     1      -0.464  10.789  20.259  0.00  0.00    +0.000 NA
ATOM     13  C   UNL     1      -1.224  11.590  21.044  0.00  0.00    +0.000 A 
BRANCH  13  14
ATOM     14  N   UNL     1      -1.867  12.678  20.443  0.00  0.00    +0.000 N 
ATOM     15  C   UNL     1      -0.991  13.736  19.935  0.00  0.00    +0.000 C 
ATOM     16  C   UNL     1      -3.047  12.457  19.612  0.00  0.00    +0.000 C 
ENDBRANCH  13  14
ENDBRANCH   1  11
BRANCH   5  17
ATOM     17  C   UNL     1       2.527   5.425  20.003  0.00  0.00    +0.000 A 
ATOM     18  C   UNL     1       2.002   4.756  21.143  0.00  0.00    +0.000 A 
ATOM     19  C   UNL     1       2.552   3.497  21.125  0.00  0.00    +0.000 A 
ATOM     20  N   UNL     1       3.354   3.466  20.027  0.00  0.00    +0.000 N 
ATOM     21  N   UNL     1       3.346   4.607  19.317  0.00  0.00    +0.000 NA
BRANCH  20  22
ATOM     22  C   UNL     1       4.191   2.363  19.600  0.00  0.00    +0.000 C 
BRANCH  22  23
ATOM     23  C   UNL     1       3.832   1.823  18.221  0.00  0.00    +0.000 C 
BRANCH  23  24
ATOM     24  C   UNL     1       2.355   1.972  17.881  0.00  0.00    +0.000 C 
BRANCH  24  25
ATOM     25  O   UNL     1       2.195   3.042  16.955  0.00  0.00    +0.000 OA
ATOM     26  H   UNL     1       2.861   3.718  17.165  0.00  0.00    +0.000 HD
ENDBRANCH  24  25
ENDBRANCH  23  24
ENDBRANCH  22  23
ENDBRANCH  20  22
ENDBRANCH   5  17
TORSDOF 7
ENDMDL
MODEL 9
REMARK VINA RESULT:      -6.9      5.401      9.919
REMARK  Name = 
REMARK  10 active torsions:
REMARK  status: ('A' for Active; 'I' for Inactive)
REMARK    1  A    between atoms: C_1  and  C_2
REMARK    2  A    between atoms: C_5  and  C_6
REMARK    3  A    between atoms: C_10  and  C_11
REMARK    4  A    between atoms: N_14  and  C_15
REMARK    5  A    between atoms: C_15  and  C_16
REMARK    6  A    between atoms: C_16  and  C_17
REMARK    7  A    between atoms: C_17  and  O_18
REMARK    8  A    between atoms: C_22  and  N_23
REMARK    9  A    between atoms: N_23  and  C_24
REMARK   10  A    between atoms: N_23  and  C_25
REMARK                            x       y       z     vdW  Elec       q    Type
REMARK                         _______ _______ _______ _____ _____    ______ ____
ROOT
ATOM      1  C   UNL     1       3.328   6.323  18.572  0.00  0.00    +0.000 A 
ATOM      2  C   UNL     1       3.418   5.360  19.587  0.00  0.00    +0.000 A 
ATOM      3  C   UNL     1       4.145   4.180  19.412  0.00  0.00    +0.000 A 
ATOM      4  C   UNL     1       4.813   3.936  18.208  0.00  0.00    +0.000 A 
ATOM      5  C   UNL     1       4.754   4.866  17.169  0.00  0.00    +0.000 A 
ATOM      6  C   UNL     1       4.004   6.037  17.360  0.00  0.00    +0.000 A 
ENDROOT
BRANCH   1  11
ATOM      7  C   UNL     1       0.318  11.122  18.981  0.00  0.00    +0.000 C 
ATOM      8  C   UNL     1       1.138   9.870  18.994  0.00  0.00    +0.000 A 
ATOM      9  C   UNL     1       1.791   9.512  17.826  0.00  0.00    +0.000 A 
ATOM     10  N   UNL     1       2.503   8.391  17.667  0.00  0.00    +0.000 NA
ATOM     11  C   UNL     1       2.570   7.582  18.735  0.00  0.00    +0.000 A 
ATOM     12  N   UNL     1       1.979   7.844  19.921  0.00  0.00    +0.000 NA
ATOM     13  C   UNL     1       1.258   8.982  20.064  0.00  0.00    +0.000 A 
BRANCH  13  14
ATOM     14  N   UNL     1       0.537   9.156  21.252  0.00  0.00    +0.000 N 
ATOM     15  C   UNL     1      -0.516   8.170  21.510  0.00  0.00    +0.000 C 
ATOM     16  C   UNL     1       1.224   9.595  22.462  0.00  0.00    +0.000 C 
ENDBRANCH  13  14
ENDBRANCH   1  11
BRANCH   5  17
ATOM     17  C   UNL     1       5.468   4.640  15.911  0.00  0.00    +0.000 A 
ATOM     18  C   UNL     1       6.848   4.861  15.649  0.00  0.00    +0.000 A 
ATOM     19  C   UNL     1       7.042   4.508  14.335  0.00  0.00    +0.000 A 
ATOM     20  N   UNL     1       5.821   4.112  13.882  0.00  0.00    +0.000 N 
ATOM     21  N   UNL     1       4.855   4.161  14.814  0.00  0.00    +0.000 NA
BRANCH  20  22
ATOM     22  C   UNL     1       5.497   3.688  12.535  0.00  0.00    +0.000 C 
BRANCH  22  23
ATOM     23  C   UNL     1       6.475   2.667  11.965  0.00  0.00    +0.000 C 
BRANCH  23  24
ATOM     24  C   UNL     1       5.793   1.542  11.198  0.00  0.00    +0.000 C 
BRANCH  24  25
ATOM     25  O   UNL     1       6.471   0.318  11.462  0.00  0.00    +0.000 OA
ATOM     26  H   UNL     1       5.999  -0.391  10.993  0.00  0.00    +0.000 HD
ENDBRANCH  24  25
ENDBRANCH  23  24
ENDBRANCH  22  23
ENDBRANCH  20  22
ENDBRANCH   5  17
TORSDOF 7
ENDMDL
