MODEL 1
REMARK VINA RESULT:      -6.9      0.000      0.000
REMARK  Name = 
REMARK  4 active torsions:
REMARK  status: ('A' for Active; 'I' for Inactive)
REMARK    1  A    between atoms: C_2  and  C_3
REMARK    2  A    between atoms: C_3  and  C_4
REMARK    3  A    between atoms: C_4  and  N_5
REMARK    4  A    between atoms: N_12  and  C_13
REMARK                            x       y       z     vdW  Elec       q    Type
REMARK                         _______ _______ _______ _____ _____    ______ ____
ROOT
ATOM      1  O   UNL     1       5.474   3.487  16.116  0.00  0.00    +0.000 OA
ATOM      2  C   UNL     1       4.607   3.928  16.864  0.00  0.00    +0.000 C 
ATOM      3  N   UNL     1       4.769   4.954  17.785  0.00  0.00    +0.000 N 
ATOM      4  H   UNL     1       4.035   5.084  18.470  0.00  0.00    +0.000 HD
ENDROOT
BRANCH   3   5
ATOM      5  C   UNL     1       5.916   5.762  17.950  0.00  0.00    +0.000 A 
ATOM      6  C   UNL     1       6.165   6.906  17.187  0.00  0.00    +0.000 A 
ATOM      7  C   UNL     1       7.303   7.685  17.420  0.00  0.00    +0.000 A 
ATOM      8  C   UNL     1       8.210   7.324  18.412  0.00  0.00    +0.000 A 
ATOM      9  C   UNL     1       7.976   6.185  19.178  0.00  0.00    +0.000 A 
ATOM     10  C   UNL     1       6.830   5.413  18.955  0.00  0.00    +0.000 A 
ENDBRANCH   3   5
BRANCH   2  11
ATOM     11  C   UNL     1       3.190   3.386  16.827  0.00  0.00    +0.000 C 
BRANCH  11  12
ATOM     12  C   UNL     1       3.049   2.152  17.719  0.00  0.00    +0.000 C 
BRANCH  12  13
ATOM     13  N   UNL     1       2.553   2.494  19.047  0.00  0.00    +0.000 N 
ATOM     14  C   UNL     1       1.208   2.519  19.326  0.00  0.00    +0.000 C 
ATOM     15  O   UNL     1       0.321   2.262  18.519  0.00  0.00    +0.000 OA
ATOM     16  C   UNL     1       0.927   2.867  20.763  0.00  0.00    +0.000 C 
ATOM     17  S   UNL     1       2.534   3.046  21.559  0.00  0.00    +0.000 S 
ATOM     18  C   UNL     1       3.412   2.667  20.095  0.00  0.00    +0.000 C 
ATOM     19  O   UNL     1       4.624   2.551  20.076  0.00  0.00    +0.000 OA
ENDBRANCH  12  13
ENDBRANCH  11  12
ENDBRANCH   2  11
TORSDOF 4
ENDMDL
MODEL 2
REMARK VINA RESULT:      -6.7      0.545      2.159
REMARK  Name = 
REMARK  4 active torsions:
REMARK  status: ('A' for Active; 'I' for Inactive)
REMARK    1  A    between atoms: C_2  and  C_3
REMARK    2  A    between atoms: C_3  and  C_4
REMARK    3  A    between atoms: C_4  and  N_5
REMARK    4  A    between atoms: N_12  and  C_13
REMARK                            x       y       z     vdW  Elec       q    Type
REMARK                         _______ _______ _______ _____ _____    ______ ____
ROOT
ATOM      1  O   UNL     1       5.047   3.952  15.792  0.00  0.00    +0.000 OA
ATOM      2  C   UNL     1       4.379   4.073  16.814  0.00  0.00    +0.000 C 
ATOM      3  N   UNL     1       4.728   4.812  17.935  0.00  0.00    +0.000 N 
ATOM      4  H   UNL     1       4.184   4.667  18.777  0.00  0.00    +0.000 HD
ENDROOT
BRANCH   3   5
ATOM      5  C   UNL     1       5.852   5.658  18.067  0.00  0.00    +0.000 A 
ATOM      6  C   UNL     1       6.895   5.413  18.965  0.00  0.00    +0.000 A 
ATOM      7  C   UNL     1       7.999   6.269  19.025  0.00  0.00    +0.000 A 
ATOM      8  C   UNL     1       8.070   7.385  18.196  0.00  0.00    +0.000 A 
ATOM      9  C   UNL     1       7.037   7.642  17.298  0.00  0.00    +0.000 A 
ATOM     10  C   UNL     1       5.938   6.778  17.227  0.00  0.00    +0.000 A 
ENDBRANCH   3   5
BRANCH   2  11
ATOM     11  C   UNL     1       3.016   3.416  16.941  0.00  0.00    +0.000 C 
BRANCH  11  12
ATOM     12  C   UNL     1       3.103   2.122  17.750  0.00  0.00    +0.000 C 
BRANCH  12  13
ATOM     13  N   UNL     1       2.713   2.322  19.141  0.00  0.00    +0.000 N 
ATOM     14  C   UNL     1       3.650   2.490  20.132  0.00  0.00    +0.000 C 
ATOM     15  O   UNL     1       4.863   2.494  19.954  0.00  0.00    +0.000 OA
ATOM     16  C   UNL     1       3.022   2.710  21.482  0.00  0.00    +0.000 C 
ATOM     17  S   UNL     1       1.241   2.728  21.211  0.00  0.00    +0.000 S 
ATOM     18  C   UNL     1       1.401   2.487  19.486  0.00  0.00    +0.000 C 
ATOM     19  O   UNL     1       0.443   2.507  18.735  0.00  0.00    +0.000 OA
ENDBRANCH  12  13
ENDBRANCH  11  12
ENDBRANCH   2  11
TORSDOF 4
ENDMDL
MODEL 3
REMARK VINA RESULT:      -6.7      0.156      1.143
REMARK  Name = 
REMARK  4 active torsions:
REMARK  status: ('A' for Active; 'I' for Inactive)
REMARK    1  A    between atoms: C_2  and  C_3
REMARK    2  A    between atoms: C_3  and  C_4
REMARK    3  A    between atoms: C_4  and  N_5
REMARK    4  A    between atoms: N_12  and  C_13
REMARK                            x       y       z     vdW  Elec       q    Type
REMARK                         _______ _______ _______ _____ _____    ______ ____
ROOT
ATOM      1  O   UNL     1       5.517   3.631  16.056  0.00  0.00    +0.000 OA
ATOM      2  C   UNL     1       4.692   3.956  16.904  0.00  0.00    +0.000 C 
ATOM      3  N   UNL     1       4.889   4.875  17.925  0.00  0.00    +0.000 N 
ATOM      4  H   UNL     1       4.199   4.902  18.666  0.00  0.00    +0.000 HD
ENDROOT
BRANCH   3   5
ATOM      5  C   UNL     1       6.025   5.694  18.110  0.00  0.00    +0.000 A 
ATOM      6  C   UNL     1       7.009   5.436  19.068  0.00  0.00    +0.000 A 
ATOM      7  C   UNL     1       8.130   6.264  19.181  0.00  0.00    +0.000 A 
ATOM      8  C   UNL     1       8.275   7.367  18.344  0.00  0.00    +0.000 A 
ATOM      9  C   UNL     1       7.302   7.638  17.386  0.00  0.00    +0.000 A 
ATOM     10  C   UNL     1       6.187   6.800  17.263  0.00  0.00    +0.000 A 
ENDBRANCH   3   5
BRANCH   2  11
ATOM     11  C   UNL     1       3.288   3.378  16.893  0.00  0.00    +0.000 C 
BRANCH  11  12
ATOM     12  C   UNL     1       3.193   2.150  17.800  0.00  0.00    +0.000 C 
BRANCH  12  13
ATOM     13  N   UNL     1       2.656   2.484  19.114  0.00  0.00    +0.000 N 
ATOM     14  C   UNL     1       1.304   2.588  19.332  0.00  0.00    +0.000 C 
ATOM     15  O   UNL     1       0.443   2.412  18.477  0.00  0.00    +0.000 OA
ATOM     16  C   UNL     1       0.978   2.910  20.765  0.00  0.00    +0.000 C 
ATOM     17  S   UNL     1       2.553   2.962  21.639  0.00  0.00    +0.000 S 
ATOM     18  C   UNL     1       3.474   2.570  20.206  0.00  0.00    +0.000 C 
ATOM     19  O   UNL     1       4.676   2.376  20.238  0.00  0.00    +0.000 OA
ENDBRANCH  12  13
ENDBRANCH  11  12
ENDBRANCH   2  11
TORSDOF 4
ENDMDL
MODEL 4
REMARK VINA RESULT:      -6.7      0.570      1.848
REMARK  Name = 
REMARK  4 active torsions:
REMARK  status: ('A' for Active; 'I' for Inactive)
REMARK    1  A    between atoms: C_2  and  C_3
REMARK    2  A    between atoms: C_3  and  C_4
REMARK    3  A    between atoms: C_4  and  N_5
REMARK    4  A    between atoms: N_12  and  C_13
REMARK                            x       y       z     vdW  Elec       q    Type
REMARK                         _______ _______ _______ _____ _____    ______ ____
ROOT
ATOM      1  O   UNL     1       4.932   4.206  15.668  0.00  0.00    +0.000 OA
ATOM      2  C   UNL     1       4.347   4.250  16.745  0.00  0.00    +0.000 C 
ATOM      3  N   UNL     1       4.783   4.910  17.885  0.00  0.00    +0.000 N 
ATOM      4  H   UNL     1       4.307   4.702  18.754  0.00  0.00    +0.000 HD
ENDROOT
BRANCH   3   5
ATOM      5  C   UNL     1       5.913   5.753  17.987  0.00  0.00    +0.000 A 
ATOM      6  C   UNL     1       6.087   6.899  17.208  0.00  0.00    +0.000 A 
ATOM      7  C   UNL     1       7.211   7.713  17.379  0.00  0.00    +0.000 A 
ATOM      8  C   UNL     1       8.180   7.385  18.324  0.00  0.00    +0.000 A 
ATOM      9  C   UNL     1       8.019   6.244  19.106  0.00  0.00    +0.000 A 
ATOM     10  C   UNL     1       6.887   5.437  18.945  0.00  0.00    +0.000 A 
ENDBRANCH   3   5
BRANCH   2  11
ATOM     11  C   UNL     1       2.999   3.576  16.932  0.00  0.00    +0.000 C 
BRANCH  11  12
ATOM     12  C   UNL     1       3.145   2.256  17.690  0.00  0.00    +0.000 C 
BRANCH  12  13
ATOM     13  N   UNL     1       2.751   2.386  19.089  0.00  0.00    +0.000 N 
ATOM     14  C   UNL     1       3.681   2.579  20.081  0.00  0.00    +0.000 C 
ATOM     15  O   UNL     1       4.891   2.665  19.899  0.00  0.00    +0.000 OA
ATOM     16  C   UNL     1       3.048   2.715  21.440  0.00  0.00    +0.000 C 
ATOM     17  S   UNL     1       1.268   2.630  21.176  0.00  0.00    +0.000 S 
ATOM     18  C   UNL     1       1.433   2.457  19.444  0.00  0.00    +0.000 C 
ATOM     19  O   UNL     1       0.471   2.442  18.697  0.00  0.00    +0.000 OA
ENDBRANCH  12  13
ENDBRANCH  11  12
ENDBRANCH   2  11
TORSDOF 4
ENDMDL
MODEL 5
REMARK VINA RESULT:      -6.5      2.885      3.676
REMARK  Name = 
REMARK  4 active torsions:
REMARK  status: ('A' for Active; 'I' for Inactive)
REMARK    1  A    between atoms: C_2  and  C_3
REMARK    2  A    between atoms: C_3  and  C_4
REMARK    3  A    between atoms: C_4  and  N_5
REMARK    4  A    between atoms: N_12  and  C_13
REMARK                            x       y       z     vdW  Elec       q    Type
REMARK                         _______ _______ _______ _____ _____    ______ ____
ROOT
ATOM      1  O   UNL     1       4.979   6.489  15.970  0.00  0.00    +0.000 OA
ATOM      2  C   UNL     1       5.038   5.325  16.351  0.00  0.00    +0.000 C 
ATOM      3  N   UNL     1       5.515   4.248  15.617  0.00  0.00    +0.000 N 
ATOM      4  H   UNL     1       5.324   3.320  15.974  0.00  0.00    +0.000 HD
ENDROOT
BRANCH   3   5
ATOM      5  C   UNL     1       6.133   4.304  14.348  0.00  0.00    +0.000 A 
ATOM      6  C   UNL     1       7.262   5.082  14.079  0.00  0.00    +0.000 A 
ATOM      7  C   UNL     1       7.851   5.070  12.811  0.00  0.00    +0.000 A 
ATOM      8  C   UNL     1       7.311   4.288  11.793  0.00  0.00    +0.000 A 
ATOM      9  C   UNL     1       6.184   3.510  12.046  0.00  0.00    +0.000 A 
ATOM     10  C   UNL     1       5.604   3.511  13.320  0.00  0.00    +0.000 A 
ENDBRANCH   3   5
BRANCH   2  11
ATOM     11  C   UNL     1       4.600   4.936  17.752  0.00  0.00    +0.000 C 
BRANCH  11  12
ATOM     12  C   UNL     1       4.017   3.523  17.774  0.00  0.00    +0.000 C 
BRANCH  12  13
ATOM     13  N   UNL     1       3.090   3.333  18.884  0.00  0.00    +0.000 N 
ATOM     14  C   UNL     1       1.742   3.553  18.739  0.00  0.00    +0.000 C 
ATOM     15  O   UNL     1       1.200   3.913  17.699  0.00  0.00    +0.000 OA
ATOM     16  C   UNL     1       0.976   3.267  20.002  0.00  0.00    +0.000 C 
ATOM     17  S   UNL     1       2.184   2.671  21.198  0.00  0.00    +0.000 S 
ATOM     18  C   UNL     1       3.512   2.798  20.068  0.00  0.00    +0.000 C 
ATOM     19  O   UNL     1       4.636   2.414  20.340  0.00  0.00    +0.000 OA
ENDBRANCH  12  13
ENDBRANCH  11  12
ENDBRANCH   2  11
TORSDOF 4
ENDMDL
MODEL 6
REMARK VINA RESULT:      -6.3      3.077      3.933
REMARK  Name = 
REMARK  4 active torsions:
REMARK  status: ('A' for Active; 'I' for Inactive)
REMARK    1  A    between atoms: C_2  and  C_3
REMARK    2  A    between atoms: C_3  and  C_4
REMARK    3  A    between atoms: C_4  and  N_5
REMARK    4  A    between atoms: N_12  and  C_13
REMARK                            x       y       z     vdW  Elec       q    Type
REMARK                         _______ _______ _______ _____ _____    ______ ____
ROOT
ATOM      1  O   UNL     1       4.948   6.852  16.050  0.00  0.00    +0.000 OA
ATOM      2  C   UNL     1       4.883   5.721  16.518  0.00  0.00    +0.000 C 
ATOM      3  N   UNL     1       5.252   4.547  15.875  0.00  0.00    +0.000 N 
ATOM      4  H   UNL     1       4.963   3.674  16.298  0.00  0.00    +0.000 HD
ENDROOT
BRANCH   3   5
ATOM      5  C   UNL     1       5.883   4.444  14.615  0.00  0.00    +0.000 A 
ATOM      6  C   UNL     1       7.095   5.069  14.311  0.00  0.00    +0.000 A 
ATOM      7  C   UNL     1       7.688   4.901  13.056  0.00  0.00    +0.000 A 
ATOM      8  C   UNL     1       7.072   4.114  12.086  0.00  0.00    +0.000 A 
ATOM      9  C   UNL     1       5.863   3.486  12.376  0.00  0.00    +0.000 A 
ATOM     10  C   UNL     1       5.277   3.642  13.637  0.00  0.00    +0.000 A 
ENDBRANCH   3   5
BRANCH   2  11
ATOM     11  C   UNL     1       4.396   5.487  17.937  0.00  0.00    +0.000 C 
BRANCH  11  12
ATOM     12  C   UNL     1       2.883   5.689  18.040  0.00  0.00    +0.000 C 
BRANCH  12  13
ATOM     13  N   UNL     1       2.221   4.539  18.646  0.00  0.00    +0.000 N 
ATOM     14  C   UNL     1       2.007   3.380  17.940  0.00  0.00    +0.000 C 
ATOM     15  O   UNL     1       2.344   3.198  16.775  0.00  0.00    +0.000 OA
ATOM     16  C   UNL     1       1.337   2.319  18.771  0.00  0.00    +0.000 C 
ATOM     17  S   UNL     1       1.148   3.018  20.421  0.00  0.00    +0.000 S 
ATOM     18  C   UNL     1       1.913   4.527  19.977  0.00  0.00    +0.000 C 
ATOM     19  O   UNL     1       2.147   5.402  20.792  0.00  0.00    +0.000 OA
ENDBRANCH  12  13
ENDBRANCH  11  12
ENDBRANCH   2  11
TORSDOF 4
ENDMDL
MODEL 7
REMARK VINA RESULT:      -6.3      3.152      4.688
REMARK  Name = 
REMARK  4 active torsions:
REMARK  status: ('A' for Active; 'I' for Inactive)
REMARK    1  A    between atoms: C_2  and  C_3
REMARK    2  A    between atoms: C_3  and  C_4
REMARK    3  A    between atoms: C_4  and  N_5
REMARK    4  A    between atoms: N_12  and  C_13
REMARK                            x       y       z     vdW  Elec       q    Type
REMARK                         _______ _______ _______ _____ _____    ______ ____
ROOT
ATOM      1  O   UNL     1       7.873   4.255  17.102  0.00  0.00    +0.000 OA
ATOM      2  C   UNL     1       7.255   5.300  16.925  0.00  0.00    +0.000 C 
ATOM      3  N   UNL     1       6.732   5.745  15.719  0.00  0.00    +0.000 N 
ATOM      4  H   UNL     1       6.422   6.708  15.673  0.00  0.00    +0.000 HD
ENDROOT
BRANCH   3   5
ATOM      5  C   UNL     1       6.705   5.031  14.500  0.00  0.00    +0.000 A 
ATOM      6  C   UNL     1       5.767   4.035  14.216  0.00  0.00    +0.000 A 
ATOM      7  C   UNL     1       5.769   3.386  12.978  0.00  0.00    +0.000 A 
ATOM      8  C   UNL     1       6.716   3.718  12.012  0.00  0.00    +0.000 A 
ATOM      9  C   UNL     1       7.658   4.707  12.283  0.00  0.00    +0.000 A 
ATOM     10  C   UNL     1       7.647   5.367  13.517  0.00  0.00    +0.000 A 
ENDBRANCH   3   5
BRANCH   2  11
ATOM     11  C   UNL     1       6.958   6.240  18.080  0.00  0.00    +0.000 C 
BRANCH  11  12
ATOM     12  C   UNL     1       6.265   5.502  19.226  0.00  0.00    +0.000 C 
BRANCH  12  13
ATOM     13  N   UNL     1       4.985   4.937  18.814  0.00  0.00    +0.000 N 
ATOM     14  C   UNL     1       4.639   3.644  19.121  0.00  0.00    +0.000 C 
ATOM     15  O   UNL     1       5.342   2.862  19.752  0.00  0.00    +0.000 OA
ATOM     16  C   UNL     1       3.264   3.285  18.624  0.00  0.00    +0.000 C 
ATOM     17  S   UNL     1       2.599   4.778  17.866  0.00  0.00    +0.000 S 
ATOM     18  C   UNL     1       4.028   5.718  18.228  0.00  0.00    +0.000 C 
ATOM     19  O   UNL     1       4.096   6.912  18.000  0.00  0.00    +0.000 OA
ENDBRANCH  12  13
ENDBRANCH  11  12
ENDBRANCH   2  11
TORSDOF 4
ENDMDL
MODEL 8
REMARK VINA RESULT:      -6.3      2.907      3.994
REMARK  Name = 
REMARK  4 active torsions:
REMARK  status: ('A' for Active; 'I' for Inactive)
REMARK    1  A    between atoms: C_2  and  C_3
REMARK    2  A    between atoms: C_3  and  C_4
REMARK    3  A    between atoms: C_4  and  N_5
REMARK    4  A    between atoms: N_12  and  C_13
REMARK                            x       y       z     vdW  Elec       q    Type
REMARK                         _______ _______ _______ _____ _____    ______ ____
ROOT
ATOM      1  O   UNL     1       7.282   4.356  17.056  0.00  0.00    +0.000 OA
ATOM      2  C   UNL     1       6.083   4.508  16.850  0.00  0.00    +0.000 C 
ATOM      3  N   UNL     1       5.479   4.653  15.608  0.00  0.00    +0.000 N 
ATOM      4  H   UNL     1       4.517   4.967  15.592  0.00  0.00    +0.000 HD
ENDROOT
BRANCH   3   5
ATOM      5  C   UNL     1       6.109   4.531  14.349  0.00  0.00    +0.000 A 
ATOM      6  C   UNL     1       7.254   5.248  13.991  0.00  0.00    +0.000 A 
ATOM      7  C   UNL     1       7.853   5.059  12.742  0.00  0.00    +0.000 A 
ATOM      8  C   UNL     1       7.308   4.157  11.831  0.00  0.00    +0.000 A 
ATOM      9  C   UNL     1       6.167   3.437  12.174  0.00  0.00    +0.000 A 
ATOM     10  C   UNL     1       5.576   3.616  13.430  0.00  0.00    +0.000 A 
ENDBRANCH   3   5
BRANCH   2  11
ATOM     11  C   UNL     1       5.086   4.520  17.994  0.00  0.00    +0.000 C 
BRANCH  11  12
ATOM     12  C   UNL     1       4.164   3.302  17.934  0.00  0.00    +0.000 C 
BRANCH  12  13
ATOM     13  N   UNL     1       3.279   3.231  19.092  0.00  0.00    +0.000 N 
ATOM     14  C   UNL     1       3.671   2.619  20.257  0.00  0.00    +0.000 C 
ATOM     15  O   UNL     1       4.764   2.094  20.439  0.00  0.00    +0.000 OA
ATOM     16  C   UNL     1       2.613   2.692  21.325  0.00  0.00    +0.000 C 
ATOM     17  S   UNL     1       1.254   3.642  20.622  0.00  0.00    +0.000 S 
ATOM     18  C   UNL     1       2.083   3.891  19.103  0.00  0.00    +0.000 C 
ATOM     19  O   UNL     1       1.626   4.596  18.221  0.00  0.00    +0.000 OA
ENDBRANCH  12  13
ENDBRANCH  11  12
ENDBRANCH   2  11
TORSDOF 4
ENDMDL
MODEL 9
REMARK VINA RESULT:      -6.3      3.058      3.895
REMARK  Name = 
REMARK  4 active torsions:
REMARK  status: ('A' for Active; 'I' for Inactive)
REMARK    1  A    between atoms: C_2  and  C_3
REMARK    2  A    between atoms: C_3  and  C_4
REMARK    3  A    between atoms: C_4  and  N_5
REMARK    4  A    between atoms: N_12  and  C_13
REMARK                            x       y       z     vdW  Elec       q    Type
REMARK                         _______ _______ _______ _____ _____    ______ ____
ROOT
ATOM      1  O   UNL     1       4.856   6.805  15.979  0.00  0.00    +0.000 OA
ATOM      2  C   UNL     1       4.812   5.695  16.499  0.00  0.00    +0.000 C 
ATOM      3  N   UNL     1       5.190   4.499  15.904  0.00  0.00    +0.000 N 
ATOM      4  H   UNL     1       4.918   3.642  16.370  0.00  0.00    +0.000 HD
ENDROOT
BRANCH   3   5
ATOM      5  C   UNL     1       5.805   4.347  14.642  0.00  0.00    +0.000 A 
ATOM      6  C   UNL     1       5.233   3.621  13.593  0.00  0.00    +0.000 A 
ATOM      7  C   UNL     1       5.875   3.535  12.354  0.00  0.00    +0.000 A 
ATOM      8  C   UNL     1       7.101   4.164  12.151  0.00  0.00    +0.000 A 
ATOM      9  C   UNL     1       7.682   4.888  13.188  0.00  0.00    +0.000 A 
ATOM     10  C   UNL     1       7.033   4.987  14.424  0.00  0.00    +0.000 A 
ENDBRANCH   3   5
BRANCH   2  11
ATOM     11  C   UNL     1       4.347   5.520  17.934  0.00  0.00    +0.000 C 
BRANCH  11  12
ATOM     12  C   UNL     1       2.833   5.696  18.046  0.00  0.00    +0.000 C 
BRANCH  12  13
ATOM     13  N   UNL     1       2.196   4.541  18.671  0.00  0.00    +0.000 N 
ATOM     14  C   UNL     1       1.992   3.373  17.979  0.00  0.00    +0.000 C 
ATOM     15  O   UNL     1       2.316   3.185  16.811  0.00  0.00    +0.000 OA
ATOM     16  C   UNL     1       1.349   2.309  18.828  0.00  0.00    +0.000 C 
ATOM     17  S   UNL     1       1.171   3.020  20.474  0.00  0.00    +0.000 S 
ATOM     18  C   UNL     1       1.905   4.537  20.006  0.00  0.00    +0.000 C 
ATOM     19  O   UNL     1       2.136   5.422  20.810  0.00  0.00    +0.000 OA
ENDBRANCH  12  13
ENDBRANCH  11  12
ENDBRANCH   2  11
TORSDOF 4
ENDMDL
