MODEL 1
REMARK VINA RESULT:      -8.0      0.000      0.000
REMARK  Name = 
REMARK  4 active torsions:
REMARK  status: ('A' for Active; 'I' for Inactive)
REMARK    1  A    between atoms: C_4  and  C_5
REMARK    2  A    between atoms: C_5  and  O_6
REMARK    3  A    between atoms: O_6  and  C_7
REMARK    4  A    between atoms: C_19  and  O_20
REMARK                            x       y       z     vdW  Elec       q    Type
REMARK                         _______ _______ _______ _____ _____    ______ ____
ROOT
ATOM      1  O   UNL     1       4.783   4.502  15.734  0.00  0.00    +0.000 OA
ENDROOT
BRANCH   1   2
ATOM      2  C   UNL     1       4.029   4.669  16.859  0.00  0.00    +0.000 A 
ATOM      3  C   UNL     1       3.716   5.883  17.464  0.00  0.00    +0.000 A 
ATOM      4  C   UNL     1       2.923   5.906  18.615  0.00  0.00    +0.000 A 
ATOM      5  C   UNL     1       2.430   4.716  19.176  0.00  0.00    +0.000 A 
ATOM      6  C   UNL     1       1.623   4.727  20.324  0.00  0.00    +0.000 A 
ATOM      7  C   UNL     1       1.138   3.535  20.865  0.00  0.00    +0.000 A 
ATOM      8  C   UNL     1       1.458   2.318  20.267  0.00  0.00    +0.000 A 
ATOM      9  C   UNL     1       2.262   2.292  19.128  0.00  0.00    +0.000 A 
ATOM     10  C   UNL     1       2.753   3.483  18.569  0.00  0.00    +0.000 A 
ATOM     11  C   UNL     1       3.553   3.479  17.417  0.00  0.00    +0.000 A 
ENDBRANCH   1   2
BRANCH   1  12
ATOM     12  C   UNL     1       6.148   4.120  15.898  0.00  0.00    +0.000 C 
BRANCH  12  16
ATOM     13  O   UNL     1       8.308   5.362  20.074  0.00  0.00    +0.000 OA
ATOM     14  C   UNL     1       7.922   5.683  18.955  0.00  0.00    +0.000 A 
ATOM     15  C   UNL     1       7.261   4.696  18.083  0.00  0.00    +0.000 A 
ATOM     16  C   UNL     1       6.836   5.056  16.861  0.00  0.00    +0.000 A 
ATOM     17  O   UNL     1       6.998   6.345  16.368  0.00  0.00    +0.000 OA
ATOM     18  C   UNL     1       7.616   7.280  17.165  0.00  0.00    +0.000 A 
ATOM     19  C   UNL     1       8.083   7.058  18.400  0.00  0.00    +0.000 A 
BRANCH  19  20
ATOM     20  O   UNL     1       8.695   8.027  19.168  0.00  0.00    +0.000 OA
ATOM     21  H   UNL     1       8.320   8.892  18.945  0.00  0.00    +0.000 HD
ENDBRANCH  19  20
ENDBRANCH  12  16
ENDBRANCH   1  12
TORSDOF 4
ENDMDL
MODEL 2
REMARK VINA RESULT:      -7.6      2.341      4.173
REMARK  Name = 
REMARK  4 active torsions:
REMARK  status: ('A' for Active; 'I' for Inactive)
REMARK    1  A    between atoms: C_4  and  C_5
REMARK    2  A    between atoms: C_5  and  O_6
REMARK    3  A    between atoms: O_6  and  C_7
REMARK    4  A    between atoms: C_19  and  O_20
REMARK                            x       y       z     vdW  Elec       q    Type
REMARK                         _______ _______ _______ _____ _____    ______ ____
ROOT
ATOM      1  O   UNL     1       3.353   4.113  18.769  0.00  0.00    +0.000 OA
ENDROOT
BRANCH   1   2
ATOM      2  C   UNL     1       2.766   5.258  19.221  0.00  0.00    +0.000 A 
ATOM      3  C   UNL     1       2.174   5.439  20.467  0.00  0.00    +0.000 A 
ATOM      4  C   UNL     1       1.613   6.675  20.802  0.00  0.00    +0.000 A 
ATOM      5  C   UNL     1       1.638   7.748  19.896  0.00  0.00    +0.000 A 
ATOM      6  C   UNL     1       1.090   8.998  20.224  0.00  0.00    +0.000 A 
ATOM      7  C   UNL     1       1.129  10.054  19.312  0.00  0.00    +0.000 A 
ATOM      8  C   UNL     1       1.712   9.872  18.061  0.00  0.00    +0.000 A 
ATOM      9  C   UNL     1       2.258   8.635  17.719  0.00  0.00    +0.000 A 
ATOM     10  C   UNL     1       2.231   7.564  18.628  0.00  0.00    +0.000 A 
ATOM     11  C   UNL     1       2.785   6.316  18.308  0.00  0.00    +0.000 A 
ENDBRANCH   1   2
BRANCH   1  12
ATOM     12  C   UNL     1       4.745   3.929  19.028  0.00  0.00    +0.000 C 
BRANCH  12  16
ATOM     13  O   UNL     1       7.775   6.960  16.729  0.00  0.00    +0.000 OA
ATOM     14  C   UNL     1       7.081   5.949  16.704  0.00  0.00    +0.000 A 
ATOM     15  C   UNL     1       6.322   5.537  17.898  0.00  0.00    +0.000 A 
ATOM     16  C   UNL     1       5.559   4.431  17.861  0.00  0.00    +0.000 A 
ATOM     17  O   UNL     1       5.453   3.639  16.724  0.00  0.00    +0.000 OA
ATOM     18  C   UNL     1       6.157   4.005  15.600  0.00  0.00    +0.000 A 
ATOM     19  C   UNL     1       6.948   5.080  15.500  0.00  0.00    +0.000 A 
BRANCH  19  20
ATOM     20  O   UNL     1       7.636   5.413  14.350  0.00  0.00    +0.000 OA
ATOM     21  H   UNL     1       7.573   6.370  14.209  0.00  0.00    +0.000 HD
ENDBRANCH  19  20
ENDBRANCH  12  16
ENDBRANCH   1  12
TORSDOF 4
ENDMDL
MODEL 3
REMARK VINA RESULT:      -7.5      3.602      4.792
REMARK  Name = 
REMARK  4 active torsions:
REMARK  status: ('A' for Active; 'I' for Inactive)
REMARK    1  A    between atoms: C_4  and  C_5
REMARK    2  A    between atoms: C_5  and  O_6
REMARK    3  A    between atoms: O_6  and  C_7
REMARK    4  A    between atoms: C_19  and  O_20
REMARK                            x       y       z     vdW  Elec       q    Type
REMARK                         _______ _______ _______ _____ _____    ______ ____
ROOT
ATOM      1  O   UNL     1       2.850   7.438  17.748  0.00  0.00    +0.000 OA
ENDROOT
BRANCH   1   2
ATOM      2  C   UNL     1       2.069   8.333  18.418  0.00  0.00    +0.000 A 
ATOM      3  C   UNL     1       1.462   9.461  17.874  0.00  0.00    +0.000 A 
ATOM      4  C   UNL     1       0.678  10.291  18.680  0.00  0.00    +0.000 A 
ATOM      5  C   UNL     1       0.488  10.004  20.042  0.00  0.00    +0.000 A 
ATOM      6  C   UNL     1      -0.307  10.823  20.859  0.00  0.00    +0.000 A 
ATOM      7  C   UNL     1      -0.488  10.519  22.210  0.00  0.00    +0.000 A 
ATOM      8  C   UNL     1       0.126   9.396  22.759  0.00  0.00    +0.000 A 
ATOM      9  C   UNL     1       0.921   8.576  21.960  0.00  0.00    +0.000 A 
ATOM     10  C   UNL     1       1.109   8.865  20.599  0.00  0.00    +0.000 A 
ATOM     11  C   UNL     1       1.896   8.045  19.775  0.00  0.00    +0.000 A 
ENDBRANCH   1   2
BRANCH   1  12
ATOM     12  C   UNL     1       2.920   6.105  18.252  0.00  0.00    +0.000 C 
BRANCH  12  16
ATOM     13  O   UNL     1       7.378   5.343  20.039  0.00  0.00    +0.000 OA
ATOM     14  C   UNL     1       6.585   5.227  19.111  0.00  0.00    +0.000 A 
ATOM     15  C   UNL     1       5.208   5.738  19.240  0.00  0.00    +0.000 A 
ATOM     16  C   UNL     1       4.346   5.612  18.217  0.00  0.00    +0.000 A 
ATOM     17  O   UNL     1       4.699   5.004  17.019  0.00  0.00    +0.000 OA
ATOM     18  C   UNL     1       5.977   4.517  16.880  0.00  0.00    +0.000 A 
ATOM     19  C   UNL     1       6.934   4.580  17.814  0.00  0.00    +0.000 A 
BRANCH  19  20
ATOM     20  O   UNL     1       8.208   4.079  17.634  0.00  0.00    +0.000 OA
ATOM     21  H   UNL     1       8.770   4.772  17.255  0.00  0.00    +0.000 HD
ENDBRANCH  19  20
ENDBRANCH  12  16
ENDBRANCH   1  12
TORSDOF 4
ENDMDL
MODEL 4
REMARK VINA RESULT:      -7.4      2.804      4.338
REMARK  Name = 
REMARK  4 active torsions:
REMARK  status: ('A' for Active; 'I' for Inactive)
REMARK    1  A    between atoms: C_4  and  C_5
REMARK    2  A    between atoms: C_5  and  O_6
REMARK    3  A    between atoms: O_6  and  C_7
REMARK    4  A    between atoms: C_19  and  O_20
REMARK                            x       y       z     vdW  Elec       q    Type
REMARK                         _______ _______ _______ _____ _____    ______ ____
ROOT
ATOM      1  O   UNL     1       3.177   4.818  19.049  0.00  0.00    +0.000 OA
ENDROOT
BRANCH   1   2
ATOM      2  C   UNL     1       2.706   6.096  18.986  0.00  0.00    +0.000 A 
ATOM      3  C   UNL     1       2.658   6.897  17.848  0.00  0.00    +0.000 A 
ATOM      4  C   UNL     1       2.140   8.193  17.928  0.00  0.00    +0.000 A 
ATOM      5  C   UNL     1       1.662   8.706  19.145  0.00  0.00    +0.000 A 
ATOM      6  C   UNL     1       1.128  10.001  19.235  0.00  0.00    +0.000 A 
ATOM      7  C   UNL     1       0.653  10.492  20.452  0.00  0.00    +0.000 A 
ATOM      8  C   UNL     1       0.710   9.696  21.594  0.00  0.00    +0.000 A 
ATOM      9  C   UNL     1       1.240   8.409  21.520  0.00  0.00    +0.000 A 
ATOM     10  C   UNL     1       1.718   7.899  20.301  0.00  0.00    +0.000 A 
ATOM     11  C   UNL     1       2.244   6.602  20.204  0.00  0.00    +0.000 A 
ENDBRANCH   1   2
BRANCH   1  12
ATOM     12  C   UNL     1       4.556   4.630  19.368  0.00  0.00    +0.000 C 
BRANCH  12  16
ATOM     13  O   UNL     1       7.791   7.092  16.699  0.00  0.00    +0.000 OA
ATOM     14  C   UNL     1       7.034   6.133  16.811  0.00  0.00    +0.000 A 
ATOM     15  C   UNL     1       6.241   5.951  18.040  0.00  0.00    +0.000 A 
ATOM     16  C   UNL     1       5.410   4.901  18.153  0.00  0.00    +0.000 A 
ATOM     17  O   UNL     1       5.263   3.957  17.145  0.00  0.00    +0.000 OA
ATOM     18  C   UNL     1       5.997   4.108  15.992  0.00  0.00    +0.000 A 
ATOM     19  C   UNL     1       6.857   5.105  15.747  0.00  0.00    +0.000 A 
BRANCH  19  20
ATOM     20  O   UNL     1       7.573   5.220  14.573  0.00  0.00    +0.000 OA
ATOM     21  H   UNL     1       7.600   6.152  14.308  0.00  0.00    +0.000 HD
ENDBRANCH  19  20
ENDBRANCH  12  16
ENDBRANCH   1  12
TORSDOF 4
ENDMDL
MODEL 5
REMARK VINA RESULT:      -7.4      3.750      5.063
REMARK  Name = 
REMARK  4 active torsions:
REMARK  status: ('A' for Active; 'I' for Inactive)
REMARK    1  A    between atoms: C_4  and  C_5
REMARK    2  A    between atoms: C_5  and  O_6
REMARK    3  A    between atoms: O_6  and  C_7
REMARK    4  A    between atoms: C_19  and  O_20
REMARK                            x       y       z     vdW  Elec       q    Type
REMARK                         _______ _______ _______ _____ _____    ______ ____
ROOT
ATOM      1  O   UNL     1       2.763   7.702  17.746  0.00  0.00    +0.000 OA
ENDROOT
BRANCH   1   2
ATOM      2  C   UNL     1       1.998   8.577  18.460  0.00  0.00    +0.000 A 
ATOM      3  C   UNL     1       1.414   9.742  17.973  0.00  0.00    +0.000 A 
ATOM      4  C   UNL     1       0.645  10.546  18.820  0.00  0.00    +0.000 A 
ATOM      5  C   UNL     1       0.447  10.194  20.165  0.00  0.00    +0.000 A 
ATOM      6  C   UNL     1      -0.333  10.986  21.023  0.00  0.00    +0.000 A 
ATOM      7  C   UNL     1      -0.522  10.617  22.356  0.00  0.00    +0.000 A 
ATOM      8  C   UNL     1       0.069   9.457  22.848  0.00  0.00    +0.000 A 
ATOM      9  C   UNL     1       0.850   8.662  22.009  0.00  0.00    +0.000 A 
ATOM     10  C   UNL     1       1.045   9.017  20.664  0.00  0.00    +0.000 A 
ATOM     11  C   UNL     1       1.817   8.225  19.801  0.00  0.00    +0.000 A 
ENDBRANCH   1   2
BRANCH   1  12
ATOM     12  C   UNL     1       2.970   6.399  18.290  0.00  0.00    +0.000 C 
BRANCH  12  16
ATOM     13  O   UNL     1       7.457   6.768  16.449  0.00  0.00    +0.000 OA
ATOM     14  C   UNL     1       6.621   6.105  17.055  0.00  0.00    +0.000 A 
ATOM     15  C   UNL     1       5.280   6.657  17.317  0.00  0.00    +0.000 A 
ATOM     16  C   UNL     1       4.368   5.923  17.976  0.00  0.00    +0.000 A 
ATOM     17  O   UNL     1       4.638   4.640  18.436  0.00  0.00    +0.000 OA
ATOM     18  C   UNL     1       5.885   4.109  18.205  0.00  0.00    +0.000 A 
ATOM     19  C   UNL     1       6.882   4.727  17.560  0.00  0.00    +0.000 A 
BRANCH  19  20
ATOM     20  O   UNL     1       8.120   4.155  17.347  0.00  0.00    +0.000 OA
ATOM     21  H   UNL     1       8.658   4.255  18.147  0.00  0.00    +0.000 HD
ENDBRANCH  19  20
ENDBRANCH  12  16
ENDBRANCH   1  12
TORSDOF 4
ENDMDL
MODEL 6
REMARK VINA RESULT:      -7.4      4.192      5.558
REMARK  Name = 
REMARK  4 active torsions:
REMARK  status: ('A' for Active; 'I' for Inactive)
REMARK    1  A    between atoms: C_4  and  C_5
REMARK    2  A    between atoms: C_5  and  O_6
REMARK    3  A    between atoms: O_6  and  C_7
REMARK    4  A    between atoms: C_19  and  O_20
REMARK                            x       y       z     vdW  Elec       q    Type
REMARK                         _______ _______ _______ _____ _____    ______ ____
ROOT
ATOM      1  O   UNL     1       2.476   7.016  19.662  0.00  0.00    +0.000 OA
ENDROOT
BRANCH   1   2
ATOM      2  C   UNL     1       1.722   8.132  19.884  0.00  0.00    +0.000 A 
ATOM      3  C   UNL     1       1.466   9.144  18.964  0.00  0.00    +0.000 A 
ATOM      4  C   UNL     1       0.667  10.233  19.326  0.00  0.00    +0.000 A 
ATOM      5  C   UNL     1       0.112  10.323  20.613  0.00  0.00    +0.000 A 
ATOM      6  C   UNL     1      -0.702  11.404  20.986  0.00  0.00    +0.000 A 
ATOM      7  C   UNL     1      -1.249  11.475  22.269  0.00  0.00    +0.000 A 
ATOM      8  C   UNL     1      -0.985  10.468  23.194  0.00  0.00    +0.000 A 
ATOM      9  C   UNL     1      -0.176   9.390  22.839  0.00  0.00    +0.000 A 
ATOM     10  C   UNL     1       0.378   9.302  21.551  0.00  0.00    +0.000 A 
ATOM     11  C   UNL     1       1.185   8.219  21.171  0.00  0.00    +0.000 A 
ENDBRANCH   1   2
BRANCH   1  12
ATOM     12  C   UNL     1       2.665   6.597  18.312  0.00  0.00    +0.000 C 
BRANCH  12  16
ATOM     13  O   UNL     1       7.168   6.544  16.475  0.00  0.00    +0.000 OA
ATOM     14  C   UNL     1       6.326   6.035  17.208  0.00  0.00    +0.000 A 
ATOM     15  C   UNL     1       4.983   6.630  17.326  0.00  0.00    +0.000 A 
ATOM     16  C   UNL     1       4.065   6.064  18.126  0.00  0.00    +0.000 A 
ATOM     17  O   UNL     1       4.330   4.919  18.868  0.00  0.00    +0.000 OA
ATOM     18  C   UNL     1       5.579   4.350  18.774  0.00  0.00    +0.000 A 
ATOM     19  C   UNL     1       6.582   4.808  18.015  0.00  0.00    +0.000 A 
BRANCH  19  20
ATOM     20  O   UNL     1       7.821   4.204  17.948  0.00  0.00    +0.000 OA
ATOM     21  H   UNL     1       8.481   4.864  17.685  0.00  0.00    +0.000 HD
ENDBRANCH  19  20
ENDBRANCH  12  16
ENDBRANCH   1  12
TORSDOF 4
ENDMDL
MODEL 7
REMARK VINA RESULT:      -7.3      2.346      4.360
REMARK  Name = 
REMARK  4 active torsions:
REMARK  status: ('A' for Active; 'I' for Inactive)
REMARK    1  A    between atoms: C_4  and  C_5
REMARK    2  A    between atoms: C_5  and  O_6
REMARK    3  A    between atoms: O_6  and  C_7
REMARK    4  A    between atoms: C_19  and  O_20
REMARK                            x       y       z     vdW  Elec       q    Type
REMARK                         _______ _______ _______ _____ _____    ______ ____
ROOT
ATOM      1  O   UNL     1       3.108   3.912  18.938  0.00  0.00    +0.000 OA
ENDROOT
BRANCH   1   2
ATOM      2  C   UNL     1       2.600   5.105  19.361  0.00  0.00    +0.000 A 
ATOM      3  C   UNL     1       2.064   5.369  20.618  0.00  0.00    +0.000 A 
ATOM      4  C   UNL     1       1.583   6.647  20.918  0.00  0.00    +0.000 A 
ATOM      5  C   UNL     1       1.632   7.679  19.966  0.00  0.00    +0.000 A 
ATOM      6  C   UNL     1       1.163   8.969  20.259  0.00  0.00    +0.000 A 
ATOM      7  C   UNL     1       1.225   9.983  19.302  0.00  0.00    +0.000 A 
ATOM      8  C   UNL     1       1.751   9.719  18.040  0.00  0.00    +0.000 A 
ATOM      9  C   UNL     1       2.218   8.441  17.733  0.00  0.00    +0.000 A 
ATOM     10  C   UNL     1       2.167   7.411  18.687  0.00  0.00    +0.000 A 
ATOM     11  C   UNL     1       2.642   6.122  18.402  0.00  0.00    +0.000 A 
ENDBRANCH   1   2
BRANCH   1  12
ATOM     12  C   UNL     1       4.498   3.667  19.149  0.00  0.00    +0.000 C 
BRANCH  12  16
ATOM     13  O   UNL     1       5.238   4.205  14.373  0.00  0.00    +0.000 OA
ATOM     14  C   UNL     1       5.657   4.316  15.519  0.00  0.00    +0.000 A 
ATOM     15  C   UNL     1       4.814   3.924  16.663  0.00  0.00    +0.000 A 
ATOM     16  C   UNL     1       5.283   4.043  17.916  0.00  0.00    +0.000 A 
ATOM     17  O   UNL     1       6.553   4.535  18.191  0.00  0.00    +0.000 OA
ATOM     18  C   UNL     1       7.354   4.910  17.138  0.00  0.00    +0.000 A 
ATOM     19  C   UNL     1       7.015   4.840  15.844  0.00  0.00    +0.000 A 
BRANCH  19  20
ATOM     20  O   UNL     1       7.851   5.226  14.817  0.00  0.00    +0.000 OA
ATOM     21  H   UNL     1       7.712   6.167  14.631  0.00  0.00    +0.000 HD
ENDBRANCH  19  20
ENDBRANCH  12  16
ENDBRANCH   1  12
TORSDOF 4
ENDMDL
MODEL 8
REMARK VINA RESULT:      -7.3      0.850      2.113
REMARK  Name = 
REMARK  4 active torsions:
REMARK  status: ('A' for Active; 'I' for Inactive)
REMARK    1  A    between atoms: C_4  and  C_5
REMARK    2  A    between atoms: C_5  and  O_6
REMARK    3  A    between atoms: O_6  and  C_7
REMARK    4  A    between atoms: C_19  and  O_20
REMARK                            x       y       z     vdW  Elec       q    Type
REMARK                         _______ _______ _______ _____ _____    ______ ____
ROOT
ATOM      1  O   UNL     1       4.649   4.198  15.922  0.00  0.00    +0.000 OA
ENDROOT
BRANCH   1   2
ATOM      2  C   UNL     1       3.923   4.360  17.065  0.00  0.00    +0.000 A 
ATOM      3  C   UNL     1       3.478   3.344  17.905  0.00  0.00    +0.000 A 
ATOM      4  C   UNL     1       2.745   3.658  19.054  0.00  0.00    +0.000 A 
ATOM      5  C   UNL     1       2.447   4.992  19.378  0.00  0.00    +0.000 A 
ATOM      6  C   UNL     1       1.722   5.320  20.534  0.00  0.00    +0.000 A 
ATOM      7  C   UNL     1       1.439   6.652  20.842  0.00  0.00    +0.000 A 
ATOM      8  C   UNL     1       1.874   7.670  19.997  0.00  0.00    +0.000 A 
ATOM      9  C   UNL     1       2.592   7.358  18.843  0.00  0.00    +0.000 A 
ATOM     10  C   UNL     1       2.888   6.023  18.522  0.00  0.00    +0.000 A 
ATOM     11  C   UNL     1       3.620   5.690  17.372  0.00  0.00    +0.000 A 
ENDBRANCH   1   2
BRANCH   1  12
ATOM     12  C   UNL     1       6.035   3.884  16.051  0.00  0.00    +0.000 C 
BRANCH  12  16
ATOM     13  O   UNL     1       7.955   5.506  20.215  0.00  0.00    +0.000 OA
ATOM     14  C   UNL     1       7.678   5.708  19.038  0.00  0.00    +0.000 A 
ATOM     15  C   UNL     1       7.018   4.660  18.238  0.00  0.00    +0.000 A 
ATOM     16  C   UNL     1       6.712   4.891  16.950  0.00  0.00    +0.000 A 
ATOM     17  O   UNL     1       6.999   6.096  16.322  0.00  0.00    +0.000 OA
ATOM     18  C   UNL     1       7.618   7.085  17.050  0.00  0.00    +0.000 A 
ATOM     19  C   UNL     1       7.973   6.991  18.338  0.00  0.00    +0.000 A 
BRANCH  19  20
ATOM     20  O   UNL     1       8.592   8.010  19.033  0.00  0.00    +0.000 OA
ATOM     21  H   UNL     1       9.232   7.628  19.652  0.00  0.00    +0.000 HD
ENDBRANCH  19  20
ENDBRANCH  12  16
ENDBRANCH   1  12
TORSDOF 4
ENDMDL
MODEL 9
REMARK VINA RESULT:      -7.3      3.728      5.216
REMARK  Name = 
REMARK  4 active torsions:
REMARK  status: ('A' for Active; 'I' for Inactive)
REMARK    1  A    between atoms: C_4  and  C_5
REMARK    2  A    between atoms: C_5  and  O_6
REMARK    3  A    between atoms: O_6  and  C_7
REMARK    4  A    between atoms: C_19  and  O_20
REMARK                            x       y       z     vdW  Elec       q    Type
REMARK                         _______ _______ _______ _____ _____    ______ ____
ROOT
ATOM      1  O   UNL     1       2.694   6.159  19.681  0.00  0.00    +0.000 OA
ENDROOT
BRANCH   1   2
ATOM      2  C   UNL     1       2.080   7.377  19.730  0.00  0.00    +0.000 A 
ATOM      3  C   UNL     1       2.028   8.310  18.699  0.00  0.00    +0.000 A 
ATOM      4  C   UNL     1       1.355   9.521  18.886  0.00  0.00    +0.000 A 
ATOM      5  C   UNL     1       0.724   9.815  20.106  0.00  0.00    +0.000 A 
ATOM      6  C   UNL     1       0.035  11.022  20.303  0.00  0.00    +0.000 A 
ATOM      7  C   UNL     1      -0.590  11.295  21.521  0.00  0.00    +0.000 A 
ATOM      8  C   UNL     1      -0.530  10.367  22.557  0.00  0.00    +0.000 A 
ATOM      9  C   UNL     1       0.154   9.165  22.378  0.00  0.00    +0.000 A 
ATOM     10  C   UNL     1       0.784   8.874  21.156  0.00  0.00    +0.000 A 
ATOM     11  C   UNL     1       1.466   7.665  20.952  0.00  0.00    +0.000 A 
ENDBRANCH   1   2
BRANCH   1  12
ATOM     12  C   UNL     1       2.664   5.446  18.446  0.00  0.00    +0.000 C 
BRANCH  12  16
ATOM     13  O   UNL     1       6.083   3.792  15.408  0.00  0.00    +0.000 OA
ATOM     14  C   UNL     1       5.785   4.242  16.509  0.00  0.00    +0.000 A 
ATOM     15  C   UNL     1       4.386   4.583  16.821  0.00  0.00    +0.000 A 
ATOM     16  C   UNL     1       4.066   5.070  18.032  0.00  0.00    +0.000 A 
ATOM     17  O   UNL     1       5.016   5.275  19.025  0.00  0.00    +0.000 OA
ATOM     18  C   UNL     1       6.328   4.965  18.752  0.00  0.00    +0.000 A 
ATOM     19  C   UNL     1       6.782   4.472  17.593  0.00  0.00    +0.000 A 
BRANCH  19  20
ATOM     20  O   UNL     1       8.109   4.173  17.362  0.00  0.00    +0.000 OA
ATOM     21  H   UNL     1       8.447   4.751  16.660  0.00  0.00    +0.000 HD
ENDBRANCH  19  20
ENDBRANCH  12  16
ENDBRANCH   1  12
TORSDOF 4
ENDMDL
