MODEL 1
REMARK VINA RESULT:      -8.2      0.000      0.000
REMARK  Name = 
REMARK  9 active torsions:
REMARK  status: ('A' for Active; 'I' for Inactive)
REMARK    1  A    between atoms: C_1  and  C_2
REMARK    2  A    between atoms: C_2  and  O_3
REMARK    3  A    between atoms: O_3  and  C_4
REMARK    4  A    between atoms: C_4  and  C_5
REMARK    5  A    between atoms: C_5  and  C_6
REMARK    6  A    between atoms: C_6  and  N_7
REMARK    7  A    between atoms: C_10  and  C_12
REMARK    8  A    between atoms: N_20  and  C_21
REMARK    9  A    between atoms: C_21  and  C_22
REMARK                            x       y       z     vdW  Elec       q    Type
REMARK                         _______ _______ _______ _____ _____    ______ ____
ROOT
ATOM      1  N   UNL     1       3.017   5.541  17.794  0.00  0.00    +0.000 N 
ATOM      2  C   UNL     1       3.279   6.825  18.240  0.00  0.00    +0.000 A 
ATOM      3  N   UNL     1       2.434   7.670  18.915  0.00  0.00    +0.000 N 
ATOM      4  C   UNL     1       1.817   7.345  20.107  0.00  0.00    +0.000 C 
ATOM      5  O   UNL     1       1.972   6.284  20.698  0.00  0.00    +0.000 OA
ATOM      6  N   UNL     1       4.428   7.264  17.774  0.00  0.00    +0.000 NA
ATOM      7  C   UNL     1       4.999   6.205  17.126  0.00  0.00    +0.000 A 
ATOM      8  C   UNL     1       6.259   6.123  16.512  0.00  0.00    +0.000 A 
ATOM      9  C   UNL     1       6.625   4.936  15.875  0.00  0.00    +0.000 A 
ATOM     10  C   UNL     1       5.744   3.850  15.840  0.00  0.00    +0.000 A 
ATOM     11  C   UNL     1       4.483   3.914  16.446  0.00  0.00    +0.000 A 
ATOM     12  C   UNL     1       4.140   5.108  17.103  0.00  0.00    +0.000 A 
ATOM     13  H   UNL     1       2.702   8.639  18.823  0.00  0.00    +0.000 HD
ENDROOT
BRANCH   4  14
ATOM     14  C   UNL     1       0.949   8.415  20.598  0.00  0.00    +0.000 A 
ATOM     15  C   UNL     1       0.320   8.482  21.834  0.00  0.00    +0.000 A 
ATOM     16  C   UNL     1      -0.212   9.779  22.011  0.00  0.00    +0.000 A 
ATOM     17  C   UNL     1      -0.853  10.417  23.089  0.00  0.00    +0.000 A 
ATOM     18  C   UNL     1      -1.208  11.761  22.980  0.00  0.00    +0.000 A 
ATOM     19  C   UNL     1      -0.953  12.459  21.802  0.00  0.00    +0.000 A 
ATOM     20  C   UNL     1      -0.354  11.831  20.700  0.00  0.00    +0.000 A 
ATOM     21  C   UNL     1       0.020  10.482  20.829  0.00  0.00    +0.000 A 
ATOM     22  N   UNL     1       0.619   9.596  19.943  0.00  0.00    +0.000 N 
BRANCH  22  23
ATOM     23  C   UNL     1       0.713   9.827  18.506  0.00  0.00    +0.000 C 
ATOM     24  C   UNL     1      -0.616   9.830  17.774  0.00  0.00    +0.000 C 
ENDBRANCH  22  23
ENDBRANCH   4  14
BRANCH   1  25
ATOM     25  C   UNL     1       1.746   4.827  17.828  0.00  0.00    +0.000 C 
BRANCH  25  26
ATOM     26  C   UNL     1       1.909   3.309  17.744  0.00  0.00    +0.000 C 
BRANCH  26  27
ATOM     27  C   UNL     1       1.474   2.583  19.014  0.00  0.00    +0.000 C 
BRANCH  27  28
ATOM     28  O   UNL     1       2.664   2.128  19.660  0.00  0.00    +0.000 OA
BRANCH  28  30
ATOM     29  C   UNL     1       1.535   2.832  21.634  0.00  0.00    +0.000 C 
ATOM     30  C   UNL     1       2.878   2.729  20.935  0.00  0.00    +0.000 C 
ENDBRANCH  28  30
ENDBRANCH  27  28
ENDBRANCH  26  27
ENDBRANCH  25  26
ENDBRANCH   1  25
TORSDOF 7
ENDMDL
MODEL 2
REMARK VINA RESULT:      -8.0      2.469      8.176
REMARK  Name = 
REMARK  9 active torsions:
REMARK  status: ('A' for Active; 'I' for Inactive)
REMARK    1  A    between atoms: C_1  and  C_2
REMARK    2  A    between atoms: C_2  and  O_3
REMARK    3  A    between atoms: O_3  and  C_4
REMARK    4  A    between atoms: C_4  and  C_5
REMARK    5  A    between atoms: C_5  and  C_6
REMARK    6  A    between atoms: C_6  and  N_7
REMARK    7  A    between atoms: C_10  and  C_12
REMARK    8  A    between atoms: N_20  and  C_21
REMARK    9  A    between atoms: C_21  and  C_22
REMARK                            x       y       z     vdW  Elec       q    Type
REMARK                         _______ _______ _______ _____ _____    ______ ____
ROOT
ATOM      1  N   UNL     1       0.158  11.019  19.110  0.00  0.00    +0.000 N 
ATOM      2  C   UNL     1       0.875  10.361  20.094  0.00  0.00    +0.000 A 
ATOM      3  N   UNL     1       1.205   9.029  20.145  0.00  0.00    +0.000 N 
ATOM      4  C   UNL     1       1.903   8.374  19.150  0.00  0.00    +0.000 C 
ATOM      5  O   UNL     1       2.319   8.910  18.130  0.00  0.00    +0.000 OA
ATOM      6  N   UNL     1       1.075  11.137  21.135  0.00  0.00    +0.000 NA
ATOM      7  C   UNL     1       0.607  12.370  20.779  0.00  0.00    +0.000 A 
ATOM      8  C   UNL     1       0.646  13.572  21.506  0.00  0.00    +0.000 A 
ATOM      9  C   UNL     1       0.071  14.717  20.950  0.00  0.00    +0.000 A 
ATOM     10  C   UNL     1      -0.545  14.663  19.696  0.00  0.00    +0.000 A 
ATOM     11  C   UNL     1      -0.594  13.474  18.958  0.00  0.00    +0.000 A 
ATOM     12  C   UNL     1       0.010  12.337  19.521  0.00  0.00    +0.000 A 
ATOM     13  H   UNL     1       1.406   8.717  21.084  0.00  0.00    +0.000 HD
ENDROOT
BRANCH   4  14
ATOM     14  C   UNL     1       2.098   6.955  19.444  0.00  0.00    +0.000 A 
ATOM     15  C   UNL     1       1.686   6.272  20.581  0.00  0.00    +0.000 A 
ATOM     16  C   UNL     1       1.838   4.883  20.365  0.00  0.00    +0.000 A 
ATOM     17  C   UNL     1       1.497   3.749  21.125  0.00  0.00    +0.000 A 
ATOM     18  C   UNL     1       1.717   2.477  20.597  0.00  0.00    +0.000 A 
ATOM     19  C   UNL     1       2.293   2.331  19.337  0.00  0.00    +0.000 A 
ATOM     20  C   UNL     1       2.679   3.447  18.582  0.00  0.00    +0.000 A 
ATOM     21  C   UNL     1       2.432   4.725  19.114  0.00  0.00    +0.000 A 
ATOM     22  N   UNL     1       2.691   6.000  18.626  0.00  0.00    +0.000 N 
BRANCH  22  23
ATOM     23  C   UNL     1       3.600   6.274  17.518  0.00  0.00    +0.000 C 
ATOM     24  C   UNL     1       5.074   6.201  17.873  0.00  0.00    +0.000 C 
ENDBRANCH  22  23
ENDBRANCH   4  14
BRANCH   1  25
ATOM     25  C   UNL     1      -0.519  10.436  17.957  0.00  0.00    +0.000 C 
BRANCH  25  26
ATOM     26  C   UNL     1      -1.945   9.980  18.267  0.00  0.00    +0.000 C 
BRANCH  26  27
ATOM     27  C   UNL     1      -3.004  11.016  17.901  0.00  0.00    +0.000 C 
BRANCH  27  28
ATOM     28  O   UNL     1      -2.805  11.346  16.525  0.00  0.00    +0.000 OA
BRANCH  28  30
ATOM     29  C   UNL     1      -2.961  10.072  14.520  0.00  0.00    +0.000 C 
ATOM     30  C   UNL     1      -3.740  10.714  15.654  0.00  0.00    +0.000 C 
ENDBRANCH  28  30
ENDBRANCH  27  28
ENDBRANCH  26  27
ENDBRANCH  25  26
ENDBRANCH   1  25
TORSDOF 7
ENDMDL
MODEL 3
REMARK VINA RESULT:      -8.0      1.799      2.834
REMARK  Name = 
REMARK  9 active torsions:
REMARK  status: ('A' for Active; 'I' for Inactive)
REMARK    1  A    between atoms: C_1  and  C_2
REMARK    2  A    between atoms: C_2  and  O_3
REMARK    3  A    between atoms: O_3  and  C_4
REMARK    4  A    between atoms: C_4  and  C_5
REMARK    5  A    between atoms: C_5  and  C_6
REMARK    6  A    between atoms: C_6  and  N_7
REMARK    7  A    between atoms: C_10  and  C_12
REMARK    8  A    between atoms: N_20  and  C_21
REMARK    9  A    between atoms: C_21  and  C_22
REMARK                            x       y       z     vdW  Elec       q    Type
REMARK                         _______ _______ _______ _____ _____    ______ ____
ROOT
ATOM      1  N   UNL     1       3.314   6.306  18.637  0.00  0.00    +0.000 N 
ATOM      2  C   UNL     1       3.165   7.505  17.963  0.00  0.00    +0.000 A 
ATOM      3  N   UNL     1       2.071   8.334  17.952  0.00  0.00    +0.000 N 
ATOM      4  C   UNL     1       1.501   8.865  19.093  0.00  0.00    +0.000 C 
ATOM      5  O   UNL     1       1.919   8.673  20.228  0.00  0.00    +0.000 OA
ATOM      6  N   UNL     1       4.164   7.711  17.134  0.00  0.00    +0.000 NA
ATOM      7  C   UNL     1       5.057   6.702  17.365  0.00  0.00    +0.000 A 
ATOM      8  C   UNL     1       6.323   6.498  16.792  0.00  0.00    +0.000 A 
ATOM      9  C   UNL     1       7.056   5.367  17.160  0.00  0.00    +0.000 A 
ATOM     10  C   UNL     1       6.530   4.449  18.073  0.00  0.00    +0.000 A 
ATOM     11  C   UNL     1       5.270   4.636  18.653  0.00  0.00    +0.000 A 
ATOM     12  C   UNL     1       4.555   5.791  18.291  0.00  0.00    +0.000 A 
ATOM     13  H   UNL     1       2.052   8.939  17.144  0.00  0.00    +0.000 HD
ENDROOT
BRANCH   4  14
ATOM     14  C   UNL     1       0.331   9.693  18.801  0.00  0.00    +0.000 A 
ATOM     15  C   UNL     1      -0.553   9.547  17.740  0.00  0.00    +0.000 A 
ATOM     16  C   UNL     1      -1.676  10.377  17.959  0.00  0.00    +0.000 A 
ATOM     17  C   UNL     1      -2.891  10.552  17.270  0.00  0.00    +0.000 A 
ATOM     18  C   UNL     1      -3.855  11.417  17.787  0.00  0.00    +0.000 A 
ATOM     19  C   UNL     1      -3.607  12.121  18.962  0.00  0.00    +0.000 A 
ATOM     20  C   UNL     1      -2.386  11.993  19.641  0.00  0.00    +0.000 A 
ATOM     21  C   UNL     1      -1.430  11.102  19.124  0.00  0.00    +0.000 A 
ATOM     22  N   UNL     1      -0.154  10.758  19.551  0.00  0.00    +0.000 N 
BRANCH  22  23
ATOM     23  C   UNL     1       0.610  11.530  20.525  0.00  0.00    +0.000 C 
ATOM     24  C   UNL     1       1.435  12.659  19.936  0.00  0.00    +0.000 C 
ENDBRANCH  22  23
ENDBRANCH   4  14
BRANCH   1  25
ATOM     25  C   UNL     1       2.304   5.578  19.398  0.00  0.00    +0.000 C 
BRANCH  25  26
ATOM     26  C   UNL     1       1.603   4.494  18.579  0.00  0.00    +0.000 C 
BRANCH  26  27
ATOM     27  C   UNL     1       1.125   3.314  19.421  0.00  0.00    +0.000 C 
BRANCH  27  28
ATOM     28  O   UNL     1       1.329   2.136  18.638  0.00  0.00    +0.000 OA
BRANCH  28  30
ATOM     29  C   UNL     1       3.586   1.409  18.434  0.00  0.00    +0.000 C 
ATOM     30  C   UNL     1       2.472   2.214  17.790  0.00  0.00    +0.000 C 
ENDBRANCH  28  30
ENDBRANCH  27  28
ENDBRANCH  26  27
ENDBRANCH  25  26
ENDBRANCH   1  25
TORSDOF 7
ENDMDL
MODEL 4
REMARK VINA RESULT:      -7.8      2.519      8.181
REMARK  Name = 
REMARK  9 active torsions:
REMARK  status: ('A' for Active; 'I' for Inactive)
REMARK    1  A    between atoms: C_1  and  C_2
REMARK    2  A    between atoms: C_2  and  O_3
REMARK    3  A    between atoms: O_3  and  C_4
REMARK    4  A    between atoms: C_4  and  C_5
REMARK    5  A    between atoms: C_5  and  C_6
REMARK    6  A    between atoms: C_6  and  N_7
REMARK    7  A    between atoms: C_10  and  C_12
REMARK    8  A    between atoms: N_20  and  C_21
REMARK    9  A    between atoms: C_21  and  C_22
REMARK                            x       y       z     vdW  Elec       q    Type
REMARK                         _______ _______ _______ _____ _____    ______ ____
ROOT
ATOM      1  N   UNL     1       0.230  10.865  19.004  0.00  0.00    +0.000 N 
ATOM      2  C   UNL     1       0.875  10.208  20.037  0.00  0.00    +0.000 A 
ATOM      3  N   UNL     1       1.213   8.879  20.106  0.00  0.00    +0.000 N 
ATOM      4  C   UNL     1       1.993   8.237  19.165  0.00  0.00    +0.000 C 
ATOM      5  O   UNL     1       2.481   8.782  18.183  0.00  0.00    +0.000 OA
ATOM      6  N   UNL     1       0.987  10.980  21.095  0.00  0.00    +0.000 NA
ATOM      7  C   UNL     1       0.535  12.211  20.709  0.00  0.00    +0.000 A 
ATOM      8  C   UNL     1       0.506  13.408  21.443  0.00  0.00    +0.000 A 
ATOM      9  C   UNL     1      -0.036  14.551  20.851  0.00  0.00    +0.000 A 
ATOM     10  C   UNL     1      -0.553  14.498  19.553  0.00  0.00    +0.000 A 
ATOM     11  C   UNL     1      -0.533  13.313  18.807  0.00  0.00    +0.000 A 
ATOM     12  C   UNL     1       0.037  12.178  19.409  0.00  0.00    +0.000 A 
ATOM     13  H   UNL     1       1.344   8.563  21.057  0.00  0.00    +0.000 HD
ENDROOT
BRANCH   4  14
ATOM     14  C   UNL     1       2.179   6.817  19.466  0.00  0.00    +0.000 A 
ATOM     15  C   UNL     1       1.733   6.135  20.590  0.00  0.00    +0.000 A 
ATOM     16  C   UNL     1       1.891   4.746  20.380  0.00  0.00    +0.000 A 
ATOM     17  C   UNL     1       1.527   3.613  21.130  0.00  0.00    +0.000 A 
ATOM     18  C   UNL     1       1.763   2.340  20.610  0.00  0.00    +0.000 A 
ATOM     19  C   UNL     1       2.377   2.194  19.369  0.00  0.00    +0.000 A 
ATOM     20  C   UNL     1       2.786   3.310  18.624  0.00  0.00    +0.000 A 
ATOM     21  C   UNL     1       2.523   4.588  19.148  0.00  0.00    +0.000 A 
ATOM     22  N   UNL     1       2.796   5.862  18.667  0.00  0.00    +0.000 N 
BRANCH  22  23
ATOM     23  C   UNL     1       3.739   6.136  17.588  0.00  0.00    +0.000 C 
ATOM     24  C   UNL     1       5.201   6.032  17.979  0.00  0.00    +0.000 C 
ENDBRANCH  22  23
ENDBRANCH   4  14
BRANCH   1  25
ATOM     25  C   UNL     1      -0.351  10.282  17.799  0.00  0.00    +0.000 C 
BRANCH  25  26
ATOM     26  C   UNL     1      -1.860  10.065  17.906  0.00  0.00    +0.000 C 
BRANCH  26  27
ATOM     27  C   UNL     1      -2.553   9.955  16.550  0.00  0.00    +0.000 C 
BRANCH  27  28
ATOM     28  O   UNL     1      -3.901  10.392  16.737  0.00  0.00    +0.000 OA
BRANCH  28  30
ATOM     29  C   UNL     1      -5.416  12.077  17.466  0.00  0.00    +0.000 C 
ATOM     30  C   UNL     1      -4.013  11.516  17.606  0.00  0.00    +0.000 C 
ENDBRANCH  28  30
ENDBRANCH  27  28
ENDBRANCH  26  27
ENDBRANCH  25  26
ENDBRANCH   1  25
TORSDOF 7
ENDMDL
MODEL 5
REMARK VINA RESULT:      -7.8      2.614      4.758
REMARK  Name = 
REMARK  9 active torsions:
REMARK  status: ('A' for Active; 'I' for Inactive)
REMARK    1  A    between atoms: C_1  and  C_2
REMARK    2  A    between atoms: C_2  and  O_3
REMARK    3  A    between atoms: O_3  and  C_4
REMARK    4  A    between atoms: C_4  and  C_5
REMARK    5  A    between atoms: C_5  and  C_6
REMARK    6  A    between atoms: C_6  and  N_7
REMARK    7  A    between atoms: C_10  and  C_12
REMARK    8  A    between atoms: N_20  and  C_21
REMARK    9  A    between atoms: C_21  and  C_22
REMARK                            x       y       z     vdW  Elec       q    Type
REMARK                         _______ _______ _______ _____ _____    ______ ____
ROOT
ATOM      1  N   UNL     1       2.863   6.385  18.730  0.00  0.00    +0.000 N 
ATOM      2  C   UNL     1       2.067   7.142  19.572  0.00  0.00    +0.000 A 
ATOM      3  N   UNL     1       1.867   8.500  19.545  0.00  0.00    +0.000 N 
ATOM      4  C   UNL     1       1.406   9.185  18.438  0.00  0.00    +0.000 C 
ATOM      5  O   UNL     1       1.108   8.657  17.374  0.00  0.00    +0.000 OA
ATOM      6  N   UNL     1       1.625   6.424  20.581  0.00  0.00    +0.000 NA
ATOM      7  C   UNL     1       2.020   5.140  20.327  0.00  0.00    +0.000 A 
ATOM      8  C   UNL     1       1.745   3.973  21.059  0.00  0.00    +0.000 A 
ATOM      9  C   UNL     1       2.284   2.760  20.625  0.00  0.00    +0.000 A 
ATOM     10  C   UNL     1       3.096   2.713  19.487  0.00  0.00    +0.000 A 
ATOM     11  C   UNL     1       3.381   3.866  18.746  0.00  0.00    +0.000 A 
ATOM     12  C   UNL     1       2.811   5.074  19.183  0.00  0.00    +0.000 A 
ATOM     13  H   UNL     1       1.550   8.861  20.434  0.00  0.00    +0.000 HD
ENDROOT
BRANCH   4  14
ATOM     14  C   UNL     1       1.309  10.625  18.672  0.00  0.00    +0.000 A 
ATOM     15  C   UNL     1       2.345  11.550  18.642  0.00  0.00    +0.000 A 
ATOM     16  C   UNL     1       1.800  12.854  18.665  0.00  0.00    +0.000 A 
ATOM     17  C   UNL     1       2.371  14.136  18.561  0.00  0.00    +0.000 A 
ATOM     18  C   UNL     1       1.542  15.258  18.548  0.00  0.00    +0.000 A 
ATOM     19  C   UNL     1       0.162  15.110  18.663  0.00  0.00    +0.000 A 
ATOM     20  C   UNL     1      -0.423  13.844  18.811  0.00  0.00    +0.000 A 
ATOM     21  C   UNL     1       0.420  12.719  18.801  0.00  0.00    +0.000 A 
ATOM     22  N   UNL     1       0.156  11.360  18.924  0.00  0.00    +0.000 N 
BRANCH  22  23
ATOM     23  C   UNL     1      -1.106  10.822  19.418  0.00  0.00    +0.000 C 
ATOM     24  C   UNL     1      -2.097  10.430  18.337  0.00  0.00    +0.000 C 
ENDBRANCH  22  23
ENDBRANCH   4  14
BRANCH   1  25
ATOM     25  C   UNL     1       3.771   6.862  17.693  0.00  0.00    +0.000 C 
BRANCH  25  26
ATOM     26  C   UNL     1       5.222   6.442  17.928  0.00  0.00    +0.000 C 
BRANCH  26  27
ATOM     27  C   UNL     1       6.031   6.314  16.640  0.00  0.00    +0.000 C 
BRANCH  27  28
ATOM     28  O   UNL     1       6.978   7.384  16.637  0.00  0.00    +0.000 OA
BRANCH  28  30
ATOM     29  C   UNL     1       8.224   8.884  18.002  0.00  0.00    +0.000 C 
ATOM     30  C   UNL     1       7.755   7.451  17.830  0.00  0.00    +0.000 C 
ENDBRANCH  28  30
ENDBRANCH  27  28
ENDBRANCH  26  27
ENDBRANCH  25  26
ENDBRANCH   1  25
TORSDOF 7
ENDMDL
MODEL 6
REMARK VINA RESULT:      -7.8      1.608      2.559
REMARK  Name = 
REMARK  9 active torsions:
REMARK  status: ('A' for Active; 'I' for Inactive)
REMARK    1  A    between atoms: C_1  and  C_2
REMARK    2  A    between atoms: C_2  and  O_3
REMARK    3  A    between atoms: O_3  and  C_4
REMARK    4  A    between atoms: C_4  and  C_5
REMARK    5  A    between atoms: C_5  and  C_6
REMARK    6  A    between atoms: C_6  and  N_7
REMARK    7  A    between atoms: C_10  and  C_12
REMARK    8  A    between atoms: N_20  and  C_21
REMARK    9  A    between atoms: C_21  and  C_22
REMARK                            x       y       z     vdW  Elec       q    Type
REMARK                         _______ _______ _______ _____ _____    ______ ____
ROOT
ATOM      1  N   UNL     1       3.281   6.274  18.485  0.00  0.00    +0.000 N 
ATOM      2  C   UNL     1       3.168   7.527  17.907  0.00  0.00    +0.000 A 
ATOM      3  N   UNL     1       2.089   8.374  17.942  0.00  0.00    +0.000 N 
ATOM      4  C   UNL     1       1.503   8.821  19.111  0.00  0.00    +0.000 C 
ATOM      5  O   UNL     1       1.892   8.529  20.234  0.00  0.00    +0.000 OA
ATOM      6  N   UNL     1       4.189   7.780  17.119  0.00  0.00    +0.000 NA
ATOM      7  C   UNL     1       5.058   6.739  17.285  0.00  0.00    +0.000 A 
ATOM      8  C   UNL     1       6.333   6.558  16.724  0.00  0.00    +0.000 A 
ATOM      9  C   UNL     1       7.038   5.388  17.012  0.00  0.00    +0.000 A 
ATOM     10  C   UNL     1       6.477   4.408  17.837  0.00  0.00    +0.000 A 
ATOM     11  C   UNL     1       5.207   4.571  18.404  0.00  0.00    +0.000 A 
ATOM     12  C   UNL     1       4.521   5.765  18.123  0.00  0.00    +0.000 A 
ATOM     13  H   UNL     1       2.098   9.043  17.186  0.00  0.00    +0.000 HD
ENDROOT
BRANCH   4  14
ATOM     14  C   UNL     1       0.354   9.692  18.863  0.00  0.00    +0.000 A 
ATOM     15  C   UNL     1      -0.546   9.610  17.809  0.00  0.00    +0.000 A 
ATOM     16  C   UNL     1      -1.642  10.463  18.072  0.00  0.00    +0.000 A 
ATOM     17  C   UNL     1      -2.859  10.697  17.406  0.00  0.00    +0.000 A 
ATOM     18  C   UNL     1      -3.792  11.571  17.966  0.00  0.00    +0.000 A 
ATOM     19  C   UNL     1      -3.508  12.225  19.162  0.00  0.00    +0.000 A 
ATOM     20  C   UNL     1      -2.284  12.038  19.820  0.00  0.00    +0.000 A 
ATOM     21  C   UNL     1      -1.361  11.139  19.259  0.00  0.00    +0.000 A 
ATOM     22  N   UNL     1      -0.090  10.743  19.657  0.00  0.00    +0.000 N 
BRANCH  22  23
ATOM     23  C   UNL     1       0.708  11.459  20.647  0.00  0.00    +0.000 C 
ATOM     24  C   UNL     1       1.543  12.596  20.089  0.00  0.00    +0.000 C 
ENDBRANCH  22  23
ENDBRANCH   4  14
BRANCH   1  25
ATOM     25  C   UNL     1       2.243   5.505  19.162  0.00  0.00    +0.000 C 
BRANCH  25  26
ATOM     26  C   UNL     1       1.715   4.342  18.324  0.00  0.00    +0.000 C 
BRANCH  26  27
ATOM     27  C   UNL     1       1.518   3.058  19.126  0.00  0.00    +0.000 C 
BRANCH  27  28
ATOM     28  O   UNL     1       2.783   2.733  19.705  0.00  0.00    +0.000 OA
BRANCH  28  30
ATOM     29  C   UNL     1       1.300   2.792  21.566  0.00  0.00    +0.000 C 
ATOM     30  C   UNL     1       2.712   2.478  21.106  0.00  0.00    +0.000 C 
ENDBRANCH  28  30
ENDBRANCH  27  28
ENDBRANCH  26  27
ENDBRANCH  25  26
ENDBRANCH   1  25
TORSDOF 7
ENDMDL
MODEL 7
REMARK VINA RESULT:      -7.8      1.127      2.135
REMARK  Name = 
REMARK  9 active torsions:
REMARK  status: ('A' for Active; 'I' for Inactive)
REMARK    1  A    between atoms: C_1  and  C_2
REMARK    2  A    between atoms: C_2  and  O_3
REMARK    3  A    between atoms: O_3  and  C_4
REMARK    4  A    between atoms: C_4  and  C_5
REMARK    5  A    between atoms: C_5  and  C_6
REMARK    6  A    between atoms: C_6  and  N_7
REMARK    7  A    between atoms: C_10  and  C_12
REMARK    8  A    between atoms: N_20  and  C_21
REMARK    9  A    between atoms: C_21  and  C_22
REMARK                            x       y       z     vdW  Elec       q    Type
REMARK                         _______ _______ _______ _____ _____    ______ ____
ROOT
ATOM      1  N   UNL     1       3.008   5.824  17.705  0.00  0.00    +0.000 N 
ATOM      2  C   UNL     1       3.304   7.172  17.813  0.00  0.00    +0.000 A 
ATOM      3  N   UNL     1       2.470   8.186  18.212  0.00  0.00    +0.000 N 
ATOM      4  C   UNL     1       1.804   8.200  19.422  0.00  0.00    +0.000 C 
ATOM      5  O   UNL     1       1.900   7.325  20.274  0.00  0.00    +0.000 OA
ATOM      6  N   UNL     1       4.482   7.442  17.296  0.00  0.00    +0.000 NA
ATOM      7  C   UNL     1       5.033   6.235  16.968  0.00  0.00    +0.000 A 
ATOM      8  C   UNL     1       6.308   5.962  16.447  0.00  0.00    +0.000 A 
ATOM      9  C   UNL     1       6.649   4.640  16.155  0.00  0.00    +0.000 A 
ATOM     10  C   UNL     1       5.730   3.608  16.366  0.00  0.00    +0.000 A 
ATOM     11  C   UNL     1       4.454   3.862  16.884  0.00  0.00    +0.000 A 
ATOM     12  C   UNL     1       4.135   5.195  17.195  0.00  0.00    +0.000 A 
ATOM     13  H   UNL     1       2.777   9.090  17.883  0.00  0.00    +0.000 HD
ENDROOT
BRANCH   4  14
ATOM     14  C   UNL     1       0.961   9.384  19.584  0.00  0.00    +0.000 A 
ATOM     15  C   UNL     1       0.375  10.138  18.576  0.00  0.00    +0.000 A 
ATOM     16  C   UNL     1      -0.557  11.031  19.151  0.00  0.00    +0.000 A 
ATOM     17  C   UNL     1      -1.481  11.941  18.603  0.00  0.00    +0.000 A 
ATOM     18  C   UNL     1      -2.334  12.648  19.451  0.00  0.00    +0.000 A 
ATOM     19  C   UNL     1      -2.253  12.474  20.830  0.00  0.00    +0.000 A 
ATOM     20  C   UNL     1      -1.311  11.604  21.398  0.00  0.00    +0.000 A 
ATOM     21  C   UNL     1      -0.471  10.880  20.534  0.00  0.00    +0.000 A 
ATOM     22  N   UNL     1       0.542   9.961  20.777  0.00  0.00    +0.000 N 
BRANCH  22  23
ATOM     23  C   UNL     1       1.175   9.779  22.079  0.00  0.00    +0.000 C 
ATOM     24  C   UNL     1       0.238   9.325  23.183  0.00  0.00    +0.000 C 
ENDBRANCH  22  23
ENDBRANCH   4  14
BRANCH   1  25
ATOM     25  C   UNL     1       1.710   5.178  17.871  0.00  0.00    +0.000 C 
BRANCH  25  26
ATOM     26  C   UNL     1       1.589   4.405  19.184  0.00  0.00    +0.000 C 
BRANCH  26  27
ATOM     27  C   UNL     1       1.215   2.938  18.990  0.00  0.00    +0.000 C 
BRANCH  27  28
ATOM     28  O   UNL     1       2.400   2.174  19.217  0.00  0.00    +0.000 OA
BRANCH  28  30
ATOM     29  C   UNL     1       4.588   2.169  20.156  0.00  0.00    +0.000 C 
ATOM     30  C   UNL     1       3.151   2.620  20.344  0.00  0.00    +0.000 C 
ENDBRANCH  28  30
ENDBRANCH  27  28
ENDBRANCH  26  27
ENDBRANCH  25  26
ENDBRANCH   1  25
TORSDOF 7
ENDMDL
MODEL 8
REMARK VINA RESULT:      -7.7      0.848      1.038
REMARK  Name = 
REMARK  9 active torsions:
REMARK  status: ('A' for Active; 'I' for Inactive)
REMARK    1  A    between atoms: C_1  and  C_2
REMARK    2  A    between atoms: C_2  and  O_3
REMARK    3  A    between atoms: O_3  and  C_4
REMARK    4  A    between atoms: C_4  and  C_5
REMARK    5  A    between atoms: C_5  and  C_6
REMARK    6  A    between atoms: C_6  and  N_7
REMARK    7  A    between atoms: C_10  and  C_12
REMARK    8  A    between atoms: N_20  and  C_21
REMARK    9  A    between atoms: C_21  and  C_22
REMARK                            x       y       z     vdW  Elec       q    Type
REMARK                         _______ _______ _______ _____ _____    ______ ____
ROOT
ATOM      1  N   UNL     1       2.528   5.803  18.225  0.00  0.00    +0.000 N 
ATOM      2  C   UNL     1       2.759   7.156  18.406  0.00  0.00    +0.000 A 
ATOM      3  N   UNL     1       1.948   8.071  19.030  0.00  0.00    +0.000 N 
ATOM      4  C   UNL     1       1.502   7.938  20.331  0.00  0.00    +0.000 C 
ATOM      5  O   UNL     1       1.795   7.006  21.070  0.00  0.00    +0.000 OA
ATOM      6  N   UNL     1       3.812   7.553  17.727  0.00  0.00    +0.000 NA
ATOM      7  C   UNL     1       4.368   6.421  17.202  0.00  0.00    +0.000 A 
ATOM      8  C   UNL     1       5.548   6.284  16.452  0.00  0.00    +0.000 A 
ATOM      9  C   UNL     1       5.911   5.019  15.986  0.00  0.00    +0.000 A 
ATOM     10  C   UNL     1       5.103   3.908  16.252  0.00  0.00    +0.000 A 
ATOM     11  C   UNL     1       3.924   4.026  16.997  0.00  0.00    +0.000 A 
ATOM     12  C   UNL     1       3.586   5.302  17.478  0.00  0.00    +0.000 A 
ATOM     13  H   UNL     1       2.140   9.019  18.740  0.00  0.00    +0.000 HD
ENDROOT
BRANCH   4  14
ATOM     14  C   UNL     1       0.632   9.040  20.739  0.00  0.00    +0.000 A 
ATOM     15  C   UNL     1      -0.014   9.188  21.960  0.00  0.00    +0.000 A 
ATOM     16  C   UNL     1      -0.542  10.497  22.045  0.00  0.00    +0.000 A 
ATOM     17  C   UNL     1      -1.195  11.204  23.072  0.00  0.00    +0.000 A 
ATOM     18  C   UNL     1      -1.543  12.540  22.871  0.00  0.00    +0.000 A 
ATOM     19  C   UNL     1      -1.268  13.161  21.655  0.00  0.00    +0.000 A 
ATOM     20  C   UNL     1      -0.656  12.461  20.605  0.00  0.00    +0.000 A 
ATOM     21  C   UNL     1      -0.290  11.121  20.825  0.00  0.00    +0.000 A 
ATOM     22  N   UNL     1       0.317  10.178  20.006  0.00  0.00    +0.000 N 
BRANCH  22  23
ATOM     23  C   UNL     1       0.432  10.317  18.558  0.00  0.00    +0.000 C 
ATOM     24  C   UNL     1      -0.823   9.964  17.783  0.00  0.00    +0.000 C 
ENDBRANCH  22  23
ENDBRANCH   4  14
BRANCH   1  25
ATOM     25  C   UNL     1       1.319   5.053  18.545  0.00  0.00    +0.000 C 
BRANCH  25  26
ATOM     26  C   UNL     1       1.461   4.198  19.805  0.00  0.00    +0.000 C 
BRANCH  26  27
ATOM     27  C   UNL     1       1.056   2.741  19.595  0.00  0.00    +0.000 C 
BRANCH  27  28
ATOM     28  O   UNL     1       2.255   1.965  19.654  0.00  0.00    +0.000 OA
BRANCH  28  30
ATOM     29  C   UNL     1       4.597   2.165  20.031  0.00  0.00    +0.000 C 
ATOM     30  C   UNL     1       3.215   2.481  20.573  0.00  0.00    +0.000 C 
ENDBRANCH  28  30
ENDBRANCH  27  28
ENDBRANCH  26  27
ENDBRANCH  25  26
ENDBRANCH   1  25
TORSDOF 7
ENDMDL
MODEL 9
REMARK VINA RESULT:      -7.7      2.501      4.616
REMARK  Name = 
REMARK  9 active torsions:
REMARK  status: ('A' for Active; 'I' for Inactive)
REMARK    1  A    between atoms: C_1  and  C_2
REMARK    2  A    between atoms: C_2  and  O_3
REMARK    3  A    between atoms: O_3  and  C_4
REMARK    4  A    between atoms: C_4  and  C_5
REMARK    5  A    between atoms: C_5  and  C_6
REMARK    6  A    between atoms: C_6  and  N_7
REMARK    7  A    between atoms: C_10  and  C_12
REMARK    8  A    between atoms: N_20  and  C_21
REMARK    9  A    between atoms: C_21  and  C_22
REMARK                            x       y       z     vdW  Elec       q    Type
REMARK                         _______ _______ _______ _____ _____    ______ ____
ROOT
ATOM      1  N   UNL     1       3.229   6.440  19.046  0.00  0.00    +0.000 N 
ATOM      2  C   UNL     1       2.208   7.098  19.709  0.00  0.00    +0.000 A 
ATOM      3  N   UNL     1       1.901   8.436  19.663  0.00  0.00    +0.000 N 
ATOM      4  C   UNL     1       1.631   9.121  18.495  0.00  0.00    +0.000 C 
ATOM      5  O   UNL     1       1.616   8.610  17.382  0.00  0.00    +0.000 OA
ATOM      6  N   UNL     1       1.624   6.311  20.584  0.00  0.00    +0.000 NA
ATOM      7  C   UNL     1       2.174   5.073  20.399  0.00  0.00    +0.000 A 
ATOM      8  C   UNL     1       1.851   3.862  21.033  0.00  0.00    +0.000 A 
ATOM      9  C   UNL     1       2.574   2.714  20.705  0.00  0.00    +0.000 A 
ATOM     10  C   UNL     1       3.612   2.774  19.770  0.00  0.00    +0.000 A 
ATOM     11  C   UNL     1       3.948   3.972  19.129  0.00  0.00    +0.000 A 
ATOM     12  C   UNL     1       3.195   5.114  19.453  0.00  0.00    +0.000 A 
ATOM     13  H   UNL     1       1.371   8.738  20.468  0.00  0.00    +0.000 HD
ENDROOT
BRANCH   4  14
ATOM     14  C   UNL     1       1.361  10.540  18.728  0.00  0.00    +0.000 A 
ATOM     15  C   UNL     1       2.296  11.559  18.859  0.00  0.00    +0.000 A 
ATOM     16  C   UNL     1       1.628  12.804  18.817  0.00  0.00    +0.000 A 
ATOM     17  C   UNL     1       2.080  14.137  18.811  0.00  0.00    +0.000 A 
ATOM     18  C   UNL     1       1.156  15.174  18.690  0.00  0.00    +0.000 A 
ATOM     19  C   UNL     1      -0.205  14.894  18.601  0.00  0.00    +0.000 A 
ATOM     20  C   UNL     1      -0.679  13.575  18.648  0.00  0.00    +0.000 A 
ATOM     21  C   UNL     1       0.262  12.535  18.748  0.00  0.00    +0.000 A 
ATOM     22  N   UNL     1       0.118  11.155  18.817  0.00  0.00    +0.000 N 
BRANCH  22  23
ATOM     23  C   UNL     1      -1.144  10.487  19.116  0.00  0.00    +0.000 C 
ATOM     24  C   UNL     1      -1.974  10.122  17.899  0.00  0.00    +0.000 C 
ENDBRANCH  22  23
ENDBRANCH   4  14
BRANCH   1  25
ATOM     25  C   UNL     1       4.294   7.026  18.239  0.00  0.00    +0.000 C 
BRANCH  25  26
ATOM     26  C   UNL     1       4.388   6.420  16.839  0.00  0.00    +0.000 C 
BRANCH  26  27
ATOM     27  C   UNL     1       5.786   5.919  16.489  0.00  0.00    +0.000 C 
BRANCH  27  28
ATOM     28  O   UNL     1       5.809   5.706  15.076  0.00  0.00    +0.000 OA
BRANCH  28  30
ATOM     29  C   UNL     1       6.149   3.950  13.506  0.00  0.00    +0.000 C 
ATOM     30  C   UNL     1       6.750   4.714  14.672  0.00  0.00    +0.000 C 
ENDBRANCH  28  30
ENDBRANCH  27  28
ENDBRANCH  26  27
ENDBRANCH  25  26
ENDBRANCH   1  25
TORSDOF 7
ENDMDL
