MODEL 1
REMARK VINA RESULT:      -8.8      0.000      0.000
REMARK  Name = 
REMARK  3 active torsions:
REMARK  status: ('A' for Active; 'I' for Inactive)
REMARK    1  A    between atoms: C_1  and  C_2
REMARK    2  A    between atoms: C_14  and  C_15
REMARK    3  A    between atoms: N_26  and  C_27
REMARK                            x       y       z     vdW  Elec       q    Type
REMARK                         _______ _______ _______ _____ _____    ______ ____
ROOT
ATOM      1  C   UNL     1      -2.045  11.127  22.641  0.00  0.00    +0.000 C 
ATOM      2  C   UNL     1      -1.438  12.071  21.624  0.00  0.00    +0.000 C 
ATOM      3  O   UNL     1      -2.272  12.115  20.457  0.00  0.00    +0.000 OA
ATOM      4  C   UNL     1      -1.608  11.422  19.395  0.00  0.00    +0.000 C 
ATOM      5  C   UNL     1      -1.680  12.330  18.200  0.00  0.00    +0.000 C 
ATOM      6  C   UNL     1      -2.151  11.952  17.002  0.00  0.00    +0.000 C 
ATOM      7  C   UNL     1      -2.656  10.576  16.797  0.00  0.00    +0.000 C 
ATOM      8  O   UNL     1      -2.972  10.174  15.686  0.00  0.00    +0.000 OA
ATOM      9  C   UNL     1      -2.793   9.718  17.997  0.00  0.00    +0.000 C 
ATOM     10  C   UNL     1      -2.312  10.118  19.184  0.00  0.00    +0.000 C 
ATOM     11  N   UNL     1      -0.252  11.256  19.800  0.00  0.00    +0.000 N 
ATOM     12  C   UNL     1       0.777  10.586  19.159  0.00  0.00    +0.000 A 
ATOM     13  N   UNL     1       0.897   9.275  19.025  0.00  0.00    +0.000 NA
ATOM     14  C   UNL     1       2.059   9.111  18.297  0.00  0.00    +0.000 A 
ATOM     15  N   UNL     1       2.587  10.263  17.881  0.00  0.00    +0.000 NA
ATOM     16  N   UNL     1       1.837  11.208  18.494  0.00  0.00    +0.000 N 
ATOM     17  C   UNL     1      -0.095  11.582  21.135  0.00  0.00    +0.000 C 
ATOM     18  O   UNL     1       0.927  11.539  21.802  0.00  0.00    +0.000 OA
ENDROOT
BRANCH  14  19
ATOM     19  C   UNL     1       2.713   7.825  18.020  0.00  0.00    +0.000 A 
ATOM     20  C   UNL     1       3.955   7.761  17.383  0.00  0.00    +0.000 A 
ATOM     21  C   UNL     1       4.525   6.521  17.058  0.00  0.00    +0.000 A 
ATOM     22  C   UNL     1       3.868   5.312  17.357  0.00  0.00    +0.000 A 
ATOM     23  C   UNL     1       4.423   4.063  17.011  0.00  0.00    +0.000 A 
ATOM     24  C   UNL     1       3.754   2.872  17.303  0.00  0.00    +0.000 A 
ATOM     25  C   UNL     1       2.523   2.914  17.946  0.00  0.00    +0.000 A 
ATOM     26  C   UNL     1       1.959   4.143  18.296  0.00  0.00    +0.000 A 
ATOM     27  C   UNL     1       2.619   5.354  18.006  0.00  0.00    +0.000 A 
ATOM     28  C   UNL     1       2.065   6.610  18.333  0.00  0.00    +0.000 A 
ENDBRANCH  14  19
BRANCH  16  29
ATOM     29  C   UNL     1       2.184  12.579  18.308  0.00  0.00    +0.000 A 
ATOM     30  C   UNL     1       3.463  13.005  17.949  0.00  0.00    +0.000 A 
ATOM     31  C   UNL     1       3.745  14.366  17.809  0.00  0.00    +0.000 A 
ATOM     32  C   UNL     1       2.757  15.329  18.041  0.00  0.00    +0.000 A 
ATOM     33  C   UNL     1       3.038  16.698  17.935  0.00  0.00    +0.000 A 
ATOM     34  C   UNL     1       2.046  17.645  18.192  0.00  0.00    +0.000 A 
ATOM     35  C   UNL     1       0.761  17.235  18.539  0.00  0.00    +0.000 A 
ATOM     36  C   UNL     1       0.465  15.877  18.627  0.00  0.00    +0.000 A 
ATOM     37  C   UNL     1       1.456  14.913  18.389  0.00  0.00    +0.000 A 
ATOM     38  C   UNL     1       1.179  13.546  18.498  0.00  0.00    +0.000 A 
ENDBRANCH  16  29
TORSDOF 2
ENDMDL
MODEL 2
REMARK VINA RESULT:      -8.7      0.607      1.474
REMARK  Name = 
REMARK  3 active torsions:
REMARK  status: ('A' for Active; 'I' for Inactive)
REMARK    1  A    between atoms: C_1  and  C_2
REMARK    2  A    between atoms: C_14  and  C_15
REMARK    3  A    between atoms: N_26  and  C_27
REMARK                            x       y       z     vdW  Elec       q    Type
REMARK                         _______ _______ _______ _____ _____    ______ ____
ROOT
ATOM      1  C   UNL     1      -1.791  10.961  22.710  0.00  0.00    +0.000 C 
ATOM      2  C   UNL     1      -1.206  11.925  21.698  0.00  0.00    +0.000 C 
ATOM      3  O   UNL     1      -2.081  12.013  20.564  0.00  0.00    +0.000 OA
ATOM      4  C   UNL     1      -1.465  11.341  19.459  0.00  0.00    +0.000 C 
ATOM      5  C   UNL     1      -1.565  12.284  18.293  0.00  0.00    +0.000 C 
ATOM      6  C   UNL     1      -2.084  11.947  17.103  0.00  0.00    +0.000 C 
ATOM      7  C   UNL     1      -2.617  10.584  16.878  0.00  0.00    +0.000 C 
ATOM      8  O   UNL     1      -2.978  10.218  15.768  0.00  0.00    +0.000 OA
ATOM      9  C   UNL     1      -2.725   9.695  18.058  0.00  0.00    +0.000 C 
ATOM     10  C   UNL     1      -2.196  10.054  19.238  0.00  0.00    +0.000 C 
ATOM     11  N   UNL     1      -0.098  11.145  19.810  0.00  0.00    +0.000 N 
ATOM     12  C   UNL     1       0.898  10.479  19.115  0.00  0.00    +0.000 A 
ATOM     13  N   UNL     1       0.993   9.171  18.941  0.00  0.00    +0.000 NA
ATOM     14  C   UNL     1       2.126   9.011  18.167  0.00  0.00    +0.000 A 
ATOM     15  N   UNL     1       2.656  10.166  17.764  0.00  0.00    +0.000 NA
ATOM     16  N   UNL     1       1.943  11.105  18.430  0.00  0.00    +0.000 N 
ATOM     17  C   UNL     1       0.111  11.431  21.148  0.00  0.00    +0.000 C 
ATOM     18  O   UNL     1       1.156  11.355  21.776  0.00  0.00    +0.000 OA
ENDROOT
BRANCH  14  19
ATOM     19  C   UNL     1       2.750   7.724  17.831  0.00  0.00    +0.000 A 
ATOM     20  C   UNL     1       2.217   6.516  18.285  0.00  0.00    +0.000 A 
ATOM     21  C   UNL     1       2.873   5.304  18.017  0.00  0.00    +0.000 A 
ATOM     22  C   UNL     1       4.079   5.268  17.293  0.00  0.00    +0.000 A 
ATOM     23  C   UNL     1       4.756   4.058  17.041  0.00  0.00    +0.000 A 
ATOM     24  C   UNL     1       5.958   4.039  16.331  0.00  0.00    +0.000 A 
ATOM     25  C   UNL     1       6.498   5.230  15.861  0.00  0.00    +0.000 A 
ATOM     26  C   UNL     1       5.841   6.438  16.101  0.00  0.00    +0.000 A 
ATOM     27  C   UNL     1       4.628   6.475  16.818  0.00  0.00    +0.000 A 
ATOM     28  C   UNL     1       3.951   7.683  17.090  0.00  0.00    +0.000 A 
ENDBRANCH  14  19
BRANCH  16  29
ATOM     29  C   UNL     1       2.303  12.475  18.270  0.00  0.00    +0.000 A 
ATOM     30  C   UNL     1       3.582  12.894  17.902  0.00  0.00    +0.000 A 
ATOM     31  C   UNL     1       3.879  14.254  17.788  0.00  0.00    +0.000 A 
ATOM     32  C   UNL     1       2.906  15.224  18.056  0.00  0.00    +0.000 A 
ATOM     33  C   UNL     1       3.201  16.592  17.977  0.00  0.00    +0.000 A 
ATOM     34  C   UNL     1       2.225  17.544  18.269  0.00  0.00    +0.000 A 
ATOM     35  C   UNL     1       0.940  17.142  18.627  0.00  0.00    +0.000 A 
ATOM     36  C   UNL     1       0.629  15.785  18.689  0.00  0.00    +0.000 A 
ATOM     37  C   UNL     1       1.605  14.815  18.414  0.00  0.00    +0.000 A 
ATOM     38  C   UNL     1       1.313  13.450  18.496  0.00  0.00    +0.000 A 
ENDBRANCH  16  29
TORSDOF 2
ENDMDL
MODEL 3
REMARK VINA RESULT:      -8.6      1.107      1.206
REMARK  Name = 
REMARK  3 active torsions:
REMARK  status: ('A' for Active; 'I' for Inactive)
REMARK    1  A    between atoms: C_1  and  C_2
REMARK    2  A    between atoms: C_14  and  C_15
REMARK    3  A    between atoms: N_26  and  C_27
REMARK                            x       y       z     vdW  Elec       q    Type
REMARK                         _______ _______ _______ _____ _____    ______ ____
ROOT
ATOM      1  C   UNL     1      -2.906  11.867  22.324  0.00  0.00    +0.000 C 
ATOM      2  C   UNL     1      -2.095  12.611  21.283  0.00  0.00    +0.000 C 
ATOM      3  O   UNL     1      -2.744  12.503  20.008  0.00  0.00    +0.000 OA
ATOM      4  C   UNL     1      -1.976  11.623  19.179  0.00  0.00    +0.000 C 
ATOM      5  C   UNL     1      -1.812  12.331  17.864  0.00  0.00    +0.000 C 
ATOM      6  C   UNL     1      -2.124  11.788  16.678  0.00  0.00    +0.000 C 
ATOM      7  C   UNL     1      -2.682  10.418  16.607  0.00  0.00    +0.000 C 
ATOM      8  O   UNL     1      -2.856   9.858  15.534  0.00  0.00    +0.000 OA
ATOM      9  C   UNL     1      -3.051   9.769  17.886  0.00  0.00    +0.000 C 
ATOM     10  C   UNL     1      -2.725  10.333  19.060  0.00  0.00    +0.000 C 
ATOM     11  N   UNL     1      -0.708  11.468  19.811  0.00  0.00    +0.000 N 
ATOM     12  C   UNL     1       0.358  10.663  19.447  0.00  0.00    +0.000 A 
ATOM     13  N   UNL     1       0.411   9.343  19.533  0.00  0.00    +0.000 NA
ATOM     14  C   UNL     1       1.655   9.018  19.028  0.00  0.00    +0.000 A 
ATOM     15  N   UNL     1       2.312  10.066  18.530  0.00  0.00    +0.000 NA
ATOM     16  N   UNL     1       1.543  11.127  18.869  0.00  0.00    +0.000 N 
ATOM     17  C   UNL     1      -0.729  11.996  21.089  0.00  0.00    +0.000 C 
ATOM     18  O   UNL     1       0.178  12.017  21.906  0.00  0.00    +0.000 OA
ENDROOT
BRANCH  14  19
ATOM     19  C   UNL     1       2.257   7.678  19.053  0.00  0.00    +0.000 A 
ATOM     20  C   UNL     1       3.101   7.240  18.030  0.00  0.00    +0.000 A 
ATOM     21  C   UNL     1       3.603   5.929  18.035  0.00  0.00    +0.000 A 
ATOM     22  C   UNL     1       3.272   5.022  19.059  0.00  0.00    +0.000 A 
ATOM     23  C   UNL     1       3.753   3.696  19.058  0.00  0.00    +0.000 A 
ATOM     24  C   UNL     1       3.407   2.804  20.075  0.00  0.00    +0.000 A 
ATOM     25  C   UNL     1       2.579   3.225  21.108  0.00  0.00    +0.000 A 
ATOM     26  C   UNL     1       2.094   4.535  21.125  0.00  0.00    +0.000 A 
ATOM     27  C   UNL     1       2.431   5.447  20.105  0.00  0.00    +0.000 A 
ATOM     28  C   UNL     1       1.942   6.771  20.088  0.00  0.00    +0.000 A 
ENDBRANCH  14  19
BRANCH  16  29
ATOM     29  C   UNL     1       2.001  12.435  18.535  0.00  0.00    +0.000 A 
ATOM     30  C   UNL     1       3.272  12.695  18.022  0.00  0.00    +0.000 A 
ATOM     31  C   UNL     1       3.672  14.003  17.740  0.00  0.00    +0.000 A 
ATOM     32  C   UNL     1       2.812  15.081  17.980  0.00  0.00    +0.000 A 
ATOM     33  C   UNL     1       3.213  16.401  17.732  0.00  0.00    +0.000 A 
ATOM     34  C   UNL     1       2.350  17.464  17.998  0.00  0.00    +0.000 A 
ATOM     35  C   UNL     1       1.074  17.221  18.500  0.00  0.00    +0.000 A 
ATOM     36  C   UNL     1       0.657  15.911  18.731  0.00  0.00    +0.000 A 
ATOM     37  C   UNL     1       1.519  14.833  18.484  0.00  0.00    +0.000 A 
ATOM     38  C   UNL     1       1.122  13.515  18.735  0.00  0.00    +0.000 A 
ENDBRANCH  16  29
TORSDOF 2
ENDMDL
MODEL 4
REMARK VINA RESULT:      -8.5      3.012      6.115
REMARK  Name = 
REMARK  3 active torsions:
REMARK  status: ('A' for Active; 'I' for Inactive)
REMARK    1  A    between atoms: C_1  and  C_2
REMARK    2  A    between atoms: C_14  and  C_15
REMARK    3  A    between atoms: N_26  and  C_27
REMARK                            x       y       z     vdW  Elec       q    Type
REMARK                         _______ _______ _______ _____ _____    ______ ____
ROOT
ATOM      1  C   UNL     1       1.828  17.144  17.435  0.00  0.00    +0.000 C 
ATOM      2  C   UNL     1       1.071  16.901  18.725  0.00  0.00    +0.000 C 
ATOM      3  O   UNL     1       1.977  16.996  19.834  0.00  0.00    +0.000 OA
ATOM      4  C   UNL     1       2.197  15.681  20.358  0.00  0.00    +0.000 C 
ATOM      5  C   UNL     1       2.013  15.792  21.845  0.00  0.00    +0.000 C 
ATOM      6  C   UNL     1       2.917  15.371  22.742  0.00  0.00    +0.000 C 
ATOM      7  C   UNL     1       4.193  14.769  22.293  0.00  0.00    +0.000 C 
ATOM      8  O   UNL     1       4.973  14.266  23.090  0.00  0.00    +0.000 OA
ATOM      9  C   UNL     1       4.499  14.830  20.845  0.00  0.00    +0.000 C 
ATOM     10  C   UNL     1       3.576  15.254  19.967  0.00  0.00    +0.000 C 
ATOM     11  N   UNL     1       1.184  14.845  19.804  0.00  0.00    +0.000 N 
ATOM     12  C   UNL     1       1.004  13.479  19.940  0.00  0.00    +0.000 A 
ATOM     13  N   UNL     1       1.757  12.532  19.405  0.00  0.00    +0.000 NA
ATOM     14  C   UNL     1       1.192  11.353  19.852  0.00  0.00    +0.000 A 
ATOM     15  N   UNL     1       0.205  11.542  20.729  0.00  0.00    +0.000 NA
ATOM     16  N   UNL     1       0.015  12.882  20.726  0.00  0.00    +0.000 N 
ATOM     17  C   UNL     1       0.507  15.501  18.790  0.00  0.00    +0.000 C 
ATOM     18  O   UNL     1      -0.404  15.073  18.099  0.00  0.00    +0.000 OA
ENDROOT
BRANCH  14  19
ATOM     19  C   UNL     1       1.572  10.006  19.406  0.00  0.00    +0.000 A 
ATOM     20  C   UNL     1       1.969   9.760  18.090  0.00  0.00    +0.000 A 
ATOM     21  C   UNL     1       2.252   8.453  17.665  0.00  0.00    +0.000 A 
ATOM     22  C   UNL     1       2.143   7.357  18.543  0.00  0.00    +0.000 A 
ATOM     23  C   UNL     1       2.403   6.039  18.117  0.00  0.00    +0.000 A 
ATOM     24  C   UNL     1       2.279   4.961  18.996  0.00  0.00    +0.000 A 
ATOM     25  C   UNL     1       1.898   5.187  20.313  0.00  0.00    +0.000 A 
ATOM     26  C   UNL     1       1.637   6.487  20.751  0.00  0.00    +0.000 A 
ATOM     27  C   UNL     1       1.754   7.585  19.876  0.00  0.00    +0.000 A 
ATOM     28  C   UNL     1       1.481   8.907  20.288  0.00  0.00    +0.000 A 
ENDBRANCH  14  19
BRANCH  16  29
ATOM     29  C   UNL     1      -1.034  13.423  21.526  0.00  0.00    +0.000 A 
ATOM     30  C   UNL     1      -2.373  13.423  21.137  0.00  0.00    +0.000 A 
ATOM     31  C   UNL     1      -3.351  13.994  21.955  0.00  0.00    +0.000 A 
ATOM     32  C   UNL     1      -3.006  14.592  23.172  0.00  0.00    +0.000 A 
ATOM     33  C   UNL     1      -3.974  15.197  23.985  0.00  0.00    +0.000 A 
ATOM     34  C   UNL     1      -3.608  15.808  25.185  0.00  0.00    +0.000 A 
ATOM     35  C   UNL     1      -2.277  15.807  25.593  0.00  0.00    +0.000 A 
ATOM     36  C   UNL     1      -1.309  15.191  24.802  0.00  0.00    +0.000 A 
ATOM     37  C   UNL     1      -1.658  14.587  23.586  0.00  0.00    +0.000 A 
ATOM     38  C   UNL     1      -0.693  13.987  22.770  0.00  0.00    +0.000 A 
ENDBRANCH  16  29
TORSDOF 2
ENDMDL
MODEL 5
REMARK VINA RESULT:      -8.4      7.053     10.757
REMARK  Name = 
REMARK  3 active torsions:
REMARK  status: ('A' for Active; 'I' for Inactive)
REMARK    1  A    between atoms: C_1  and  C_2
REMARK    2  A    between atoms: C_14  and  C_15
REMARK    3  A    between atoms: N_26  and  C_27
REMARK                            x       y       z     vdW  Elec       q    Type
REMARK                         _______ _______ _______ _____ _____    ______ ____
ROOT
ATOM      1  C   UNL     1      11.471  16.046  16.714  0.00  0.00    +0.000 C 
ATOM      2  C   UNL     1      11.460  15.799  18.208  0.00  0.00    +0.000 C 
ATOM      3  O   UNL     1      11.615  14.395  18.460  0.00  0.00    +0.000 OA
ATOM      4  C   UNL     1      10.363  13.873  18.920  0.00  0.00    +0.000 C 
ATOM      5  C   UNL     1      10.678  13.064  20.146  0.00  0.00    +0.000 C 
ATOM      6  C   UNL     1      10.297  11.789  20.318  0.00  0.00    +0.000 C 
ATOM      7  C   UNL     1       9.533  11.088  19.261  0.00  0.00    +0.000 C 
ATOM      8  O   UNL     1       9.069   9.971  19.448  0.00  0.00    +0.000 OA
ATOM      9  C   UNL     1       9.383  11.780  17.960  0.00  0.00    +0.000 C 
ATOM     10  C   UNL     1       9.771  13.056  17.814  0.00  0.00    +0.000 C 
ATOM     11  N   UNL     1       9.556  14.994  19.269  0.00  0.00    +0.000 N 
ATOM     12  C   UNL     1       8.239  15.025  19.696  0.00  0.00    +0.000 A 
ATOM     13  N   UNL     1       7.169  14.775  18.958  0.00  0.00    +0.000 NA
ATOM     14  C   UNL     1       6.110  14.907  19.836  0.00  0.00    +0.000 A 
ATOM     15  N   UNL     1       6.494  15.107  21.097  0.00  0.00    +0.000 NA
ATOM     16  N   UNL     1       7.834  15.274  21.010  0.00  0.00    +0.000 N 
ATOM     17  C   UNL     1      10.134  16.171  18.830  0.00  0.00    +0.000 C 
ATOM     18  O   UNL     1       9.703  17.308  18.948  0.00  0.00    +0.000 OA
ENDROOT
BRANCH  14  19
ATOM     19  C   UNL     1       4.690  14.881  19.463  0.00  0.00    +0.000 A 
ATOM     20  C   UNL     1       4.238  15.461  18.275  0.00  0.00    +0.000 A 
ATOM     21  C   UNL     1       2.867  15.493  17.976  0.00  0.00    +0.000 A 
ATOM     22  C   UNL     1       1.912  14.951  18.857  0.00  0.00    +0.000 A 
ATOM     23  C   UNL     1       0.532  15.001  18.575  0.00  0.00    +0.000 A 
ATOM     24  C   UNL     1      -0.405  14.470  19.464  0.00  0.00    +0.000 A 
ATOM     25  C   UNL     1       0.026  13.878  20.645  0.00  0.00    +0.000 A 
ATOM     26  C   UNL     1       1.389  13.819  20.939  0.00  0.00    +0.000 A 
ATOM     27  C   UNL     1       2.347  14.353  20.055  0.00  0.00    +0.000 A 
ATOM     28  C   UNL     1       3.730  14.322  20.336  0.00  0.00    +0.000 A 
ENDBRANCH  14  19
BRANCH  16  29
ATOM     29  C   UNL     1       8.562  15.576  22.198  0.00  0.00    +0.000 A 
ATOM     30  C   UNL     1       9.571  16.537  22.256  0.00  0.00    +0.000 A 
ATOM     31  C   UNL     1      10.267  16.767  23.446  0.00  0.00    +0.000 A 
ATOM     32  C   UNL     1       9.976  16.029  24.599  0.00  0.00    +0.000 A 
ATOM     33  C   UNL     1      10.689  16.228  25.789  0.00  0.00    +0.000 A 
ATOM     34  C   UNL     1      10.401  15.467  26.921  0.00  0.00    +0.000 A 
ATOM     35  C   UNL     1       9.388  14.512  26.883  0.00  0.00    +0.000 A 
ATOM     36  C   UNL     1       8.659  14.319  25.711  0.00  0.00    +0.000 A 
ATOM     37  C   UNL     1       8.949  15.065  24.559  0.00  0.00    +0.000 A 
ATOM     38  C   UNL     1       8.241  14.864  23.370  0.00  0.00    +0.000 A 
ENDBRANCH  16  29
TORSDOF 2
ENDMDL
MODEL 6
REMARK VINA RESULT:      -8.4      2.943      6.130
REMARK  Name = 
REMARK  3 active torsions:
REMARK  status: ('A' for Active; 'I' for Inactive)
REMARK    1  A    between atoms: C_1  and  C_2
REMARK    2  A    between atoms: C_14  and  C_15
REMARK    3  A    between atoms: N_26  and  C_27
REMARK                            x       y       z     vdW  Elec       q    Type
REMARK                         _______ _______ _______ _____ _____    ______ ____
ROOT
ATOM      1  C   UNL     1       1.798  17.169  17.532  0.00  0.00    +0.000 C 
ATOM      2  C   UNL     1       1.066  16.913  18.833  0.00  0.00    +0.000 C 
ATOM      3  O   UNL     1       1.993  16.994  19.925  0.00  0.00    +0.000 OA
ATOM      4  C   UNL     1       2.219  15.673  20.431  0.00  0.00    +0.000 C 
ATOM      5  C   UNL     1       2.064  15.769  21.923  0.00  0.00    +0.000 C 
ATOM      6  C   UNL     1       2.984  15.337  22.798  0.00  0.00    +0.000 C 
ATOM      7  C   UNL     1       4.250  14.737  22.318  0.00  0.00    +0.000 C 
ATOM      8  O   UNL     1       5.044  14.224  23.095  0.00  0.00    +0.000 OA
ATOM      9  C   UNL     1       4.528  14.812  20.866  0.00  0.00    +0.000 C 
ATOM     10  C   UNL     1       3.590  15.247  20.010  0.00  0.00    +0.000 C 
ATOM     11  N   UNL     1       1.194  14.846  19.888  0.00  0.00    +0.000 N 
ATOM     12  C   UNL     1       1.014  13.479  20.013  0.00  0.00    +0.000 A 
ATOM     13  N   UNL     1       1.755  12.535  19.454  0.00  0.00    +0.000 NA
ATOM     14  C   UNL     1       1.195  11.353  19.899  0.00  0.00    +0.000 A 
ATOM     15  N   UNL     1       0.225  11.535  20.796  0.00  0.00    +0.000 NA
ATOM     16  N   UNL     1       0.039  12.875  20.811  0.00  0.00    +0.000 N 
ATOM     17  C   UNL     1       0.500  15.514  18.894  0.00  0.00    +0.000 C 
ATOM     18  O   UNL     1      -0.425  15.095  18.215  0.00  0.00    +0.000 OA
ENDROOT
BRANCH  14  19
ATOM     19  C   UNL     1       1.564  10.010  19.431  0.00  0.00    +0.000 A 
ATOM     20  C   UNL     1       1.914   9.773  18.100  0.00  0.00    +0.000 A 
ATOM     21  C   UNL     1       2.187   8.470  17.658  0.00  0.00    +0.000 A 
ATOM     22  C   UNL     1       2.113   7.369  18.532  0.00  0.00    +0.000 A 
ATOM     23  C   UNL     1       2.362   6.054  18.089  0.00  0.00    +0.000 A 
ATOM     24  C   UNL     1       2.273   4.970  18.966  0.00  0.00    +0.000 A 
ATOM     25  C   UNL     1       1.938   5.187  20.297  0.00  0.00    +0.000 A 
ATOM     26  C   UNL     1       1.688   6.483  20.752  0.00  0.00    +0.000 A 
ATOM     27  C   UNL     1       1.771   7.587  19.880  0.00  0.00    +0.000 A 
ATOM     28  C   UNL     1       1.508   8.906  20.310  0.00  0.00    +0.000 A 
ENDBRANCH  14  19
BRANCH  16  29
ATOM     29  C   UNL     1      -0.994  13.410  21.637  0.00  0.00    +0.000 A 
ATOM     30  C   UNL     1      -0.791  13.804  22.960  0.00  0.00    +0.000 A 
ATOM     31  C   UNL     1      -1.851  14.295  23.725  0.00  0.00    +0.000 A 
ATOM     32  C   UNL     1      -3.140  14.389  23.187  0.00  0.00    +0.000 A 
ATOM     33  C   UNL     1      -4.217  14.849  23.955  0.00  0.00    +0.000 A 
ATOM     34  C   UNL     1      -5.499  14.915  23.408  0.00  0.00    +0.000 A 
ATOM     35  C   UNL     1      -5.715  14.537  22.086  0.00  0.00    +0.000 A 
ATOM     36  C   UNL     1      -4.648  14.096  21.306  0.00  0.00    +0.000 A 
ATOM     37  C   UNL     1      -3.356  14.009  21.847  0.00  0.00    +0.000 A 
ATOM     38  C   UNL     1      -2.280  13.545  21.083  0.00  0.00    +0.000 A 
ENDBRANCH  16  29
TORSDOF 2
ENDMDL
MODEL 7
REMARK VINA RESULT:      -8.2      1.509      1.757
REMARK  Name = 
REMARK  3 active torsions:
REMARK  status: ('A' for Active; 'I' for Inactive)
REMARK    1  A    between atoms: C_1  and  C_2
REMARK    2  A    between atoms: C_14  and  C_15
REMARK    3  A    between atoms: N_26  and  C_27
REMARK                            x       y       z     vdW  Elec       q    Type
REMARK                         _______ _______ _______ _____ _____    ______ ____
ROOT
ATOM      1  C   UNL     1      -2.951  11.885  22.496  0.00  0.00    +0.000 C 
ATOM      2  C   UNL     1      -2.049  12.660  21.557  0.00  0.00    +0.000 C 
ATOM      3  O   UNL     1      -2.630  12.677  20.245  0.00  0.00    +0.000 OA
ATOM      4  C   UNL     1      -1.859  11.820  19.394  0.00  0.00    +0.000 C 
ATOM      5  C   UNL     1      -1.588  12.612  18.146  0.00  0.00    +0.000 C 
ATOM      6  C   UNL     1      -1.859  12.172  16.908  0.00  0.00    +0.000 C 
ATOM      7  C   UNL     1      -2.476  10.841  16.706  0.00  0.00    +0.000 C 
ATOM      8  O   UNL     1      -2.616  10.369  15.586  0.00  0.00    +0.000 OA
ATOM      9  C   UNL     1      -2.946  10.121  17.912  0.00  0.00    +0.000 C 
ATOM     10  C   UNL     1      -2.661  10.582  19.140  0.00  0.00    +0.000 C 
ATOM     11  N   UNL     1      -0.637  11.555  20.078  0.00  0.00    +0.000 N 
ATOM     12  C   UNL     1       0.408  10.725  19.711  0.00  0.00    +0.000 A 
ATOM     13  N   UNL     1       0.393   9.402  19.702  0.00  0.00    +0.000 NA
ATOM     14  C   UNL     1       1.647   9.050  19.240  0.00  0.00    +0.000 A 
ATOM     15  N   UNL     1       2.380  10.096  18.857  0.00  0.00    +0.000 NA
ATOM     16  N   UNL     1       1.644  11.168  19.233  0.00  0.00    +0.000 N 
ATOM     17  C   UNL     1      -0.705  11.991  21.389  0.00  0.00    +0.000 C 
ATOM     18  O   UNL     1       0.155  11.907  22.252  0.00  0.00    +0.000 OA
ENDROOT
BRANCH  14  19
ATOM     19  C   UNL     1       2.183   7.683  19.197  0.00  0.00    +0.000 A 
ATOM     20  C   UNL     1       2.936   7.229  18.111  0.00  0.00    +0.000 A 
ATOM     21  C   UNL     1       3.372   5.896  18.055  0.00  0.00    +0.000 A 
ATOM     22  C   UNL     1       3.064   4.981  19.080  0.00  0.00    +0.000 A 
ATOM     23  C   UNL     1       3.478   3.635  19.019  0.00  0.00    +0.000 A 
ATOM     24  C   UNL     1       3.155   2.736  20.037  0.00  0.00    +0.000 A 
ATOM     25  C   UNL     1       2.417   3.171  21.131  0.00  0.00    +0.000 A 
ATOM     26  C   UNL     1       2.000   4.501  21.208  0.00  0.00    +0.000 A 
ATOM     27  C   UNL     1       2.314   5.421  20.188  0.00  0.00    +0.000 A 
ATOM     28  C   UNL     1       1.891   6.767  20.231  0.00  0.00    +0.000 A 
ENDBRANCH  14  19
BRANCH  16  29
ATOM     29  C   UNL     1       2.182  12.471  19.021  0.00  0.00    +0.000 A 
ATOM     30  C   UNL     1       2.364  13.030  17.756  0.00  0.00    +0.000 A 
ATOM     31  C   UNL     1       2.922  14.302  17.614  0.00  0.00    +0.000 A 
ATOM     32  C   UNL     1       3.324  15.037  18.735  0.00  0.00    +0.000 A 
ATOM     33  C   UNL     1       3.915  16.301  18.604  0.00  0.00    +0.000 A 
ATOM     34  C   UNL     1       4.329  17.008  19.732  0.00  0.00    +0.000 A 
ATOM     35  C   UNL     1       4.144  16.470  21.003  0.00  0.00    +0.000 A 
ATOM     36  C   UNL     1       3.539  15.222  21.147  0.00  0.00    +0.000 A 
ATOM     37  C   UNL     1       3.132  14.492  20.021  0.00  0.00    +0.000 A 
ATOM     38  C   UNL     1       2.546  13.228  20.150  0.00  0.00    +0.000 A 
ENDBRANCH  16  29
TORSDOF 2
ENDMDL
MODEL 8
REMARK VINA RESULT:      -8.1      0.976      1.420
REMARK  Name = 
REMARK  3 active torsions:
REMARK  status: ('A' for Active; 'I' for Inactive)
REMARK    1  A    between atoms: C_1  and  C_2
REMARK    2  A    between atoms: C_14  and  C_15
REMARK    3  A    between atoms: N_26  and  C_27
REMARK                            x       y       z     vdW  Elec       q    Type
REMARK                         _______ _______ _______ _____ _____    ______ ____
ROOT
ATOM      1  C   UNL     1      -3.148  11.972  22.163  0.00  0.00    +0.000 C 
ATOM      2  C   UNL     1      -2.301  12.701  21.140  0.00  0.00    +0.000 C 
ATOM      3  O   UNL     1      -2.905  12.572  19.844  0.00  0.00    +0.000 OA
ATOM      4  C   UNL     1      -2.108  11.679  19.057  0.00  0.00    +0.000 C 
ATOM      5  C   UNL     1      -1.898  12.367  17.737  0.00  0.00    +0.000 C 
ATOM      6  C   UNL     1      -2.168  11.804  16.550  0.00  0.00    +0.000 C 
ATOM      7  C   UNL     1      -2.722  10.433  16.482  0.00  0.00    +0.000 C 
ATOM      8  O   UNL     1      -2.858   9.856  15.412  0.00  0.00    +0.000 OA
ATOM      9  C   UNL     1      -3.136   9.804  17.757  0.00  0.00    +0.000 C 
ATOM     10  C   UNL     1      -2.852  10.387  18.932  0.00  0.00    +0.000 C 
ATOM     11  N   UNL     1      -0.863  11.535  19.735  0.00  0.00    +0.000 N 
ATOM     12  C   UNL     1       0.216  10.726  19.422  0.00  0.00    +0.000 A 
ATOM     13  N   UNL     1       0.266   9.408  19.531  0.00  0.00    +0.000 NA
ATOM     14  C   UNL     1       1.527   9.076  19.076  0.00  0.00    +0.000 A 
ATOM     15  N   UNL     1       2.201  10.116  18.585  0.00  0.00    +0.000 NA
ATOM     16  N   UNL     1       1.420  11.182  18.879  0.00  0.00    +0.000 N 
ATOM     17  C   UNL     1      -0.929  12.084  21.003  0.00  0.00    +0.000 C 
ATOM     18  O   UNL     1      -0.051  12.119  21.852  0.00  0.00    +0.000 OA
ENDROOT
BRANCH  14  19
ATOM     19  C   UNL     1       2.129   7.737  19.144  0.00  0.00    +0.000 A 
ATOM     20  C   UNL     1       1.975   6.926  20.270  0.00  0.00    +0.000 A 
ATOM     21  C   UNL     1       2.623   5.683  20.345  0.00  0.00    +0.000 A 
ATOM     22  C   UNL     1       3.444   5.220  19.300  0.00  0.00    +0.000 A 
ATOM     23  C   UNL     1       4.117   3.984  19.378  0.00  0.00    +0.000 A 
ATOM     24  C   UNL     1       4.937   3.543  18.338  0.00  0.00    +0.000 A 
ATOM     25  C   UNL     1       5.093   4.331  17.204  0.00  0.00    +0.000 A 
ATOM     26  C   UNL     1       4.433   5.558  17.109  0.00  0.00    +0.000 A 
ATOM     27  C   UNL     1       3.604   6.018  18.151  0.00  0.00    +0.000 A 
ATOM     28  C   UNL     1       2.939   7.262  18.089  0.00  0.00    +0.000 A 
ENDBRANCH  14  19
BRANCH  16  29
ATOM     29  C   UNL     1       1.889  12.485  18.540  0.00  0.00    +0.000 A 
ATOM     30  C   UNL     1       3.173  12.736  18.056  0.00  0.00    +0.000 A 
ATOM     31  C   UNL     1       3.582  14.040  17.768  0.00  0.00    +0.000 A 
ATOM     32  C   UNL     1       2.719  15.122  17.973  0.00  0.00    +0.000 A 
ATOM     33  C   UNL     1       3.129  16.438  17.719  0.00  0.00    +0.000 A 
ATOM     34  C   UNL     1       2.262  17.506  17.950  0.00  0.00    +0.000 A 
ATOM     35  C   UNL     1       0.973  17.271  18.422  0.00  0.00    +0.000 A 
ATOM     36  C   UNL     1       0.548  15.966  18.660  0.00  0.00    +0.000 A 
ATOM     37  C   UNL     1       1.413  14.883  18.447  0.00  0.00    +0.000 A 
ATOM     38  C   UNL     1       1.007  13.569  18.705  0.00  0.00    +0.000 A 
ENDBRANCH  16  29
TORSDOF 2
ENDMDL
MODEL 9
REMARK VINA RESULT:      -8.1      1.505      2.002
REMARK  Name = 
REMARK  3 active torsions:
REMARK  status: ('A' for Active; 'I' for Inactive)
REMARK    1  A    between atoms: C_1  and  C_2
REMARK    2  A    between atoms: C_14  and  C_15
REMARK    3  A    between atoms: N_26  and  C_27
REMARK                            x       y       z     vdW  Elec       q    Type
REMARK                         _______ _______ _______ _____ _____    ______ ____
ROOT
ATOM      1  C   UNL     1      -3.250  12.256  22.360  0.00  0.00    +0.000 C 
ATOM      2  C   UNL     1      -2.259  12.913  21.421  0.00  0.00    +0.000 C 
ATOM      3  O   UNL     1      -2.773  12.871  20.082  0.00  0.00    +0.000 OA
ATOM      4  C   UNL     1      -2.012  11.917  19.332  0.00  0.00    +0.000 C 
ATOM      5  C   UNL     1      -1.635  12.604  18.050  0.00  0.00    +0.000 C 
ATOM      6  C   UNL     1      -1.869  12.095  16.832  0.00  0.00    +0.000 C 
ATOM      7  C   UNL     1      -2.551  10.788  16.686  0.00  0.00    +0.000 C 
ATOM      8  O   UNL     1      -2.663  10.248  15.594  0.00  0.00    +0.000 OA
ATOM      9  C   UNL     1      -3.121  10.181  17.911  0.00  0.00    +0.000 C 
ATOM     10  C   UNL     1      -2.870  10.709  19.119  0.00  0.00    +0.000 C 
ATOM     11  N   UNL     1      -0.843  11.634  20.096  0.00  0.00    +0.000 N 
ATOM     12  C   UNL     1       0.170  10.725  19.841  0.00  0.00    +0.000 A 
ATOM     13  N   UNL     1       0.080   9.407  19.919  0.00  0.00    +0.000 NA
ATOM     14  C   UNL     1       1.332   8.957  19.549  0.00  0.00    +0.000 A 
ATOM     15  N   UNL     1       2.142   9.932  19.136  0.00  0.00    +0.000 NA
ATOM     16  N   UNL     1       1.452  11.066  19.400  0.00  0.00    +0.000 N 
ATOM     17  C   UNL     1      -0.950  12.163  21.370  0.00  0.00    +0.000 C 
ATOM     18  O   UNL     1      -0.139  12.093  22.281  0.00  0.00    +0.000 OA
ENDROOT
BRANCH  14  19
ATOM     19  C   UNL     1       1.790   7.563  19.625  0.00  0.00    +0.000 A 
ATOM     20  C   UNL     1       1.514   6.766  20.738  0.00  0.00    +0.000 A 
ATOM     21  C   UNL     1       2.028   5.463  20.825  0.00  0.00    +0.000 A 
ATOM     22  C   UNL     1       2.832   4.923  19.804  0.00  0.00    +0.000 A 
ATOM     23  C   UNL     1       3.371   3.624  19.894  0.00  0.00    +0.000 A 
ATOM     24  C   UNL     1       4.178   3.106  18.879  0.00  0.00    +0.000 A 
ATOM     25  C   UNL     1       4.454   3.879  17.758  0.00  0.00    +0.000 A 
ATOM     26  C   UNL     1       3.928   5.169  17.652  0.00  0.00    +0.000 A 
ATOM     27  C   UNL     1       3.115   5.707  18.668  0.00  0.00    +0.000 A 
ATOM     28  C   UNL     1       2.583   7.012  18.595  0.00  0.00    +0.000 A 
ENDBRANCH  14  19
BRANCH  16  29
ATOM     29  C   UNL     1       2.073  12.321  19.131  0.00  0.00    +0.000 A 
ATOM     30  C   UNL     1       2.321  12.794  17.842  0.00  0.00    +0.000 A 
ATOM     31  C   UNL     1       2.959  14.020  17.645  0.00  0.00    +0.000 A 
ATOM     32  C   UNL     1       3.377  14.793  18.735  0.00  0.00    +0.000 A 
ATOM     33  C   UNL     1       4.047  16.010  18.550  0.00  0.00    +0.000 A 
ATOM     34  C   UNL     1       4.476  16.755  19.648  0.00  0.00    +0.000 A 
ATOM     35  C   UNL     1       4.226  16.303  20.941  0.00  0.00    +0.000 A 
ATOM     36  C   UNL     1       3.543  15.104  21.138  0.00  0.00    +0.000 A 
ATOM     37  C   UNL     1       3.120  14.335  20.044  0.00  0.00    +0.000 A 
ATOM     38  C   UNL     1       2.455  13.118  20.226  0.00  0.00    +0.000 A 
ENDBRANCH  16  29
TORSDOF 2
ENDMDL
