MODEL 1
REMARK VINA RESULT:      -9.7      0.000      0.000
REMARK  Name = 
REMARK  7 active torsions:
REMARK  status: ('A' for Active; 'I' for Inactive)
REMARK    1  A    between atoms: C_1  and  C_2
REMARK    2  A    between atoms: N_5  and  C_6
REMARK    3  A    between atoms: C_6  and  C_7
REMARK    4  A    between atoms: C_6  and  C_8
REMARK    5  A    between atoms: C_12  and  C_13
REMARK    6  A    between atoms: C_20  and  C_21
REMARK    7  A    between atoms: N_24  and  C_25
REMARK                            x       y       z     vdW  Elec       q    Type
REMARK                         _______ _______ _______ _____ _____    ______ ____
ROOT
ATOM      1  C   UNL     1       4.568   1.416  20.323  0.00  0.00    +0.000 C 
ATOM      2  C   UNL     1       4.160   2.700  19.683  0.00  0.00    +0.000 A 
ATOM      3  N   UNL     1       4.770   3.095  18.542  0.00  0.00    +0.000 NA
ATOM      4  C   UNL     1       4.447   4.304  18.051  0.00  0.00    +0.000 A 
ATOM      5  N   UNL     1       5.052   4.755  16.852  0.00  0.00    +0.000 N 
ATOM      6  C   UNL     1       3.483   5.121  18.692  0.00  0.00    +0.000 A 
ATOM      7  C   UNL     1       3.110   6.433  18.304  0.00  0.00    +0.000 A 
ATOM      8  C   UNL     1       2.226   7.195  19.078  0.00  0.00    +0.000 A 
ATOM      9  C   UNL     1       1.647   6.623  20.209  0.00  0.00    +0.000 A 
ATOM     10  C   UNL     1       1.983   5.328  20.573  0.00  0.00    +0.000 A 
ATOM     11  C   UNL     1       2.897   4.584  19.851  0.00  0.00    +0.000 A 
ATOM     12  N   UNL     1       3.231   3.398  20.339  0.00  0.00    +0.000 NA
ATOM     13  H   UNL     1       5.144   5.764  16.866  0.00  0.00    +0.000 HD
ENDROOT
BRANCH   8  14
ATOM     14  C   UNL     1       1.918   8.557  18.721  0.00  0.00    +0.000 A 
ATOM     15  C   UNL     1       2.425   9.393  17.711  0.00  0.00    +0.000 A 
ATOM     16  N   UNL     1       1.850  10.595  17.721  0.00  0.00    +0.000 NA
ATOM     17  N   UNL     1       0.973  10.534  18.737  0.00  0.00    +0.000 N 
ATOM     18  C   UNL     1       1.003   9.337  19.392  0.00  0.00    +0.000 A 
BRANCH  17  19
ATOM     19  C   UNL     1       0.099  11.657  19.060  0.00  0.00    +0.000 C 
ATOM     20  C   UNL     1       0.848  12.989  19.123  0.00  0.00    +0.000 C 
ATOM     21  C   UNL     1       1.618  13.159  20.429  0.00  0.00    +0.000 C 
ATOM     22  N   UNL     1       0.768  12.957  21.603  0.00  0.00    +0.000 NA
ATOM     23  C   UNL     1       0.117  11.642  21.596  0.00  0.00    +0.000 C 
ATOM     24  C   UNL     1      -0.713  11.416  20.334  0.00  0.00    +0.000 C 
ATOM     25  H   UNL     1       0.060  13.687  21.648  0.00  0.00    +0.000 HD
ENDBRANCH  17  19
ENDBRANCH   8  14
BRANCH   5  26
ATOM     26  C   UNL     1       6.349   4.176  16.430  0.00  0.00    +0.000 C 
ATOM     27  C   UNL     1       7.471   4.973  17.125  0.00  0.00    +0.000 C 
BRANCH  26  28
ATOM     28  C   UNL     1       6.472   4.278  14.885  0.00  0.00    +0.000 A 
ATOM     29  C   UNL     1       7.514   5.018  14.300  0.00  0.00    +0.000 A 
ATOM     30  C   UNL     1       7.718   5.028  12.917  0.00  0.00    +0.000 A 
ATOM     31  C   UNL     1       6.834   4.372  12.070  0.00  0.00    +0.000 A 
ATOM     32  C   UNL     1       5.698   3.753  12.595  0.00  0.00    +0.000 A 
ATOM     33  C   UNL     1       5.539   3.687  14.001  0.00  0.00    +0.000 A 
BRANCH  32  34
ATOM     34  C   UNL     1       4.627   3.228  11.661  0.00  0.00    +0.000 C 
ATOM     35  F   UNL     1       4.278   4.113  10.684  0.00  0.00    +0.000 F 
ATOM     36  F   UNL     1       4.987   2.086  11.016  0.00  0.00    +0.000 F 
ATOM     37  F   UNL     1       3.468   2.939  12.319  0.00  0.00    +0.000 F 
ENDBRANCH  32  34
ENDBRANCH  26  28
ENDBRANCH   5  26
TORSDOF 5
ENDMDL
MODEL 2
REMARK VINA RESULT:      -8.4      5.003     10.104
REMARK  Name = 
REMARK  7 active torsions:
REMARK  status: ('A' for Active; 'I' for Inactive)
REMARK    1  A    between atoms: C_1  and  C_2
REMARK    2  A    between atoms: N_5  and  C_6
REMARK    3  A    between atoms: C_6  and  C_7
REMARK    4  A    between atoms: C_6  and  C_8
REMARK    5  A    between atoms: C_12  and  C_13
REMARK    6  A    between atoms: C_20  and  C_21
REMARK    7  A    between atoms: N_24  and  C_25
REMARK                            x       y       z     vdW  Elec       q    Type
REMARK                         _______ _______ _______ _____ _____    ______ ____
ROOT
ATOM      1  C   UNL     1      -1.635  11.205  22.916  0.00  0.00    +0.000 C 
ATOM      2  C   UNL     1      -0.692  10.646  21.905  0.00  0.00    +0.000 A 
ATOM      3  N   UNL     1      -0.508  11.303  20.737  0.00  0.00    +0.000 NA
ATOM      4  C   UNL     1       0.269  10.716  19.811  0.00  0.00    +0.000 A 
ATOM      5  N   UNL     1       0.501  11.371  18.576  0.00  0.00    +0.000 N 
ATOM      6  C   UNL     1       0.893   9.468  20.061  0.00  0.00    +0.000 A 
ATOM      7  C   UNL     1       1.680   8.729  19.142  0.00  0.00    +0.000 A 
ATOM      8  C   UNL     1       2.156   7.451  19.459  0.00  0.00    +0.000 A 
ATOM      9  C   UNL     1       1.915   6.931  20.729  0.00  0.00    +0.000 A 
ATOM     10  C   UNL     1       1.176   7.666  21.643  0.00  0.00    +0.000 A 
ATOM     11  C   UNL     1       0.650   8.904  21.326  0.00  0.00    +0.000 A 
ATOM     12  N   UNL     1      -0.130   9.480  22.229  0.00  0.00    +0.000 NA
ATOM     13  H   UNL     1       0.628  10.689  17.837  0.00  0.00    +0.000 HD
ENDROOT
BRANCH   8  14
ATOM     14  C   UNL     1       2.883   6.672  18.488  0.00  0.00    +0.000 A 
ATOM     15  C   UNL     1       2.687   5.366  18.004  0.00  0.00    +0.000 A 
ATOM     16  N   UNL     1       3.594   5.030  17.089  0.00  0.00    +0.000 NA
ATOM     17  N   UNL     1       4.376   6.118  16.981  0.00  0.00    +0.000 N 
ATOM     18  C   UNL     1       4.007   7.120  17.831  0.00  0.00    +0.000 A 
BRANCH  17  19
ATOM     19  C   UNL     1       5.485   6.172  16.035  0.00  0.00    +0.000 C 
ATOM     20  C   UNL     1       5.573   4.921  15.159  0.00  0.00    +0.000 C 
ATOM     21  C   UNL     1       6.203   3.742  15.894  0.00  0.00    +0.000 C 
ATOM     22  N   UNL     1       7.496   4.085  16.485  0.00  0.00    +0.000 NA
ATOM     23  C   UNL     1       7.402   5.227  17.400  0.00  0.00    +0.000 C 
ATOM     24  C   UNL     1       6.821   6.465  16.720  0.00  0.00    +0.000 C 
ATOM     25  H   UNL     1       8.170   4.292  15.750  0.00  0.00    +0.000 HD
ENDBRANCH  17  19
ENDBRANCH   8  14
BRANCH   5  26
ATOM     26  C   UNL     1      -0.464  12.393  18.103  0.00  0.00    +0.000 C 
ATOM     27  C   UNL     1      -0.548  13.495  19.177  0.00  0.00    +0.000 C 
BRANCH  26  28
ATOM     28  C   UNL     1      -1.848  11.723  17.888  0.00  0.00    +0.000 A 
ATOM     29  C   UNL     1      -2.010  10.714  16.922  0.00  0.00    +0.000 A 
ATOM     30  C   UNL     1      -3.212  10.013  16.791  0.00  0.00    +0.000 A 
ATOM     31  C   UNL     1      -4.317  10.358  17.558  0.00  0.00    +0.000 A 
ATOM     32  C   UNL     1      -4.250  11.455  18.420  0.00  0.00    +0.000 A 
ATOM     33  C   UNL     1      -3.008  12.113  18.599  0.00  0.00    +0.000 A 
BRANCH  32  34
ATOM     34  C   UNL     1      -5.509  11.964  19.090  0.00  0.00    +0.000 C 
ATOM     35  F   UNL     1      -5.395  12.079  20.444  0.00  0.00    +0.000 F 
ATOM     36  F   UNL     1      -5.898  13.189  18.644  0.00  0.00    +0.000 F 
ATOM     37  F   UNL     1      -6.572  11.135  18.884  0.00  0.00    +0.000 F 
ENDBRANCH  32  34
ENDBRANCH  26  28
ENDBRANCH   5  26
TORSDOF 5
ENDMDL
MODEL 3
REMARK VINA RESULT:      -8.4      3.849      7.553
REMARK  Name = 
REMARK  7 active torsions:
REMARK  status: ('A' for Active; 'I' for Inactive)
REMARK    1  A    between atoms: C_1  and  C_2
REMARK    2  A    between atoms: N_5  and  C_6
REMARK    3  A    between atoms: C_6  and  C_7
REMARK    4  A    between atoms: C_6  and  C_8
REMARK    5  A    between atoms: C_12  and  C_13
REMARK    6  A    between atoms: C_20  and  C_21
REMARK    7  A    between atoms: N_24  and  C_25
REMARK                            x       y       z     vdW  Elec       q    Type
REMARK                         _______ _______ _______ _____ _____    ______ ____
ROOT
ATOM      1  C   UNL     1      -2.944  10.527  17.927  0.00  0.00    +0.000 C 
ATOM      2  C   UNL     1      -1.541  10.988  18.134  0.00  0.00    +0.000 A 
ATOM      3  N   UNL     1      -0.561  10.072  18.311  0.00  0.00    +0.000 NA
ATOM      4  C   UNL     1       0.671  10.528  18.596  0.00  0.00    +0.000 A 
ATOM      5  N   UNL     1       1.731   9.606  18.778  0.00  0.00    +0.000 N 
ATOM      6  C   UNL     1       0.937  11.917  18.681  0.00  0.00    +0.000 A 
ATOM      7  C   UNL     1       2.176  12.509  19.034  0.00  0.00    +0.000 A 
ATOM      8  C   UNL     1       2.297  13.895  19.197  0.00  0.00    +0.000 A 
ATOM      9  C   UNL     1       1.198  14.709  18.933  0.00  0.00    +0.000 A 
ATOM     10  C   UNL     1      -0.006  14.136  18.553  0.00  0.00    +0.000 A 
ATOM     11  C   UNL     1      -0.157  12.767  18.444  0.00  0.00    +0.000 A 
ATOM     12  N   UNL     1      -1.374  12.312  18.179  0.00  0.00    +0.000 NA
ATOM     13  H   UNL     1       2.402   9.973  19.443  0.00  0.00    +0.000 HD
ENDROOT
BRANCH   8  14
ATOM     14  C   UNL     1       3.538  14.481  19.639  0.00  0.00    +0.000 A 
ATOM     15  C   UNL     1       4.010  14.809  20.922  0.00  0.00    +0.000 A 
ATOM     16  N   UNL     1       5.235  15.330  20.887  0.00  0.00    +0.000 NA
ATOM     17  N   UNL     1       5.555  15.338  19.580  0.00  0.00    +0.000 N 
ATOM     18  C   UNL     1       4.549  14.868  18.787  0.00  0.00    +0.000 A 
BRANCH  17  19
ATOM     19  C   UNL     1       6.856  15.804  19.115  0.00  0.00    +0.000 C 
ATOM     20  C   UNL     1       7.243  15.215  17.757  0.00  0.00    +0.000 C 
ATOM     21  C   UNL     1       7.751  13.781  17.871  0.00  0.00    +0.000 C 
ATOM     22  N   UNL     1       8.833  13.653  18.848  0.00  0.00    +0.000 NA
ATOM     23  C   UNL     1       8.438  14.130  20.177  0.00  0.00    +0.000 C 
ATOM     24  C   UNL     1       7.959  15.580  20.152  0.00  0.00    +0.000 C 
ATOM     25  H   UNL     1       9.650  14.169  18.530  0.00  0.00    +0.000 HD
ENDBRANCH  17  19
ENDBRANCH   8  14
BRANCH   5  26
ATOM     26  C   UNL     1       1.421   8.206  19.156  0.00  0.00    +0.000 C 
ATOM     27  C   UNL     1       1.571   8.086  20.685  0.00  0.00    +0.000 C 
BRANCH  26  28
ATOM     28  C   UNL     1       2.405   7.253  18.426  0.00  0.00    +0.000 A 
ATOM     29  C   UNL     1       3.448   7.771  17.637  0.00  0.00    +0.000 A 
ATOM     30  C   UNL     1       4.417   6.940  17.068  0.00  0.00    +0.000 A 
ATOM     31  C   UNL     1       4.324   5.560  17.194  0.00  0.00    +0.000 A 
ATOM     32  C   UNL     1       3.221   4.993  17.836  0.00  0.00    +0.000 A 
ATOM     33  C   UNL     1       2.284   5.844  18.471  0.00  0.00    +0.000 A 
BRANCH  32  34
ATOM     34  C   UNL     1       3.009   3.494  17.785  0.00  0.00    +0.000 C 
ATOM     35  F   UNL     1       2.139   3.036  18.731  0.00  0.00    +0.000 F 
ATOM     36  F   UNL     1       2.522   3.060  16.591  0.00  0.00    +0.000 F 
ATOM     37  F   UNL     1       4.167   2.804  17.992  0.00  0.00    +0.000 F 
ENDBRANCH  32  34
ENDBRANCH  26  28
ENDBRANCH   5  26
TORSDOF 5
ENDMDL
MODEL 4
REMARK VINA RESULT:      -8.3      1.999      2.640
REMARK  Name = 
REMARK  7 active torsions:
REMARK  status: ('A' for Active; 'I' for Inactive)
REMARK    1  A    between atoms: C_1  and  C_2
REMARK    2  A    between atoms: N_5  and  C_6
REMARK    3  A    between atoms: C_6  and  C_7
REMARK    4  A    between atoms: C_6  and  C_8
REMARK    5  A    between atoms: C_12  and  C_13
REMARK    6  A    between atoms: C_20  and  C_21
REMARK    7  A    between atoms: N_24  and  C_25
REMARK                            x       y       z     vdW  Elec       q    Type
REMARK                         _______ _______ _______ _____ _____    ______ ____
ROOT
ATOM      1  C   UNL     1       4.433   2.119  20.044  0.00  0.00    +0.000 C 
ATOM      2  C   UNL     1       3.948   3.497  19.742  0.00  0.00    +0.000 A 
ATOM      3  N   UNL     1       4.631   4.261  18.859  0.00  0.00    +0.000 NA
ATOM      4  C   UNL     1       4.223   5.530  18.690  0.00  0.00    +0.000 A 
ATOM      5  N   UNL     1       4.901   6.365  17.767  0.00  0.00    +0.000 N 
ATOM      6  C   UNL     1       3.102   6.039  19.393  0.00  0.00    +0.000 A 
ATOM      7  C   UNL     1       2.620   7.372  19.342  0.00  0.00    +0.000 A 
ATOM      8  C   UNL     1       1.570   7.794  20.166  0.00  0.00    +0.000 A 
ATOM      9  C   UNL     1       0.939   6.867  20.994  0.00  0.00    +0.000 A 
ATOM     10  C   UNL     1       1.385   5.555  21.020  0.00  0.00    +0.000 A 
ATOM     11  C   UNL     1       2.457   5.136  20.255  0.00  0.00    +0.000 A 
ATOM     12  N   UNL     1       2.874   3.890  20.430  0.00  0.00    +0.000 NA
ATOM     13  H   UNL     1       4.869   7.329  18.080  0.00  0.00    +0.000 HD
ENDROOT
BRANCH   8  14
ATOM     14  C   UNL     1       1.142   9.171  20.170  0.00  0.00    +0.000 A 
ATOM     15  C   UNL     1       1.217  10.168  21.158  0.00  0.00    +0.000 A 
ATOM     16  N   UNL     1       0.707  11.326  20.741  0.00  0.00    +0.000 NA
ATOM     17  N   UNL     1       0.303  11.076  19.483  0.00  0.00    +0.000 N 
ATOM     18  C   UNL     1       0.513   9.782  19.108  0.00  0.00    +0.000 A 
BRANCH  17  19
ATOM     19  C   UNL     1      -0.285  12.118  18.649  0.00  0.00    +0.000 C 
ATOM     20  C   UNL     1      -0.700  13.353  19.452  0.00  0.00    +0.000 C 
ATOM     21  C   UNL     1      -2.018  13.145  20.194  0.00  0.00    +0.000 C 
ATOM     22  N   UNL     1      -3.086  12.688  19.305  0.00  0.00    +0.000 NA
ATOM     23  C   UNL     1      -2.731  11.452  18.600  0.00  0.00    +0.000 C 
ATOM     24  C   UNL     1      -1.442  11.597  17.795  0.00  0.00    +0.000 C 
ATOM     25  H   UNL     1      -3.309  13.414  18.627  0.00  0.00    +0.000 HD
ENDBRANCH  17  19
ENDBRANCH   8  14
BRANCH   5  26
ATOM     26  C   UNL     1       6.298   6.046  17.388  0.00  0.00    +0.000 C 
ATOM     27  C   UNL     1       7.069   7.375  17.265  0.00  0.00    +0.000 C 
BRANCH  26  28
ATOM     28  C   UNL     1       6.295   5.279  16.038  0.00  0.00    +0.000 A 
ATOM     29  C   UNL     1       5.526   4.112  15.882  0.00  0.00    +0.000 A 
ATOM     30  C   UNL     1       5.412   3.472  14.644  0.00  0.00    +0.000 A 
ATOM     31  C   UNL     1       6.132   3.926  13.547  0.00  0.00    +0.000 A 
ATOM     32  C   UNL     1       7.028   4.987  13.693  0.00  0.00    +0.000 A 
ATOM     33  C   UNL     1       7.083   5.673  14.931  0.00  0.00    +0.000 A 
BRANCH  32  34
ATOM     34  C   UNL     1       7.969   5.339  12.560  0.00  0.00    +0.000 C 
ATOM     35  F   UNL     1       7.680   6.533  11.966  0.00  0.00    +0.000 F 
ATOM     36  F   UNL     1       9.270   5.422  12.947  0.00  0.00    +0.000 F 
ATOM     37  F   UNL     1       7.933   4.416  11.557  0.00  0.00    +0.000 F 
ENDBRANCH  32  34
ENDBRANCH  26  28
ENDBRANCH   5  26
TORSDOF 5
ENDMDL
MODEL 5
REMARK VINA RESULT:      -8.1      4.508      8.876
REMARK  Name = 
REMARK  7 active torsions:
REMARK  status: ('A' for Active; 'I' for Inactive)
REMARK    1  A    between atoms: C_1  and  C_2
REMARK    2  A    between atoms: N_5  and  C_6
REMARK    3  A    between atoms: C_6  and  C_7
REMARK    4  A    between atoms: C_6  and  C_8
REMARK    5  A    between atoms: C_12  and  C_13
REMARK    6  A    between atoms: C_20  and  C_21
REMARK    7  A    between atoms: N_24  and  C_25
REMARK                            x       y       z     vdW  Elec       q    Type
REMARK                         _______ _______ _______ _____ _____    ______ ____
ROOT
ATOM      1  C   UNL     1       3.210  14.462  18.539  0.00  0.00    +0.000 C 
ATOM      2  C   UNL     1       1.988  13.847  19.135  0.00  0.00    +0.000 A 
ATOM      3  N   UNL     1       1.840  12.503  19.101  0.00  0.00    +0.000 NA
ATOM      4  C   UNL     1       0.682  11.995  19.555  0.00  0.00    +0.000 A 
ATOM      5  N   UNL     1       0.485  10.591  19.549  0.00  0.00    +0.000 N 
ATOM      6  C   UNL     1      -0.334  12.835  20.074  0.00  0.00    +0.000 A 
ATOM      7  C   UNL     1      -1.614  12.419  20.520  0.00  0.00    +0.000 A 
ATOM      8  C   UNL     1      -2.584  13.352  20.910  0.00  0.00    +0.000 A 
ATOM      9  C   UNL     1      -2.256  14.706  20.931  0.00  0.00    +0.000 A 
ATOM     10  C   UNL     1      -0.994  15.113  20.528  0.00  0.00    +0.000 A 
ATOM     11  C   UNL     1      -0.045  14.211  20.086  0.00  0.00    +0.000 A 
ATOM     12  N   UNL     1       1.092  14.708  19.622  0.00  0.00    +0.000 NA
ATOM     13  H   UNL     1      -0.496  10.377  19.412  0.00  0.00    +0.000 HD
ENDROOT
BRANCH   8  14
ATOM     14  C   UNL     1      -3.910  12.925  21.283  0.00  0.00    +0.000 A 
ATOM     15  C   UNL     1      -4.486  12.660  22.537  0.00  0.00    +0.000 A 
ATOM     16  N   UNL     1      -5.763  12.295  22.435  0.00  0.00    +0.000 NA
ATOM     17  N   UNL     1      -6.011  12.325  21.114  0.00  0.00    +0.000 N 
ATOM     18  C   UNL     1      -4.914  12.665  20.377  0.00  0.00    +0.000 A 
BRANCH  17  19
ATOM     19  C   UNL     1      -7.334  12.023  20.578  0.00  0.00    +0.000 C 
ATOM     20  C   UNL     1      -7.916  10.726  21.142  0.00  0.00    +0.000 C 
ATOM     21  C   UNL     1      -7.320   9.487  20.479  0.00  0.00    +0.000 C 
ATOM     22  N   UNL     1      -7.417   9.539  19.020  0.00  0.00    +0.000 NA
ATOM     23  C   UNL     1      -6.778  10.736  18.464  0.00  0.00    +0.000 C 
ATOM     24  C   UNL     1      -7.357  12.023  19.048  0.00  0.00    +0.000 C 
ATOM     25  H   UNL     1      -8.394   9.512  18.736  0.00  0.00    +0.000 HD
ENDBRANCH  17  19
ENDBRANCH   8  14
BRANCH   5  26
ATOM     26  C   UNL     1       1.278   9.750  18.621  0.00  0.00    +0.000 C 
ATOM     27  C   UNL     1       0.416   9.482  17.372  0.00  0.00    +0.000 C 
BRANCH  26  28
ATOM     28  C   UNL     1       1.650   8.421  19.333  0.00  0.00    +0.000 A 
ATOM     29  C   UNL     1       1.187   8.154  20.634  0.00  0.00    +0.000 A 
ATOM     30  C   UNL     1       1.407   6.919  21.249  0.00  0.00    +0.000 A 
ATOM     31  C   UNL     1       2.173   5.945  20.622  0.00  0.00    +0.000 A 
ATOM     32  C   UNL     1       2.783   6.222  19.397  0.00  0.00    +0.000 A 
ATOM     33  C   UNL     1       2.495   7.448  18.749  0.00  0.00    +0.000 A 
BRANCH  32  34
ATOM     34  C   UNL     1       3.788   5.248  18.819  0.00  0.00    +0.000 C 
ATOM     35  F   UNL     1       3.841   4.061  19.488  0.00  0.00    +0.000 F 
ATOM     36  F   UNL     1       3.545   4.931  17.519  0.00  0.00    +0.000 F 
ATOM     37  F   UNL     1       5.060   5.741  18.854  0.00  0.00    +0.000 F 
ENDBRANCH  32  34
ENDBRANCH  26  28
ENDBRANCH   5  26
TORSDOF 5
ENDMDL
MODEL 6
REMARK VINA RESULT:      -8.1      4.558     10.072
REMARK  Name = 
REMARK  7 active torsions:
REMARK  status: ('A' for Active; 'I' for Inactive)
REMARK    1  A    between atoms: C_1  and  C_2
REMARK    2  A    between atoms: N_5  and  C_6
REMARK    3  A    between atoms: C_6  and  C_7
REMARK    4  A    between atoms: C_6  and  C_8
REMARK    5  A    between atoms: C_12  and  C_13
REMARK    6  A    between atoms: C_20  and  C_21
REMARK    7  A    between atoms: N_24  and  C_25
REMARK                            x       y       z     vdW  Elec       q    Type
REMARK                         _______ _______ _______ _____ _____    ______ ____
ROOT
ATOM      1  C   UNL     1      -2.102  11.745  23.475  0.00  0.00    +0.000 C 
ATOM      2  C   UNL     1      -1.070  11.252  22.518  0.00  0.00    +0.000 A 
ATOM      3  N   UNL     1      -0.554  12.104  21.604  0.00  0.00    +0.000 NA
ATOM      4  C   UNL     1       0.297  11.598  20.695  0.00  0.00    +0.000 A 
ATOM      5  N   UNL     1       0.872  12.455  19.723  0.00  0.00    +0.000 N 
ATOM      6  C   UNL     1       0.659  10.228  20.712  0.00  0.00    +0.000 A 
ATOM      7  C   UNL     1       1.494   9.574  19.772  0.00  0.00    +0.000 A 
ATOM      8  C   UNL     1       1.695   8.188  19.821  0.00  0.00    +0.000 A 
ATOM      9  C   UNL     1       1.124   7.455  20.860  0.00  0.00    +0.000 A 
ATOM     10  C   UNL     1       0.335   8.097  21.801  0.00  0.00    +0.000 A 
ATOM     11  C   UNL     1       0.081   9.454  21.733  0.00  0.00    +0.000 A 
ATOM     12  N   UNL     1      -0.770   9.955  22.617  0.00  0.00    +0.000 NA
ATOM     13  H   UNL     1       1.041  11.945  18.864  0.00  0.00    +0.000 HD
ENDROOT
BRANCH   8  14
ATOM     14  C   UNL     1       2.477   7.519  18.811  0.00  0.00    +0.000 A 
ATOM     15  C   UNL     1       3.154   8.008  17.681  0.00  0.00    +0.000 A 
ATOM     16  N   UNL     1       3.772   7.038  17.009  0.00  0.00    +0.000 NA
ATOM     17  N   UNL     1       3.494   5.923  17.706  0.00  0.00    +0.000 N 
ATOM     18  C   UNL     1       2.688   6.159  18.781  0.00  0.00    +0.000 A 
BRANCH  17  19
ATOM     19  C   UNL     1       4.030   4.624  17.315  0.00  0.00    +0.000 C 
ATOM     20  C   UNL     1       4.378   3.743  18.516  0.00  0.00    +0.000 C 
ATOM     21  C   UNL     1       5.702   4.141  19.161  0.00  0.00    +0.000 C 
ATOM     22  N   UNL     1       6.796   4.197  18.192  0.00  0.00    +0.000 NA
ATOM     23  C   UNL     1       6.508   5.113  17.083  0.00  0.00    +0.000 C 
ATOM     24  C   UNL     1       5.215   4.749  16.355  0.00  0.00    +0.000 C 
ATOM     25  H   UNL     1       6.983   3.266  17.825  0.00  0.00    +0.000 HD
ENDBRANCH  17  19
ENDBRANCH   8  14
BRANCH   5  26
ATOM     26  C   UNL     1       0.191  13.727  19.382  0.00  0.00    +0.000 C 
ATOM     27  C   UNL     1      -0.713  13.465  18.161  0.00  0.00    +0.000 C 
BRANCH  26  28
ATOM     28  C   UNL     1       1.261  14.804  19.058  0.00  0.00    +0.000 A 
ATOM     29  C   UNL     1       0.875  16.110  18.704  0.00  0.00    +0.000 A 
ATOM     30  C   UNL     1       1.816  17.128  18.526  0.00  0.00    +0.000 A 
ATOM     31  C   UNL     1       3.175  16.854  18.607  0.00  0.00    +0.000 A 
ATOM     32  C   UNL     1       3.609  15.541  18.803  0.00  0.00    +0.000 A 
ATOM     33  C   UNL     1       2.649  14.531  19.054  0.00  0.00    +0.000 A 
BRANCH  32  34
ATOM     34  C   UNL     1       5.081  15.208  18.675  0.00  0.00    +0.000 C 
ATOM     35  F   UNL     1       5.368  14.420  17.599  0.00  0.00    +0.000 F 
ATOM     36  F   UNL     1       5.873  16.307  18.552  0.00  0.00    +0.000 F 
ATOM     37  F   UNL     1       5.550  14.527  19.760  0.00  0.00    +0.000 F 
ENDBRANCH  32  34
ENDBRANCH  26  28
ENDBRANCH   5  26
TORSDOF 5
ENDMDL
MODEL 7
REMARK VINA RESULT:      -7.9      4.315      8.575
REMARK  Name = 
REMARK  7 active torsions:
REMARK  status: ('A' for Active; 'I' for Inactive)
REMARK    1  A    between atoms: C_1  and  C_2
REMARK    2  A    between atoms: N_5  and  C_6
REMARK    3  A    between atoms: C_6  and  C_7
REMARK    4  A    between atoms: C_6  and  C_8
REMARK    5  A    between atoms: C_12  and  C_13
REMARK    6  A    between atoms: C_20  and  C_21
REMARK    7  A    between atoms: N_24  and  C_25
REMARK                            x       y       z     vdW  Elec       q    Type
REMARK                         _______ _______ _______ _____ _____    ______ ____
ROOT
ATOM      1  C   UNL     1       3.385  14.213  18.355  0.00  0.00    +0.000 C 
ATOM      2  C   UNL     1       2.256  13.634  19.139  0.00  0.00    +0.000 A 
ATOM      3  N   UNL     1       1.911  12.340  18.948  0.00  0.00    +0.000 NA
ATOM      4  C   UNL     1       0.826  11.884  19.597  0.00  0.00    +0.000 A 
ATOM      5  N   UNL     1       0.433  10.532  19.437  0.00  0.00    +0.000 N 
ATOM      6  C   UNL     1       0.086  12.723  20.467  0.00  0.00    +0.000 A 
ATOM      7  C   UNL     1      -1.104  12.372  21.152  0.00  0.00    +0.000 A 
ATOM      8  C   UNL     1      -1.816  13.318  21.901  0.00  0.00    +0.000 A 
ATOM      9  C   UNL     1      -1.301  14.606  22.036  0.00  0.00    +0.000 A 
ATOM     10  C   UNL     1      -0.118  14.943  21.396  0.00  0.00    +0.000 A 
ATOM     11  C   UNL     1       0.566  14.037  20.607  0.00  0.00    +0.000 A 
ATOM     12  N   UNL     1       1.627  14.485  19.952  0.00  0.00    +0.000 NA
ATOM     13  H   UNL     1      -0.574  10.449  19.517  0.00  0.00    +0.000 HD
ENDROOT
BRANCH   8  14
ATOM     14  C   UNL     1      -3.070  12.975  22.525  0.00  0.00    +0.000 A 
ATOM     15  C   UNL     1      -3.371  12.495  23.811  0.00  0.00    +0.000 A 
ATOM     16  N   UNL     1      -4.679  12.315  23.986  0.00  0.00    +0.000 NA
ATOM     17  N   UNL     1      -5.222  12.679  22.811  0.00  0.00    +0.000 N 
ATOM     18  C   UNL     1      -4.289  13.051  21.888  0.00  0.00    +0.000 A 
BRANCH  17  19
ATOM     19  C   UNL     1      -6.666  12.666  22.601  0.00  0.00    +0.000 C 
ATOM     20  C   UNL     1      -7.098  13.534  21.418  0.00  0.00    +0.000 C 
ATOM     21  C   UNL     1      -7.120  15.020  21.767  0.00  0.00    +0.000 C 
ATOM     22  N   UNL     1      -7.916  15.295  22.964  0.00  0.00    +0.000 NA
ATOM     23  C   UNL     1      -7.448  14.534  24.127  0.00  0.00    +0.000 C 
ATOM     24  C   UNL     1      -7.442  13.029  23.868  0.00  0.00    +0.000 C 
ATOM     25  H   UNL     1      -8.895  15.078  22.787  0.00  0.00    +0.000 HD
ENDBRANCH  17  19
ENDBRANCH   8  14
BRANCH   5  26
ATOM     26  C   UNL     1       0.865   9.788  18.230  0.00  0.00    +0.000 C 
ATOM     27  C   UNL     1      -0.399   9.394  17.440  0.00  0.00    +0.000 C 
BRANCH  26  28
ATOM     28  C   UNL     1       1.659   8.528  18.667  0.00  0.00    +0.000 A 
ATOM     29  C   UNL     1       1.502   7.999  19.961  0.00  0.00    +0.000 A 
ATOM     30  C   UNL     1       2.112   6.799  20.340  0.00  0.00    +0.000 A 
ATOM     31  C   UNL     1       2.969   6.139  19.469  0.00  0.00    +0.000 A 
ATOM     32  C   UNL     1       3.277   6.707  18.231  0.00  0.00    +0.000 A 
ATOM     33  C   UNL     1       2.599   7.883  17.828  0.00  0.00    +0.000 A 
BRANCH  32  34
ATOM     34  C   UNL     1       4.371   6.103  17.377  0.00  0.00    +0.000 C 
ATOM     35  F   UNL     1       4.132   4.807  17.024  0.00  0.00    +0.000 F 
ATOM     36  F   UNL     1       4.577   6.773  16.212  0.00  0.00    +0.000 F 
ATOM     37  F   UNL     1       5.575   6.087  18.018  0.00  0.00    +0.000 F 
ENDBRANCH  32  34
ENDBRANCH  26  28
ENDBRANCH   5  26
TORSDOF 5
ENDMDL
MODEL 8
REMARK VINA RESULT:      -7.9      4.953      8.492
REMARK  Name = 
REMARK  7 active torsions:
REMARK  status: ('A' for Active; 'I' for Inactive)
REMARK    1  A    between atoms: C_1  and  C_2
REMARK    2  A    between atoms: N_5  and  C_6
REMARK    3  A    between atoms: C_6  and  C_7
REMARK    4  A    between atoms: C_6  and  C_8
REMARK    5  A    between atoms: C_12  and  C_13
REMARK    6  A    between atoms: C_20  and  C_21
REMARK    7  A    between atoms: N_24  and  C_25
REMARK                            x       y       z     vdW  Elec       q    Type
REMARK                         _______ _______ _______ _____ _____    ______ ____
ROOT
ATOM      1  C   UNL     1      -2.973  10.603  17.924  0.00  0.00    +0.000 C 
ATOM      2  C   UNL     1      -1.643  11.108  18.371  0.00  0.00    +0.000 A 
ATOM      3  N   UNL     1      -0.813  10.280  19.046  0.00  0.00    +0.000 NA
ATOM      4  C   UNL     1       0.332  10.800  19.521  0.00  0.00    +0.000 A 
ATOM      5  N   UNL     1       1.238   9.968  20.225  0.00  0.00    +0.000 N 
ATOM      6  C   UNL     1       0.668  12.158  19.298  0.00  0.00    +0.000 A 
ATOM      7  C   UNL     1       1.812  12.828  19.800  0.00  0.00    +0.000 A 
ATOM      8  C   UNL     1       1.987  14.205  19.611  0.00  0.00    +0.000 A 
ATOM      9  C   UNL     1       1.058  14.910  18.849  0.00  0.00    +0.000 A 
ATOM     10  C   UNL     1      -0.044  14.251  18.327  0.00  0.00    +0.000 A 
ATOM     11  C   UNL     1      -0.262  12.905  18.553  0.00  0.00    +0.000 A 
ATOM     12  N   UNL     1      -1.397  12.391  18.102  0.00  0.00    +0.000 NA
ATOM     13  H   UNL     1       1.737  10.507  20.922  0.00  0.00    +0.000 HD
ENDROOT
BRANCH   8  14
ATOM     14  C   UNL     1       3.110  14.894  20.197  0.00  0.00    +0.000 A 
ATOM     15  C   UNL     1       3.519  15.040  21.534  0.00  0.00    +0.000 A 
ATOM     16  N   UNL     1       4.637  15.757  21.641  0.00  0.00    +0.000 NA
ATOM     17  N   UNL     1       4.949  16.072  20.371  0.00  0.00    +0.000 N 
ATOM     18  C   UNL     1       4.039  15.604  19.470  0.00  0.00    +0.000 A 
BRANCH  17  19
ATOM     19  C   UNL     1       6.151  16.832  20.048  0.00  0.00    +0.000 C 
ATOM     20  C   UNL     1       6.547  16.712  18.575  0.00  0.00    +0.000 C 
ATOM     21  C   UNL     1       7.249  15.392  18.270  0.00  0.00    +0.000 C 
ATOM     22  N   UNL     1       8.385  15.151  19.160  0.00  0.00    +0.000 NA
ATOM     23  C   UNL     1       7.995  15.172  20.574  0.00  0.00    +0.000 C 
ATOM     24  C   UNL     1       7.324  16.487  20.968  0.00  0.00    +0.000 C 
ATOM     25  H   UNL     1       9.109  15.848  18.996  0.00  0.00    +0.000 HD
ENDBRANCH  17  19
ENDBRANCH   8  14
BRANCH   5  26
ATOM     26  C   UNL     1       0.738   8.728  20.867  0.00  0.00    +0.000 C 
ATOM     27  C   UNL     1       1.012   8.837  22.380  0.00  0.00    +0.000 C 
BRANCH  26  28
ATOM     28  C   UNL     1       1.476   7.507  20.256  0.00  0.00    +0.000 A 
ATOM     29  C   UNL     1       2.206   7.638  19.061  0.00  0.00    +0.000 A 
ATOM     30  C   UNL     1       2.976   6.587  18.555  0.00  0.00    +0.000 A 
ATOM     31  C   UNL     1       2.969   5.346  19.176  0.00  0.00    +0.000 A 
ATOM     32  C   UNL     1       2.138   5.123  20.276  0.00  0.00    +0.000 A 
ATOM     33  C   UNL     1       1.418   6.212  20.824  0.00  0.00    +0.000 A 
BRANCH  32  34
ATOM     34  C   UNL     1       1.967   3.720  20.818  0.00  0.00    +0.000 C 
ATOM     35  F   UNL     1       2.238   3.615  22.151  0.00  0.00    +0.000 F 
ATOM     36  F   UNL     1       0.708   3.230  20.656  0.00  0.00    +0.000 F 
ATOM     37  F   UNL     1       2.798   2.827  20.207  0.00  0.00    +0.000 F 
ENDBRANCH  32  34
ENDBRANCH  26  28
ENDBRANCH   5  26
TORSDOF 5
ENDMDL
MODEL 9
REMARK VINA RESULT:      -7.9      4.910     11.265
REMARK  Name = 
REMARK  7 active torsions:
REMARK  status: ('A' for Active; 'I' for Inactive)
REMARK    1  A    between atoms: C_1  and  C_2
REMARK    2  A    between atoms: N_5  and  C_6
REMARK    3  A    between atoms: C_6  and  C_7
REMARK    4  A    between atoms: C_6  and  C_8
REMARK    5  A    between atoms: C_12  and  C_13
REMARK    6  A    between atoms: C_20  and  C_21
REMARK    7  A    between atoms: N_24  and  C_25
REMARK                            x       y       z     vdW  Elec       q    Type
REMARK                         _______ _______ _______ _____ _____    ______ ____
ROOT
ATOM      1  C   UNL     1       0.816  15.238  18.648  0.00  0.00    +0.000 C 
ATOM      2  C   UNL     1       0.684  13.766  18.851  0.00  0.00    +0.000 A 
ATOM      3  N   UNL     1      -0.259  13.296  19.700  0.00  0.00    +0.000 NA
ATOM      4  C   UNL     1      -0.280  11.973  19.934  0.00  0.00    +0.000 A 
ATOM      5  N   UNL     1      -1.257  11.433  20.807  0.00  0.00    +0.000 N 
ATOM      6  C   UNL     1       0.636  11.101  19.294  0.00  0.00    +0.000 A 
ATOM      7  C   UNL     1       0.748   9.704  19.510  0.00  0.00    +0.000 A 
ATOM      8  C   UNL     1       1.766   8.956  18.905  0.00  0.00    +0.000 A 
ATOM      9  C   UNL     1       2.636   9.585  18.017  0.00  0.00    +0.000 A 
ATOM     10  C   UNL     1       2.507  10.945  17.776  0.00  0.00    +0.000 A 
ATOM     11  C   UNL     1       1.544  11.707  18.409  0.00  0.00    +0.000 A 
ATOM     12  N   UNL     1       1.570  13.015  18.195  0.00  0.00    +0.000 NA
ATOM     13  H   UNL     1      -0.888  10.618  21.282  0.00  0.00    +0.000 HD
ENDROOT
BRANCH   8  14
ATOM     14  C   UNL     1       1.924   7.553  19.196  0.00  0.00    +0.000 A 
ATOM     15  C   UNL     1       1.789   6.828  20.393  0.00  0.00    +0.000 A 
ATOM     16  N   UNL     1       2.015   5.527  20.219  0.00  0.00    +0.000 NA
ATOM     17  N   UNL     1       2.296   5.412  18.909  0.00  0.00    +0.000 N 
ATOM     18  C   UNL     1       2.287   6.612  18.259  0.00  0.00    +0.000 A 
BRANCH  17  19
ATOM     19  C   UNL     1       2.567   4.116  18.298  0.00  0.00    +0.000 C 
ATOM     20  C   UNL     1       2.661   2.987  19.325  0.00  0.00    +0.000 C 
ATOM     21  C   UNL     1       4.004   2.973  20.050  0.00  0.00    +0.000 C 
ATOM     22  N   UNL     1       5.134   2.958  19.121  0.00  0.00    +0.000 NA
ATOM     23  C   UNL     1       5.101   4.092  18.191  0.00  0.00    +0.000 C 
ATOM     24  C   UNL     1       3.800   4.146  17.393  0.00  0.00    +0.000 C 
ATOM     25  H   UNL     1       5.139   2.086  18.595  0.00  0.00    +0.000 HD
ENDBRANCH  17  19
ENDBRANCH   8  14
BRANCH   5  26
ATOM     26  C   UNL     1      -1.892  12.312  21.819  0.00  0.00    +0.000 C 
ATOM     27  C   UNL     1      -1.784  11.611  23.188  0.00  0.00    +0.000 C 
BRANCH  26  28
ATOM     28  C   UNL     1      -3.378  12.541  21.430  0.00  0.00    +0.000 A 
ATOM     29  C   UNL     1      -4.332  12.859  22.413  0.00  0.00    +0.000 A 
ATOM     30  C   UNL     1      -5.648  13.187  22.076  0.00  0.00    +0.000 A 
ATOM     31  C   UNL     1      -6.075  13.121  20.757  0.00  0.00    +0.000 A 
ATOM     32  C   UNL     1      -5.205  12.661  19.766  0.00  0.00    +0.000 A 
ATOM     33  C   UNL     1      -3.855  12.400  20.105  0.00  0.00    +0.000 A 
BRANCH  32  34
ATOM     34  C   UNL     1      -5.730  12.383  18.373  0.00  0.00    +0.000 C 
ATOM     35  F   UNL     1      -4.837  11.726  17.578  0.00  0.00    +0.000 F 
ATOM     36  F   UNL     1      -6.861  11.628  18.365  0.00  0.00    +0.000 F 
ATOM     37  F   UNL     1      -6.039  13.529  17.702  0.00  0.00    +0.000 F 
ENDBRANCH  32  34
ENDBRANCH  26  28
ENDBRANCH   5  26
TORSDOF 5
ENDMDL
