MODEL 1
REMARK VINA RESULT:      -6.6      0.000      0.000
REMARK  Name = 
REMARK  1 active torsions:
REMARK  status: ('A' for Active; 'I' for Inactive)
REMARK    1  A    between atoms: C_5  and  C_6
REMARK                            x       y       z     vdW  Elec       q    Type
REMARK                         _______ _______ _______ _____ _____    ______ ____
ROOT
ATOM      1  F   UNL     1       0.979   2.568  22.138  0.00  0.00    +0.000 F 
ATOM      2  C   UNL     1       1.674   3.085  21.116  0.00  0.00    +0.000 A 
ATOM      3  C   UNL     1       1.091   4.047  20.307  0.00  0.00    +0.000 A 
ATOM      4  C   UNL     1       1.813   4.571  19.229  0.00  0.00    +0.000 A 
ATOM      5  C   UNL     1       3.130   4.154  18.952  0.00  0.00    +0.000 A 
ATOM      6  C   UNL     1       3.691   3.183  19.804  0.00  0.00    +0.000 A 
ATOM      7  C   UNL     1       2.967   2.645  20.873  0.00  0.00    +0.000 A 
ENDROOT
BRANCH   5   8
ATOM      8  C   UNL     1       3.882   4.701  17.793  0.00  0.00    +0.000 A 
ATOM      9  C   UNL     1       4.469   3.856  16.831  0.00  0.00    +0.000 A 
ATOM     10  C   UNL     1       5.218   4.368  15.766  0.00  0.00    +0.000 A 
ATOM     11  C   UNL     1       5.383   5.741  15.624  0.00  0.00    +0.000 A 
ATOM     12  C   UNL     1       4.797   6.602  16.547  0.00  0.00    +0.000 A 
ATOM     13  C   UNL     1       4.060   6.087  17.619  0.00  0.00    +0.000 A 
ENDBRANCH   5   8
TORSDOF 1
ENDMDL
MODEL 2
REMARK VINA RESULT:      -6.6      0.080      1.887
REMARK  Name = 
REMARK  1 active torsions:
REMARK  status: ('A' for Active; 'I' for Inactive)
REMARK    1  A    between atoms: C_5  and  C_6
REMARK                            x       y       z     vdW  Elec       q    Type
REMARK                         _______ _______ _______ _____ _____    ______ ____
ROOT
ATOM      1  F   UNL     1       0.933   2.527  22.118  0.00  0.00    +0.000 F 
ATOM      2  C   UNL     1       1.629   3.028  21.090  0.00  0.00    +0.000 A 
ATOM      3  C   UNL     1       2.946   2.639  20.899  0.00  0.00    +0.000 A 
ATOM      4  C   UNL     1       3.677   3.177  19.834  0.00  0.00    +0.000 A 
ATOM      5  C   UNL     1       3.102   4.100  18.938  0.00  0.00    +0.000 A 
ATOM      6  C   UNL     1       1.759   4.461  19.158  0.00  0.00    +0.000 A 
ATOM      7  C   UNL     1       1.029   3.937  20.231  0.00  0.00    +0.000 A 
ENDROOT
BRANCH   5   8
ATOM      8  C   UNL     1       3.892   4.682  17.822  0.00  0.00    +0.000 A 
ATOM      9  C   UNL     1       4.029   6.075  17.666  0.00  0.00    +0.000 A 
ATOM     10  C   UNL     1       4.731   6.626  16.589  0.00  0.00    +0.000 A 
ATOM     11  C   UNL     1       5.334   5.796  15.650  0.00  0.00    +0.000 A 
ATOM     12  C   UNL     1       5.234   4.415  15.790  0.00  0.00    +0.000 A 
ATOM     13  C   UNL     1       4.518   3.868  16.860  0.00  0.00    +0.000 A 
ENDBRANCH   5   8
TORSDOF 1
ENDMDL
MODEL 3
REMARK VINA RESULT:      -6.6      0.292      1.332
REMARK  Name = 
REMARK  1 active torsions:
REMARK  status: ('A' for Active; 'I' for Inactive)
REMARK    1  A    between atoms: C_5  and  C_6
REMARK                            x       y       z     vdW  Elec       q    Type
REMARK                         _______ _______ _______ _____ _____    ______ ____
ROOT
ATOM      1  F   UNL     1       0.903   2.566  21.929  0.00  0.00    +0.000 F 
ATOM      2  C   UNL     1       1.606   3.053  20.899  0.00  0.00    +0.000 A 
ATOM      3  C   UNL     1       2.985   2.914  20.883  0.00  0.00    +0.000 A 
ATOM      4  C   UNL     1       3.719   3.439  19.814  0.00  0.00    +0.000 A 
ATOM      5  C   UNL     1       3.089   4.099  18.740  0.00  0.00    +0.000 A 
ATOM      6  C   UNL     1       1.685   4.210  18.787  0.00  0.00    +0.000 A 
ATOM      7  C   UNL     1       0.949   3.699  19.862  0.00  0.00    +0.000 A 
ENDROOT
BRANCH   5   8
ATOM      8  C   UNL     1       3.878   4.672  17.619  0.00  0.00    +0.000 A 
ATOM      9  C   UNL     1       4.457   3.852  16.632  0.00  0.00    +0.000 A 
ATOM     10  C   UNL     1       5.240   4.385  15.603  0.00  0.00    +0.000 A 
ATOM     11  C   UNL     1       5.448   5.758  15.524  0.00  0.00    +0.000 A 
ATOM     12  C   UNL     1       4.871   6.596  16.472  0.00  0.00    +0.000 A 
ATOM     13  C   UNL     1       4.100   6.057  17.509  0.00  0.00    +0.000 A 
ENDBRANCH   5   8
TORSDOF 1
ENDMDL
MODEL 4
REMARK VINA RESULT:      -6.6      0.138      1.340
REMARK  Name = 
REMARK  1 active torsions:
REMARK  status: ('A' for Active; 'I' for Inactive)
REMARK    1  A    between atoms: C_5  and  C_6
REMARK                            x       y       z     vdW  Elec       q    Type
REMARK                         _______ _______ _______ _____ _____    ______ ____
ROOT
ATOM      1  F   UNL     1       0.881   2.570  22.169  0.00  0.00    +0.000 F 
ATOM      2  C   UNL     1       1.601   3.102  21.173  0.00  0.00    +0.000 A 
ATOM      3  C   UNL     1       1.062   4.121  20.404  0.00  0.00    +0.000 A 
ATOM      4  C   UNL     1       1.810   4.662  19.353  0.00  0.00    +0.000 A 
ATOM      5  C   UNL     1       3.110   4.204  19.061  0.00  0.00    +0.000 A 
ATOM      6  C   UNL     1       3.627   3.175  19.872  0.00  0.00    +0.000 A 
ATOM      7  C   UNL     1       2.877   2.620  20.915  0.00  0.00    +0.000 A 
ENDROOT
BRANCH   5   8
ATOM      8  C   UNL     1       3.889   4.770  17.930  0.00  0.00    +0.000 A 
ATOM      9  C   UNL     1       4.038   6.160  17.761  0.00  0.00    +0.000 A 
ATOM     10  C   UNL     1       4.730   6.695  16.670  0.00  0.00    +0.000 A 
ATOM     11  C   UNL     1       5.311   5.852  15.729  0.00  0.00    +0.000 A 
ATOM     12  C   UNL     1       5.199   4.474  15.880  0.00  0.00    +0.000 A 
ATOM     13  C   UNL     1       4.493   3.941  16.965  0.00  0.00    +0.000 A 
ENDBRANCH   5   8
TORSDOF 1
ENDMDL
MODEL 5
REMARK VINA RESULT:      -6.5      3.011      5.506
REMARK  Name = 
REMARK  1 active torsions:
REMARK  status: ('A' for Active; 'I' for Inactive)
REMARK    1  A    between atoms: C_5  and  C_6
REMARK                            x       y       z     vdW  Elec       q    Type
REMARK                         _______ _______ _______ _____ _____    ______ ____
ROOT
ATOM      1  F   UNL     1       6.689   5.437  14.354  0.00  0.00    +0.000 F 
ATOM      2  C   UNL     1       5.816   5.229  15.349  0.00  0.00    +0.000 A 
ATOM      3  C   UNL     1       5.503   3.933  15.727  0.00  0.00    +0.000 A 
ATOM      4  C   UNL     1       4.577   3.720  16.755  0.00  0.00    +0.000 A 
ATOM      5  C   UNL     1       3.962   4.794  17.427  0.00  0.00    +0.000 A 
ATOM      6  C   UNL     1       4.315   6.096  17.021  0.00  0.00    +0.000 A 
ATOM      7  C   UNL     1       5.228   6.314  15.984  0.00  0.00    +0.000 A 
ENDROOT
BRANCH   5   8
ATOM      8  C   UNL     1       2.964   4.557  18.503  0.00  0.00    +0.000 A 
ATOM      9  C   UNL     1       2.005   3.530  18.405  0.00  0.00    +0.000 A 
ATOM     10  C   UNL     1       1.036   3.337  19.394  0.00  0.00    +0.000 A 
ATOM     11  C   UNL     1       1.013   4.154  20.519  0.00  0.00    +0.000 A 
ATOM     12  C   UNL     1       1.960   5.164  20.655  0.00  0.00    +0.000 A 
ATOM     13  C   UNL     1       2.920   5.364  19.656  0.00  0.00    +0.000 A 
ENDBRANCH   5   8
TORSDOF 1
ENDMDL
MODEL 6
REMARK VINA RESULT:      -6.5      3.047      5.640
REMARK  Name = 
REMARK  1 active torsions:
REMARK  status: ('A' for Active; 'I' for Inactive)
REMARK    1  A    between atoms: C_5  and  C_6
REMARK                            x       y       z     vdW  Elec       q    Type
REMARK                         _______ _______ _______ _____ _____    ______ ____
ROOT
ATOM      1  F   UNL     1       6.974   5.328  14.445  0.00  0.00    +0.000 F 
ATOM      2  C   UNL     1       6.041   5.158  15.391  0.00  0.00    +0.000 A 
ATOM      3  C   UNL     1       5.680   3.877  15.777  0.00  0.00    +0.000 A 
ATOM      4  C   UNL     1       4.693   3.703  16.753  0.00  0.00    +0.000 A 
ATOM      5  C   UNL     1       4.062   4.802  17.367  0.00  0.00    +0.000 A 
ATOM      6  C   UNL     1       4.464   6.088  16.956  0.00  0.00    +0.000 A 
ATOM      7  C   UNL     1       5.440   6.267  15.970  0.00  0.00    +0.000 A 
ENDROOT
BRANCH   5   8
ATOM      8  C   UNL     1       2.999   4.607  18.387  0.00  0.00    +0.000 A 
ATOM      9  C   UNL     1       2.917   5.427  19.530  0.00  0.00    +0.000 A 
ATOM     10  C   UNL     1       1.948   5.215  20.515  0.00  0.00    +0.000 A 
ATOM     11  C   UNL     1       1.021   4.188  20.374  0.00  0.00    +0.000 A 
ATOM     12  C   UNL     1       1.063   3.375  19.246  0.00  0.00    +0.000 A 
ATOM     13  C   UNL     1       2.044   3.581  18.268  0.00  0.00    +0.000 A 
ENDBRANCH   5   8
TORSDOF 1
ENDMDL
MODEL 7
REMARK VINA RESULT:      -6.5      2.103      2.672
REMARK  Name = 
REMARK  1 active torsions:
REMARK  status: ('A' for Active; 'I' for Inactive)
REMARK    1  A    between atoms: C_5  and  C_6
REMARK                            x       y       z     vdW  Elec       q    Type
REMARK                         _______ _______ _______ _____ _____    ______ ____
ROOT
ATOM      1  F   UNL     1       0.410   2.015  18.540  0.00  0.00    +0.000 F 
ATOM      2  C   UNL     1       1.519   2.742  18.353  0.00  0.00    +0.000 A 
ATOM      3  C   UNL     1       2.760   2.128  18.412  0.00  0.00    +0.000 A 
ATOM      4  C   UNL     1       3.918   2.894  18.233  0.00  0.00    +0.000 A 
ATOM      5  C   UNL     1       3.854   4.279  17.982  0.00  0.00    +0.000 A 
ATOM      6  C   UNL     1       2.574   4.864  17.918  0.00  0.00    +0.000 A 
ATOM      7  C   UNL     1       1.414   4.105  18.111  0.00  0.00    +0.000 A 
ENDROOT
BRANCH   5   8
ATOM      8  C   UNL     1       5.089   5.088  17.814  0.00  0.00    +0.000 A 
ATOM      9  C   UNL     1       6.350   4.596  18.204  0.00  0.00    +0.000 A 
ATOM     10  C   UNL     1       7.506   5.373  18.091  0.00  0.00    +0.000 A 
ATOM     11  C   UNL     1       7.435   6.660  17.567  0.00  0.00    +0.000 A 
ATOM     12  C   UNL     1       6.207   7.166  17.154  0.00  0.00    +0.000 A 
ATOM     13  C   UNL     1       5.049   6.390  17.281  0.00  0.00    +0.000 A 
ENDBRANCH   5   8
TORSDOF 1
ENDMDL
MODEL 8
REMARK VINA RESULT:      -6.5      2.114      2.527
REMARK  Name = 
REMARK  1 active torsions:
REMARK  status: ('A' for Active; 'I' for Inactive)
REMARK    1  A    between atoms: C_5  and  C_6
REMARK                            x       y       z     vdW  Elec       q    Type
REMARK                         _______ _______ _______ _____ _____    ______ ____
ROOT
ATOM      1  F   UNL     1       0.477   1.988  18.582  0.00  0.00    +0.000 F 
ATOM      2  C   UNL     1       1.569   2.760  18.497  0.00  0.00    +0.000 A 
ATOM      3  C   UNL     1       1.442   4.091  18.132  0.00  0.00    +0.000 A 
ATOM      4  C   UNL     1       2.586   4.889  18.027  0.00  0.00    +0.000 A 
ATOM      5  C   UNL     1       3.870   4.377  18.297  0.00  0.00    +0.000 A 
ATOM      6  C   UNL     1       3.957   3.023  18.676  0.00  0.00    +0.000 A 
ATOM      7  C   UNL     1       2.817   2.216  18.768  0.00  0.00    +0.000 A 
ENDROOT
BRANCH   5   8
ATOM      8  C   UNL     1       5.081   5.227  18.163  0.00  0.00    +0.000 A 
ATOM      9  C   UNL     1       5.139   6.284  17.235  0.00  0.00    +0.000 A 
ATOM     10  C   UNL     1       6.295   7.055  17.074  0.00  0.00    +0.000 A 
ATOM     11  C   UNL     1       7.419   6.800  17.852  0.00  0.00    +0.000 A 
ATOM     12  C   UNL     1       7.385   5.775  18.792  0.00  0.00    +0.000 A 
ATOM     13  C   UNL     1       6.231   4.996  18.941  0.00  0.00    +0.000 A 
ENDBRANCH   5   8
TORSDOF 1
ENDMDL
MODEL 9
REMARK VINA RESULT:      -6.5      3.051      5.496
REMARK  Name = 
REMARK  1 active torsions:
REMARK  status: ('A' for Active; 'I' for Inactive)
REMARK    1  A    between atoms: C_5  and  C_6
REMARK                            x       y       z     vdW  Elec       q    Type
REMARK                         _______ _______ _______ _____ _____    ______ ____
ROOT
ATOM      1  F   UNL     1       7.850   7.106  17.112  0.00  0.00    +0.000 F 
ATOM      2  C   UNL     1       6.722   6.539  17.558  0.00  0.00    +0.000 A 
ATOM      3  C   UNL     1       6.760   5.728  18.681  0.00  0.00    +0.000 A 
ATOM      4  C   UNL     1       5.582   5.122  19.134  0.00  0.00    +0.000 A 
ATOM      5  C   UNL     1       4.350   5.326  18.482  0.00  0.00    +0.000 A 
ATOM      6  C   UNL     1       4.351   6.166  17.351  0.00  0.00    +0.000 A 
ATOM      7  C   UNL     1       5.529   6.762  16.885  0.00  0.00    +0.000 A 
ENDROOT
BRANCH   5   8
ATOM      8  C   UNL     1       3.109   4.662  18.957  0.00  0.00    +0.000 A 
ATOM      9  C   UNL     1       2.596   4.898  20.247  0.00  0.00    +0.000 A 
ATOM     10  C   UNL     1       1.455   4.238  20.714  0.00  0.00    +0.000 A 
ATOM     11  C   UNL     1       0.784   3.338  19.893  0.00  0.00    +0.000 A 
ATOM     12  C   UNL     1       1.255   3.099  18.606  0.00  0.00    +0.000 A 
ATOM     13  C   UNL     1       2.405   3.751  18.147  0.00  0.00    +0.000 A 
ENDBRANCH   5   8
TORSDOF 1
ENDMDL
