MODEL 1
REMARK VINA RESULT:      -8.1      0.000      0.000
REMARK  Name = 
REMARK  3 active torsions:
REMARK  status: ('A' for Active; 'I' for Inactive)
REMARK    1  A    between atoms: C_1  and  O_2
REMARK    2  A    between atoms: O_2  and  C_3
REMARK    3  A    between atoms: C_6  and  C_7
REMARK                            x       y       z     vdW  Elec       q    Type
REMARK                         _______ _______ _______ _____ _____    ______ ____
ROOT
ATOM      1  C   UNL     1       3.844   4.132  19.208  0.00  0.00    +0.000 A 
ATOM      2  C   UNL     1       3.721   2.956  19.852  0.00  0.00    +0.000 A 
ATOM      3  C   UNL     1       2.719   2.927  20.953  0.00  0.00    +0.000 A 
ATOM      4  N   UNL     1       1.999   3.922  21.366  0.00  0.00    +0.000 NA
ATOM      5  C   UNL     1       2.171   5.099  20.693  0.00  0.00    +0.000 A 
ATOM      6  N   UNL     1       1.610   6.263  20.909  0.00  0.00    +0.000 NA
ATOM      7  C   UNL     1       2.101   7.061  19.919  0.00  0.00    +0.000 A 
ATOM      8  N   UNL     1       1.674   8.331  19.827  0.00  0.00    +0.000 N 
ATOM      9  C   UNL     1       0.777   8.930  20.814  0.00  0.00    +0.000 C 
ATOM     10  C   UNL     1      -0.422   9.570  20.099  0.00  0.00    +0.000 C 
ATOM     11  O   UNL     1      -0.005  10.495  19.079  0.00  0.00    +0.000 OA
ATOM     12  C   UNL     1       0.803   9.820  18.098  0.00  0.00    +0.000 C 
ATOM     13  C   UNL     1       2.064   9.209  18.728  0.00  0.00    +0.000 C 
ATOM     14  N   UNL     1       2.967   6.464  19.102  0.00  0.00    +0.000 NA
ATOM     15  N   UNL     1       3.048   5.214  19.611  0.00  0.00    +0.000 N 
ENDROOT
BRANCH   1  19
ATOM     16  C   UNL     1       6.736   4.576  16.084  0.00  0.00    +0.000 A 
ATOM     17  C   UNL     1       5.429   4.187  15.783  0.00  0.00    +0.000 A 
ATOM     18  C   UNL     1       4.479   4.041  16.797  0.00  0.00    +0.000 A 
ATOM     19  C   UNL     1       4.833   4.266  18.129  0.00  0.00    +0.000 A 
ATOM     20  C   UNL     1       6.154   4.625  18.432  0.00  0.00    +0.000 A 
ATOM     21  C   UNL     1       7.101   4.779  17.414  0.00  0.00    +0.000 A 
BRANCH  16  23
ATOM     22  C   UNL     1       6.947   4.670  13.731  0.00  0.00    +0.000 C 
ATOM     23  O   UNL     1       7.575   4.687  15.011  0.00  0.00    +0.000 OA
ENDBRANCH  16  23
ENDBRANCH   1  19
TORSDOF 2
ENDMDL
MODEL 2
REMARK VINA RESULT:      -8.0      0.100      1.010
REMARK  Name = 
REMARK  3 active torsions:
REMARK  status: ('A' for Active; 'I' for Inactive)
REMARK    1  A    between atoms: C_1  and  O_2
REMARK    2  A    between atoms: O_2  and  C_3
REMARK    3  A    between atoms: C_6  and  C_7
REMARK                            x       y       z     vdW  Elec       q    Type
REMARK                         _______ _______ _______ _____ _____    ______ ____
ROOT
ATOM      1  C   UNL     1       3.846   4.167  19.170  0.00  0.00    +0.000 A 
ATOM      2  C   UNL     1       3.744   2.984  19.804  0.00  0.00    +0.000 A 
ATOM      3  C   UNL     1       2.761   2.935  20.921  0.00  0.00    +0.000 A 
ATOM      4  N   UNL     1       2.038   3.919  21.355  0.00  0.00    +0.000 NA
ATOM      5  C   UNL     1       2.189   5.104  20.690  0.00  0.00    +0.000 A 
ATOM      6  N   UNL     1       1.621   6.260  20.926  0.00  0.00    +0.000 NA
ATOM      7  C   UNL     1       2.088   7.072  19.936  0.00  0.00    +0.000 A 
ATOM      8  N   UNL     1       1.648   8.339  19.863  0.00  0.00    +0.000 N 
ATOM      9  C   UNL     1       0.761   8.921  20.870  0.00  0.00    +0.000 C 
ATOM     10  C   UNL     1      -0.455   9.556  20.181  0.00  0.00    +0.000 C 
ATOM     11  O   UNL     1      -0.063  10.494  19.163  0.00  0.00    +0.000 OA
ATOM     12  C   UNL     1       0.735   9.836  18.162  0.00  0.00    +0.000 C 
ATOM     13  C   UNL     1       2.011   9.231  18.767  0.00  0.00    +0.000 C 
ATOM     14  N   UNL     1       2.946   6.491  19.099  0.00  0.00    +0.000 NA
ATOM     15  N   UNL     1       3.047   5.237  19.595  0.00  0.00    +0.000 N 
ENDROOT
BRANCH   1  19
ATOM     16  C   UNL     1       6.658   4.561  15.967  0.00  0.00    +0.000 A 
ATOM     17  C   UNL     1       7.060   4.778  17.286  0.00  0.00    +0.000 A 
ATOM     18  C   UNL     1       6.148   4.650  18.338  0.00  0.00    +0.000 A 
ATOM     19  C   UNL     1       4.816   4.320  18.076  0.00  0.00    +0.000 A 
ATOM     20  C   UNL     1       4.408   4.135  16.747  0.00  0.00    +0.000 A 
ATOM     21  C   UNL     1       5.325   4.255  15.698  0.00  0.00    +0.000 A 
BRANCH  16  23
ATOM     22  C   UNL     1       7.189   4.804  13.675  0.00  0.00    +0.000 C 
ATOM     23  O   UNL     1       7.637   4.714  15.025  0.00  0.00    +0.000 OA
ENDBRANCH  16  23
ENDBRANCH   1  19
TORSDOF 2
ENDMDL
MODEL 3
REMARK VINA RESULT:      -7.1      3.243      4.543
REMARK  Name = 
REMARK  3 active torsions:
REMARK  status: ('A' for Active; 'I' for Inactive)
REMARK    1  A    between atoms: C_1  and  O_2
REMARK    2  A    between atoms: O_2  and  C_3
REMARK    3  A    between atoms: C_6  and  C_7
REMARK                            x       y       z     vdW  Elec       q    Type
REMARK                         _______ _______ _______ _____ _____    ______ ____
ROOT
ATOM      1  C   UNL     1       6.724   4.836  17.121  0.00  0.00    +0.000 A 
ATOM      2  C   UNL     1       7.902   5.256  17.618  0.00  0.00    +0.000 A 
ATOM      3  C   UNL     1       7.904   5.597  19.067  0.00  0.00    +0.000 A 
ATOM      4  N   UNL     1       6.885   5.565  19.868  0.00  0.00    +0.000 NA
ATOM      5  C   UNL     1       5.708   5.149  19.313  0.00  0.00    +0.000 A 
ATOM      6  N   UNL     1       4.524   5.051  19.866  0.00  0.00    +0.000 NA
ATOM      7  C   UNL     1       3.734   4.540  18.880  0.00  0.00    +0.000 A 
ATOM      8  N   UNL     1       2.446   4.267  19.146  0.00  0.00    +0.000 N 
ATOM      9  C   UNL     1       1.823   4.595  20.428  0.00  0.00    +0.000 C 
ATOM     10  C   UNL     1       1.124   3.351  20.994  0.00  0.00    +0.000 C 
ATOM     11  O   UNL     1       0.204   2.778  20.048  0.00  0.00    +0.000 OA
ATOM     12  C   UNL     1       0.898   2.402  18.845  0.00  0.00    +0.000 C 
ATOM     13  C   UNL     1       1.570   3.613  18.180  0.00  0.00    +0.000 C 
ATOM     14  N   UNL     1       4.356   4.335  17.720  0.00  0.00    +0.000 NA
ATOM     15  N   UNL     1       5.615   4.756  17.975  0.00  0.00    +0.000 N 
ENDROOT
BRANCH   1  19
ATOM     16  C   UNL     1       6.407   3.943  12.947  0.00  0.00    +0.000 A 
ATOM     17  C   UNL     1       5.558   3.322  13.865  0.00  0.00    +0.000 A 
ATOM     18  C   UNL     1       5.654   3.609  15.230  0.00  0.00    +0.000 A 
ATOM     19  C   UNL     1       6.617   4.510  15.692  0.00  0.00    +0.000 A 
ATOM     20  C   UNL     1       7.489   5.107  14.771  0.00  0.00    +0.000 A 
ATOM     21  C   UNL     1       7.384   4.825  13.405  0.00  0.00    +0.000 A 
BRANCH  16  23
ATOM     22  C   UNL     1       5.690   2.276  11.430  0.00  0.00    +0.000 C 
ATOM     23  O   UNL     1       6.217   3.584  11.642  0.00  0.00    +0.000 OA
ENDBRANCH  16  23
ENDBRANCH   1  19
TORSDOF 2
ENDMDL
MODEL 4
REMARK VINA RESULT:      -6.8      3.532      5.585
REMARK  Name = 
REMARK  3 active torsions:
REMARK  status: ('A' for Active; 'I' for Inactive)
REMARK    1  A    between atoms: C_1  and  O_2
REMARK    2  A    between atoms: O_2  and  C_3
REMARK    3  A    between atoms: C_6  and  C_7
REMARK                            x       y       z     vdW  Elec       q    Type
REMARK                         _______ _______ _______ _____ _____    ______ ____
ROOT
ATOM      1  C   UNL     1       6.663   5.550  16.628  0.00  0.00    +0.000 A 
ATOM      2  C   UNL     1       7.136   5.211  15.414  0.00  0.00    +0.000 A 
ATOM      3  C   UNL     1       6.459   4.059  14.758  0.00  0.00    +0.000 A 
ATOM      4  N   UNL     1       5.501   3.342  15.256  0.00  0.00    +0.000 NA
ATOM      5  C   UNL     1       5.066   3.714  16.497  0.00  0.00    +0.000 A 
ATOM      6  N   UNL     1       4.148   3.160  17.250  0.00  0.00    +0.000 NA
ATOM      7  C   UNL     1       4.086   3.963  18.349  0.00  0.00    +0.000 A 
ATOM      8  N   UNL     1       3.188   3.692  19.310  0.00  0.00    +0.000 N 
ATOM      9  C   UNL     1       2.336   2.504  19.276  0.00  0.00    +0.000 C 
ATOM     10  C   UNL     1       0.870   2.915  19.467  0.00  0.00    +0.000 C 
ATOM     11  O   UNL     1       0.686   3.708  20.653  0.00  0.00    +0.000 OA
ATOM     12  C   UNL     1       1.488   4.901  20.582  0.00  0.00    +0.000 C 
ATOM     13  C   UNL     1       2.983   4.570  20.459  0.00  0.00    +0.000 C 
ATOM     14  N   UNL     1       4.942   4.984  18.341  0.00  0.00    +0.000 NA
ATOM     15  N   UNL     1       5.602   4.814  17.173  0.00  0.00    +0.000 N 
ENDROOT
BRANCH   1  19
ATOM     16  C   UNL     1       8.524   8.777  18.736  0.00  0.00    +0.000 A 
ATOM     17  C   UNL     1       8.601   7.474  19.234  0.00  0.00    +0.000 A 
ATOM     18  C   UNL     1       7.997   6.415  18.551  0.00  0.00    +0.000 A 
ATOM     19  C   UNL     1       7.292   6.652  17.368  0.00  0.00    +0.000 A 
ATOM     20  C   UNL     1       7.189   7.966  16.888  0.00  0.00    +0.000 A 
ATOM     21  C   UNL     1       7.802   9.023  17.569  0.00  0.00    +0.000 A 
BRANCH  16  23
ATOM     22  C   UNL     1       9.540  10.911  18.794  0.00  0.00    +0.000 C 
ATOM     23  O   UNL     1       9.154   9.728  19.489  0.00  0.00    +0.000 OA
ENDBRANCH  16  23
ENDBRANCH   1  19
TORSDOF 2
ENDMDL
MODEL 5
REMARK VINA RESULT:      -6.8      3.492      5.507
REMARK  Name = 
REMARK  3 active torsions:
REMARK  status: ('A' for Active; 'I' for Inactive)
REMARK    1  A    between atoms: C_1  and  O_2
REMARK    2  A    between atoms: O_2  and  C_3
REMARK    3  A    between atoms: C_6  and  C_7
REMARK                            x       y       z     vdW  Elec       q    Type
REMARK                         _______ _______ _______ _____ _____    ______ ____
ROOT
ATOM      1  C   UNL     1       6.645   5.481  16.597  0.00  0.00    +0.000 A 
ATOM      2  C   UNL     1       7.102   5.142  15.377  0.00  0.00    +0.000 A 
ATOM      3  C   UNL     1       6.402   4.003  14.722  0.00  0.00    +0.000 A 
ATOM      4  N   UNL     1       5.439   3.298  15.225  0.00  0.00    +0.000 NA
ATOM      5  C   UNL     1       5.021   3.670  16.473  0.00  0.00    +0.000 A 
ATOM      6  N   UNL     1       4.102   3.126  17.231  0.00  0.00    +0.000 NA
ATOM      7  C   UNL     1       4.062   3.924  18.335  0.00  0.00    +0.000 A 
ATOM      8  N   UNL     1       3.169   3.662  19.303  0.00  0.00    +0.000 N 
ATOM      9  C   UNL     1       2.300   2.487  19.272  0.00  0.00    +0.000 C 
ATOM     10  C   UNL     1       0.841   2.918  19.478  0.00  0.00    +0.000 C 
ATOM     11  O   UNL     1       0.681   3.707  20.670  0.00  0.00    +0.000 OA
ATOM     12  C   UNL     1       1.498   4.889  20.596  0.00  0.00    +0.000 C 
ATOM     13  C   UNL     1       2.987   4.537  20.457  0.00  0.00    +0.000 C 
ATOM     14  N   UNL     1       4.932   4.933  18.324  0.00  0.00    +0.000 NA
ATOM     15  N   UNL     1       5.579   4.759  17.149  0.00  0.00    +0.000 N 
ENDROOT
BRANCH   1  19
ATOM     16  C   UNL     1       8.515   8.642  18.796  0.00  0.00    +0.000 A 
ATOM     17  C   UNL     1       7.887   8.909  17.578  0.00  0.00    +0.000 A 
ATOM     18  C   UNL     1       7.273   7.883  16.854  0.00  0.00    +0.000 A 
ATOM     19  C   UNL     1       7.298   6.571  17.336  0.00  0.00    +0.000 A 
ATOM     20  C   UNL     1       7.957   6.301  18.543  0.00  0.00    +0.000 A 
ATOM     21  C   UNL     1       8.563   7.332  19.270  0.00  0.00    +0.000 A 
BRANCH  16  23
ATOM     22  C   UNL     1       9.397  10.823  18.563  0.00  0.00    +0.000 C 
ATOM     23  O   UNL     1       9.077   9.724  19.413  0.00  0.00    +0.000 OA
ENDBRANCH  16  23
ENDBRANCH   1  19
TORSDOF 2
ENDMDL
MODEL 6
REMARK VINA RESULT:      -6.7      3.276      4.601
REMARK  Name = 
REMARK  3 active torsions:
REMARK  status: ('A' for Active; 'I' for Inactive)
REMARK    1  A    between atoms: C_1  and  O_2
REMARK    2  A    between atoms: O_2  and  C_3
REMARK    3  A    between atoms: C_6  and  C_7
REMARK                            x       y       z     vdW  Elec       q    Type
REMARK                         _______ _______ _______ _____ _____    ______ ____
ROOT
ATOM      1  C   UNL     1       6.694   4.876  17.127  0.00  0.00    +0.000 A 
ATOM      2  C   UNL     1       7.849   5.307  17.667  0.00  0.00    +0.000 A 
ATOM      3  C   UNL     1       7.800   5.625  19.121  0.00  0.00    +0.000 A 
ATOM      4  N   UNL     1       6.758   5.565  19.888  0.00  0.00    +0.000 NA
ATOM      5  C   UNL     1       5.605   5.139  19.291  0.00  0.00    +0.000 A 
ATOM      6  N   UNL     1       4.407   5.013  19.805  0.00  0.00    +0.000 NA
ATOM      7  C   UNL     1       3.656   4.505  18.787  0.00  0.00    +0.000 A 
ATOM      8  N   UNL     1       2.365   4.207  19.007  0.00  0.00    +0.000 N 
ATOM      9  C   UNL     1       1.697   4.505  20.274  0.00  0.00    +0.000 C 
ATOM     10  C   UNL     1       1.001   3.241  20.799  0.00  0.00    +0.000 C 
ATOM     11  O   UNL     1       0.120   2.669  19.816  0.00  0.00    +0.000 OA
ATOM     12  C   UNL     1       0.858   2.322  18.630  0.00  0.00    +0.000 C 
ATOM     13  C   UNL     1       1.531   3.554  18.004  0.00  0.00    +0.000 C 
ATOM     14  N   UNL     1       4.317   4.328  17.643  0.00  0.00    +0.000 NA
ATOM     15  N   UNL     1       5.560   4.765  17.944  0.00  0.00    +0.000 N 
ENDROOT
BRANCH   1  19
ATOM     16  C   UNL     1       6.533   3.932  12.955  0.00  0.00    +0.000 A 
ATOM     17  C   UNL     1       7.456   4.865  13.429  0.00  0.00    +0.000 A 
ATOM     18  C   UNL     1       7.516   5.179  14.790  0.00  0.00    +0.000 A 
ATOM     19  C   UNL     1       6.637   4.571  15.690  0.00  0.00    +0.000 A 
ATOM     20  C   UNL     1       5.689   3.658  15.206  0.00  0.00    +0.000 A 
ATOM     21  C   UNL     1       5.637   3.341  13.845  0.00  0.00    +0.000 A 
BRANCH  16  23
ATOM     22  C   UNL     1       7.089   2.441  11.205  0.00  0.00    +0.000 C 
ATOM     23  O   UNL     1       6.570   3.707  11.607  0.00  0.00    +0.000 OA
ENDBRANCH  16  23
ENDBRANCH   1  19
TORSDOF 2
ENDMDL
MODEL 7
REMARK VINA RESULT:      -6.4      1.586      6.732
REMARK  Name = 
REMARK  3 active torsions:
REMARK  status: ('A' for Active; 'I' for Inactive)
REMARK    1  A    between atoms: C_1  and  O_2
REMARK    2  A    between atoms: O_2  and  C_3
REMARK    3  A    between atoms: C_6  and  C_7
REMARK                            x       y       z     vdW  Elec       q    Type
REMARK                         _______ _______ _______ _____ _____    ______ ____
ROOT
ATOM      1  C   UNL     1       1.849   5.657  20.040  0.00  0.00    +0.000 A 
ATOM      2  C   UNL     1       1.190   4.742  20.775  0.00  0.00    +0.000 A 
ATOM      3  C   UNL     1       1.511   3.320  20.469  0.00  0.00    +0.000 A 
ATOM      4  N   UNL     1       2.321   2.892  19.553  0.00  0.00    +0.000 NA
ATOM      5  C   UNL     1       2.953   3.859  18.822  0.00  0.00    +0.000 A 
ATOM      6  N   UNL     1       3.789   3.723  17.823  0.00  0.00    +0.000 NA
ATOM      7  C   UNL     1       4.146   5.000  17.508  0.00  0.00    +0.000 A 
ATOM      8  N   UNL     1       5.050   5.209  16.536  0.00  0.00    +0.000 N 
ATOM      9  C   UNL     1       5.594   4.121  15.724  0.00  0.00    +0.000 C 
ATOM     10  C   UNL     1       7.127   4.187  15.734  0.00  0.00    +0.000 C 
ATOM     11  O   UNL     1       7.609   5.484  15.338  0.00  0.00    +0.000 OA
ATOM     12  C   UNL     1       7.104   6.495  16.229  0.00  0.00    +0.000 C 
ATOM     13  C   UNL     1       5.568   6.536  16.222  0.00  0.00    +0.000 C 
ATOM     14  N   UNL     1       3.555   5.940  18.244  0.00  0.00    +0.000 NA
ATOM     15  N   UNL     1       2.760   5.221  19.067  0.00  0.00    +0.000 N 
ENDROOT
BRANCH   1  19
ATOM     16  C   UNL     1       0.988   9.804  20.657  0.00  0.00    +0.000 A 
ATOM     17  C   UNL     1       1.467   9.362  19.423  0.00  0.00    +0.000 A 
ATOM     18  C   UNL     1       1.750   8.009  19.213  0.00  0.00    +0.000 A 
ATOM     19  C   UNL     1       1.571   7.086  20.246  0.00  0.00    +0.000 A 
ATOM     20  C   UNL     1       1.120   7.538  21.494  0.00  0.00    +0.000 A 
ATOM     21  C   UNL     1       0.830   8.891  21.698  0.00  0.00    +0.000 A 
BRANCH  16  23
ATOM     22  C   UNL     1      -0.335  11.528  21.591  0.00  0.00    +0.000 C 
ATOM     23  O   UNL     1       0.746  11.147  20.742  0.00  0.00    +0.000 OA
ENDBRANCH  16  23
ENDBRANCH   1  19
TORSDOF 2
ENDMDL
MODEL 8
REMARK VINA RESULT:      -6.3      1.522      6.749
REMARK  Name = 
REMARK  3 active torsions:
REMARK  status: ('A' for Active; 'I' for Inactive)
REMARK    1  A    between atoms: C_1  and  O_2
REMARK    2  A    between atoms: O_2  and  C_3
REMARK    3  A    between atoms: C_6  and  C_7
REMARK                            x       y       z     vdW  Elec       q    Type
REMARK                         _______ _______ _______ _____ _____    ______ ____
ROOT
ATOM      1  C   UNL     1       1.918   5.777  20.096  0.00  0.00    +0.000 A 
ATOM      2  C   UNL     1       1.318   4.909  20.932  0.00  0.00    +0.000 A 
ATOM      3  C   UNL     1       1.697   3.480  20.754  0.00  0.00    +0.000 A 
ATOM      4  N   UNL     1       2.505   3.002  19.860  0.00  0.00    +0.000 NA
ATOM      5  C   UNL     1       3.076   3.921  19.024  0.00  0.00    +0.000 A 
ATOM      6  N   UNL     1       3.894   3.727  18.020  0.00  0.00    +0.000 NA
ATOM      7  C   UNL     1       4.184   4.983  17.577  0.00  0.00    +0.000 A 
ATOM      8  N   UNL     1       5.055   5.137  16.565  0.00  0.00    +0.000 N 
ATOM      9  C   UNL     1       5.630   4.001  15.845  0.00  0.00    +0.000 C 
ATOM     10  C   UNL     1       7.159   4.135  15.807  0.00  0.00    +0.000 C 
ATOM     11  O   UNL     1       7.571   5.408  15.277  0.00  0.00    +0.000 OA
ATOM     12  C   UNL     1       7.040   6.476  16.083  0.00  0.00    +0.000 C 
ATOM     13  C   UNL     1       5.504   6.450  16.114  0.00  0.00    +0.000 C 
ATOM     14  N   UNL     1       3.568   5.962  18.236  0.00  0.00    +0.000 NA
ATOM     15  N   UNL     1       2.825   5.291  19.145  0.00  0.00    +0.000 N 
ENDROOT
BRANCH   1  19
ATOM     16  C   UNL     1       0.984   9.950  20.302  0.00  0.00    +0.000 A 
ATOM     17  C   UNL     1       0.809   9.134  21.422  0.00  0.00    +0.000 A 
ATOM     18  C   UNL     1       1.112   7.771  21.363  0.00  0.00    +0.000 A 
ATOM     19  C   UNL     1       1.579   7.206  20.174  0.00  0.00    +0.000 A 
ATOM     20  C   UNL     1       1.723   8.021  19.042  0.00  0.00    +0.000 A 
ATOM     21  C   UNL     1       1.427   9.387  19.106  0.00  0.00    +0.000 A 
BRANCH  16  23
ATOM     22  C   UNL     1      -0.142  11.553  21.626  0.00  0.00    +0.000 C 
ATOM     23  O   UNL     1       0.656  11.265  20.480  0.00  0.00    +0.000 OA
ENDBRANCH  16  23
ENDBRANCH   1  19
TORSDOF 2
ENDMDL
MODEL 9
REMARK VINA RESULT:      -6.2      4.463      7.313
REMARK  Name = 
REMARK  3 active torsions:
REMARK  status: ('A' for Active; 'I' for Inactive)
REMARK    1  A    between atoms: C_1  and  O_2
REMARK    2  A    between atoms: O_2  and  C_3
REMARK    3  A    between atoms: C_6  and  C_7
REMARK                            x       y       z     vdW  Elec       q    Type
REMARK                         _______ _______ _______ _____ _____    ______ ____
ROOT
ATOM      1  C   UNL     1      -0.138  10.633  18.882  0.00  0.00    +0.000 A 
ATOM      2  C   UNL     1      -1.457  10.363  18.845  0.00  0.00    +0.000 A 
ATOM      3  C   UNL     1      -2.355  11.550  18.832  0.00  0.00    +0.000 A 
ATOM      4  N   UNL     1      -1.993  12.793  18.893  0.00  0.00    +0.000 NA
ATOM      5  C   UNL     1      -0.645  13.015  18.947  0.00  0.00    +0.000 A 
ATOM      6  N   UNL     1       0.001  14.150  19.047  0.00  0.00    +0.000 NA
ATOM      7  C   UNL     1       1.315  13.794  19.006  0.00  0.00    +0.000 A 
ATOM      8  N   UNL     1       2.257  14.751  19.037  0.00  0.00    +0.000 N 
ATOM      9  C   UNL     1       1.932  16.165  19.218  0.00  0.00    +0.000 C 
ATOM     10  C   UNL     1       2.602  16.994  18.112  0.00  0.00    +0.000 C 
ATOM     11  O   UNL     1       4.017  16.744  18.040  0.00  0.00    +0.000 OA
ATOM     12  C   UNL     1       4.261  15.350  17.776  0.00  0.00    +0.000 C 
ATOM     13  C   UNL     1       3.678  14.456  18.880  0.00  0.00    +0.000 C 
ATOM     14  N   UNL     1       1.533  12.483  18.913  0.00  0.00    +0.000 NA
ATOM     15  N   UNL     1       0.282  11.970  18.910  0.00  0.00    +0.000 N 
ENDROOT
BRANCH   1  19
ATOM     16  C   UNL     1       2.641   7.379  18.985  0.00  0.00    +0.000 A 
ATOM     17  C   UNL     1       1.953   7.753  20.142  0.00  0.00    +0.000 A 
ATOM     18  C   UNL     1       1.043   8.814  20.116  0.00  0.00    +0.000 A 
ATOM     19  C   UNL     1       0.825   9.524  18.933  0.00  0.00    +0.000 A 
ATOM     20  C   UNL     1       1.542   9.167  17.782  0.00  0.00    +0.000 A 
ATOM     21  C   UNL     1       2.445   8.099  17.808  0.00  0.00    +0.000 A 
BRANCH  16  23
ATOM     22  C   UNL     1       3.720   5.539  17.965  0.00  0.00    +0.000 C 
ATOM     23  O   UNL     1       3.502   6.328  19.133  0.00  0.00    +0.000 OA
ENDBRANCH  16  23
ENDBRANCH   1  19
TORSDOF 2
ENDMDL
