MODEL 1
REMARK VINA RESULT:      -7.0      0.000      0.000
REMARK  Name = 
REMARK  4 active torsions:
REMARK  status: ('A' for Active; 'I' for Inactive)
REMARK    1  A    between atoms: C_7  and  N_8
REMARK    2  A    between atoms: C_9  and  C_11
REMARK    3  A    between atoms: C_14  and  C_16
REMARK    4  A    between atoms: C_25  and  C_27
REMARK                            x       y       z     vdW  Elec       q    Type
REMARK                         _______ _______ _______ _____ _____    ______ ____
ROOT
ATOM      1  C   UNL     1      -1.511  13.614  20.470  0.00  0.00    +0.000 C 
ATOM      2  C   UNL     1      -2.775  14.213  21.106  0.00  0.00    +0.000 C 
ATOM      3  N   UNL     1      -3.155  13.507  22.344  0.00  0.00    +0.000 N 
ATOM      4  C   UNL     1      -4.404  12.951  22.642  0.00  0.00    +0.000 C 
ATOM      5  O   UNL     1      -4.618  12.284  23.651  0.00  0.00    +0.000 OA
ATOM      6  C   UNL     1      -2.070  13.426  23.345  0.00  0.00    +0.000 C 
ATOM      7  C   UNL     1      -0.686  13.084  22.742  0.00  0.00    +0.000 C 
ATOM      8  N   UNL     1      -0.425  13.770  21.456  0.00  0.00    +0.000 N 
ATOM      9  C   UNL     1       0.711  14.556  21.322  0.00  0.00    +0.000 C 
ATOM     10  O   UNL     1       1.476  14.698  22.283  0.00  0.00    +0.000 OA
ENDROOT
BRANCH   4  11
ATOM     11  C   UNL     1      -5.535  13.114  21.708  0.00  0.00    +0.000 A 
ATOM     12  C   UNL     1      -6.326  14.242  21.730  0.00  0.00    +0.000 A 
ATOM     13  N   UNL     1      -7.454  14.379  20.987  0.00  0.00    +0.000 NA
ATOM     14  C   UNL     1      -7.759  13.347  20.185  0.00  0.00    +0.000 A 
ATOM     15  N   UNL     1      -7.021  12.239  20.022  0.00  0.00    +0.000 NA
ATOM     16  C   UNL     1      -5.889  12.182  20.758  0.00  0.00    +0.000 A 
ENDBRANCH   4  11
BRANCH   9  17
ATOM     17  C   UNL     1       1.014  15.265  19.975  0.00  0.00    +0.000 C 
ATOM     18  C   UNL     1       2.054  16.392  20.045  0.00  0.00    +0.000 C 
ATOM     19  C   UNL     1       3.472  15.898  20.291  0.00  0.00    +0.000 C 
ATOM     20  C   UNL     1       3.925  14.809  19.324  0.00  0.00    +0.000 C 
ATOM     21  C   UNL     1       2.878  13.731  19.057  0.00  0.00    +0.000 C 
ATOM     22  C   UNL     1       1.459  14.275  18.877  0.00  0.00    +0.000 C 
ENDBRANCH   9  17
BRANCH   1  24
ATOM     23  N   UNL     1      -2.637  12.074  18.878  0.00  0.00    +0.000 N 
ATOM     24  C   UNL     1      -1.806  12.163  19.987  0.00  0.00    +0.000 C 
ATOM     25  O   UNL     1      -1.336  11.169  20.530  0.00  0.00    +0.000 OA
ATOM     26  H   UNL     1      -2.934  12.905  18.390  0.00  0.00    +0.000 HD
BRANCH  23  33
ATOM     27  O   UNL     1      -0.880   9.906  17.498  0.00  0.00    +0.000 OA
ATOM     28  C   UNL     1      -1.993  10.354  17.230  0.00  0.00    +0.000 C 
ATOM     29  N   UNL     1      -2.270  10.640  15.917  0.00  0.00    +0.000 N 
ATOM     30  C   UNL     1      -3.604  10.803  15.399  0.00  0.00    +0.000 C 
ATOM     31  C   UNL     1      -4.487  11.558  16.373  0.00  0.00    +0.000 C 
ATOM     32  C   UNL     1      -4.442  10.853  17.725  0.00  0.00    +0.000 C 
ATOM     33  C   UNL     1      -3.021  10.784  18.297  0.00  0.00    +0.000 C 
ATOM     34  H   UNL     1      -1.548  10.296  15.293  0.00  0.00    +0.000 HD
ENDBRANCH  23  33
ENDBRANCH   1  24
TORSDOF 4
ENDMDL
MODEL 2
REMARK VINA RESULT:      -6.7      0.547      1.079
REMARK  Name = 
REMARK  4 active torsions:
REMARK  status: ('A' for Active; 'I' for Inactive)
REMARK    1  A    between atoms: C_7  and  N_8
REMARK    2  A    between atoms: C_9  and  C_11
REMARK    3  A    between atoms: C_14  and  C_16
REMARK    4  A    between atoms: C_25  and  C_27
REMARK                            x       y       z     vdW  Elec       q    Type
REMARK                         _______ _______ _______ _____ _____    ______ ____
ROOT
ATOM      1  C   UNL     1      -1.447  13.596  20.415  0.00  0.00    +0.000 C 
ATOM      2  C   UNL     1      -2.712  14.214  21.031  0.00  0.00    +0.000 C 
ATOM      3  N   UNL     1      -3.114  13.525  22.271  0.00  0.00    +0.000 N 
ATOM      4  C   UNL     1      -4.371  12.985  22.561  0.00  0.00    +0.000 C 
ATOM      5  O   UNL     1      -4.604  12.330  23.574  0.00  0.00    +0.000 OA
ATOM      6  C   UNL     1      -2.041  13.442  23.285  0.00  0.00    +0.000 C 
ATOM      7  C   UNL     1      -0.654  13.081  22.701  0.00  0.00    +0.000 C 
ATOM      8  N   UNL     1      -0.371  13.751  21.411  0.00  0.00    +0.000 N 
ATOM      9  C   UNL     1       0.775  14.524  21.283  0.00  0.00    +0.000 C 
ATOM     10  O   UNL     1       1.530  14.668  22.251  0.00  0.00    +0.000 OA
ENDROOT
BRANCH   4  11
ATOM     11  C   UNL     1      -5.490  13.150  21.612  0.00  0.00    +0.000 A 
ATOM     12  C   UNL     1      -6.248  14.300  21.592  0.00  0.00    +0.000 A 
ATOM     13  N   UNL     1      -7.366  14.445  20.835  0.00  0.00    +0.000 NA
ATOM     14  C   UNL     1      -7.695  13.397  20.064  0.00  0.00    +0.000 A 
ATOM     15  N   UNL     1      -6.988  12.264  19.943  0.00  0.00    +0.000 NA
ATOM     16  C   UNL     1      -5.864  12.198  20.690  0.00  0.00    +0.000 A 
ENDBRANCH   4  11
BRANCH   9  17
ATOM     17  C   UNL     1       1.100  15.216  19.932  0.00  0.00    +0.000 C 
ATOM     18  C   UNL     1       0.454  16.593  19.728  0.00  0.00    +0.000 C 
ATOM     19  C   UNL     1       1.044  17.681  20.615  0.00  0.00    +0.000 C 
ATOM     20  C   UNL     1       2.564  17.784  20.539  0.00  0.00    +0.000 C 
ATOM     21  C   UNL     1       3.286  16.441  20.559  0.00  0.00    +0.000 C 
ATOM     22  C   UNL     1       2.620  15.365  19.699  0.00  0.00    +0.000 C 
ENDBRANCH   9  17
BRANCH   1  24
ATOM     23  N   UNL     1      -2.594  12.050  18.844  0.00  0.00    +0.000 N 
ATOM     24  C   UNL     1      -1.752  12.143  19.943  0.00  0.00    +0.000 C 
ATOM     25  O   UNL     1      -1.279  11.151  20.487  0.00  0.00    +0.000 OA
ATOM     26  H   UNL     1      -2.894  12.880  18.354  0.00  0.00    +0.000 HD
BRANCH  23  33
ATOM     27  O   UNL     1      -0.858   9.867  17.462  0.00  0.00    +0.000 OA
ATOM     28  C   UNL     1      -1.972  10.317  17.201  0.00  0.00    +0.000 C 
ATOM     29  N   UNL     1      -2.258  10.597  15.889  0.00  0.00    +0.000 N 
ATOM     30  C   UNL     1      -3.596  10.762  15.381  0.00  0.00    +0.000 C 
ATOM     31  C   UNL     1      -4.467  11.526  16.357  0.00  0.00    +0.000 C 
ATOM     32  C   UNL     1      -4.414  10.829  17.713  0.00  0.00    +0.000 C 
ATOM     33  C   UNL     1      -2.989  10.758  18.274  0.00  0.00    +0.000 C 
ATOM     34  H   UNL     1      -1.543  10.246  15.261  0.00  0.00    +0.000 HD
ENDBRANCH  23  33
ENDBRANCH   1  24
TORSDOF 4
ENDMDL
MODEL 3
REMARK VINA RESULT:      -6.5      1.596      2.141
REMARK  Name = 
REMARK  4 active torsions:
REMARK  status: ('A' for Active; 'I' for Inactive)
REMARK    1  A    between atoms: C_7  and  N_8
REMARK    2  A    between atoms: C_9  and  C_11
REMARK    3  A    between atoms: C_14  and  C_16
REMARK    4  A    between atoms: C_25  and  C_27
REMARK                            x       y       z     vdW  Elec       q    Type
REMARK                         _______ _______ _______ _____ _____    ______ ____
ROOT
ATOM      1  C   UNL     1      -1.465  13.151  20.000  0.00  0.00    +0.000 C 
ATOM      2  C   UNL     1      -2.204  13.871  21.139  0.00  0.00    +0.000 C 
ATOM      3  N   UNL     1      -2.436  12.984  22.293  0.00  0.00    +0.000 N 
ATOM      4  C   UNL     1      -3.660  12.728  22.921  0.00  0.00    +0.000 C 
ATOM      5  O   UNL     1      -3.795  11.893  23.813  0.00  0.00    +0.000 OA
ATOM      6  C   UNL     1      -1.210  12.340  22.810  0.00  0.00    +0.000 C 
ATOM      7  C   UNL     1      -0.264  11.816  21.702  0.00  0.00    +0.000 C 
ATOM      8  N   UNL     1      -0.160  12.730  20.543  0.00  0.00    +0.000 N 
ATOM      9  C   UNL     1       1.090  13.184  20.144  0.00  0.00    +0.000 C 
ATOM     10  O   UNL     1       2.097  12.844  20.776  0.00  0.00    +0.000 OA
ENDROOT
BRANCH   4  11
ATOM     11  C   UNL     1      -4.880  13.441  22.496  0.00  0.00    +0.000 A 
ATOM     12  C   UNL     1      -4.811  14.653  21.844  0.00  0.00    +0.000 A 
ATOM     13  N   UNL     1      -5.900  15.409  21.555  0.00  0.00    +0.000 NA
ATOM     14  C   UNL     1      -7.086  14.897  21.919  0.00  0.00    +0.000 A 
ATOM     15  N   UNL     1      -7.278  13.695  22.483  0.00  0.00    +0.000 NA
ATOM     16  C   UNL     1      -6.157  12.973  22.707  0.00  0.00    +0.000 A 
ENDBRANCH   4  11
BRANCH   9  17
ATOM     17  C   UNL     1       1.223  14.126  18.918  0.00  0.00    +0.000 C 
ATOM     18  C   UNL     1       0.999  15.617  19.207  0.00  0.00    +0.000 C 
ATOM     19  C   UNL     1       2.116  16.253  20.022  0.00  0.00    +0.000 C 
ATOM     20  C   UNL     1       3.511  16.020  19.449  0.00  0.00    +0.000 C 
ATOM     21  C   UNL     1       3.763  14.594  18.970  0.00  0.00    +0.000 C 
ATOM     22  C   UNL     1       2.587  13.978  18.208  0.00  0.00    +0.000 C 
ENDBRANCH   9  17
BRANCH   1  24
ATOM     23  N   UNL     1      -3.688  12.396  19.188  0.00  0.00    +0.000 N 
ATOM     24  C   UNL     1      -2.371  12.025  19.419  0.00  0.00    +0.000 C 
ATOM     25  O   UNL     1      -1.958  10.897  19.171  0.00  0.00    +0.000 OA
ATOM     26  H   UNL     1      -3.982  13.353  19.309  0.00  0.00    +0.000 HD
BRANCH  23  33
ATOM     27  O   UNL     1      -4.067  11.352  16.280  0.00  0.00    +0.000 OA
ATOM     28  C   UNL     1      -4.874  11.701  17.139  0.00  0.00    +0.000 C 
ATOM     29  N   UNL     1      -5.922  12.496  16.747  0.00  0.00    +0.000 N 
ATOM     30  C   UNL     1      -7.124  12.673  17.522  0.00  0.00    +0.000 C 
ATOM     31  C   UNL     1      -6.816  12.778  19.002  0.00  0.00    +0.000 C 
ATOM     32  C   UNL     1      -5.996  11.561  19.421  0.00  0.00    +0.000 C 
ATOM     33  C   UNL     1      -4.676  11.456  18.649  0.00  0.00    +0.000 C 
ATOM     34  H   UNL     1      -5.982  12.575  15.737  0.00  0.00    +0.000 HD
ENDBRANCH  23  33
ENDBRANCH   1  24
TORSDOF 4
ENDMDL
MODEL 4
REMARK VINA RESULT:      -6.4      1.669      2.152
REMARK  Name = 
REMARK  4 active torsions:
REMARK  status: ('A' for Active; 'I' for Inactive)
REMARK    1  A    between atoms: C_7  and  N_8
REMARK    2  A    between atoms: C_9  and  C_11
REMARK    3  A    between atoms: C_14  and  C_16
REMARK    4  A    between atoms: C_25  and  C_27
REMARK                            x       y       z     vdW  Elec       q    Type
REMARK                         _______ _______ _______ _____ _____    ______ ____
ROOT
ATOM      1  C   UNL     1      -1.818  13.516  20.621  0.00  0.00    +0.000 C 
ATOM      2  C   UNL     1      -2.627  14.129  21.775  0.00  0.00    +0.000 C 
ATOM      3  N   UNL     1      -2.866  13.157  22.857  0.00  0.00    +0.000 N 
ATOM      4  C   UNL     1      -4.101  12.814  23.418  0.00  0.00    +0.000 C 
ATOM      5  O   UNL     1      -4.236  11.916  24.246  0.00  0.00    +0.000 OA
ATOM      6  C   UNL     1      -1.635  12.525  23.378  0.00  0.00    +0.000 C 
ATOM      7  C   UNL     1      -0.629  12.112  22.276  0.00  0.00    +0.000 C 
ATOM      8  N   UNL     1      -0.518  13.107  21.185  0.00  0.00    +0.000 N 
ATOM      9  C   UNL     1       0.727  13.632  20.868  0.00  0.00    +0.000 C 
ATOM     10  O   UNL     1       1.722  13.288  21.515  0.00  0.00    +0.000 OA
ENDROOT
BRANCH   4  11
ATOM     11  C   UNL     1      -5.332  13.509  22.994  0.00  0.00    +0.000 A 
ATOM     12  C   UNL     1      -6.567  12.908  23.097  0.00  0.00    +0.000 A 
ATOM     13  N   UNL     1      -7.707  13.450  22.598  0.00  0.00    +0.000 NA
ATOM     14  C   UNL     1      -7.579  14.648  22.005  0.00  0.00    +0.000 A 
ATOM     15  N   UNL     1      -6.445  15.359  21.920  0.00  0.00    +0.000 NA
ATOM     16  C   UNL     1      -5.355  14.784  22.473  0.00  0.00    +0.000 A 
ENDBRANCH   4  11
BRANCH   9  17
ATOM     17  C   UNL     1       0.867  14.660  19.713  0.00  0.00    +0.000 C 
ATOM     18  C   UNL     1       2.043  15.638  19.843  0.00  0.00    +0.000 C 
ATOM     19  C   UNL     1       3.404  14.984  19.645  0.00  0.00    +0.000 C 
ATOM     20  C   UNL     1       3.519  14.172  18.359  0.00  0.00    +0.000 C 
ATOM     21  C   UNL     1       2.307  13.297  18.058  0.00  0.00    +0.000 C 
ATOM     22  C   UNL     1       0.965  13.980  18.329  0.00  0.00    +0.000 C 
ENDBRANCH   9  17
BRANCH   1  24
ATOM     23  N   UNL     1      -3.969  12.748  19.643  0.00  0.00    +0.000 N 
ATOM     24  C   UNL     1      -2.657  12.399  19.931  0.00  0.00    +0.000 C 
ATOM     25  O   UNL     1      -2.198  11.297  19.648  0.00  0.00    +0.000 OA
ATOM     26  H   UNL     1      -4.297  13.689  19.798  0.00  0.00    +0.000 HD
BRANCH  23  33
ATOM     27  O   UNL     1      -3.909  11.532  16.778  0.00  0.00    +0.000 OA
ATOM     28  C   UNL     1      -4.830  11.967  17.467  0.00  0.00    +0.000 C 
ATOM     29  N   UNL     1      -5.759  12.774  16.858  0.00  0.00    +0.000 N 
ATOM     30  C   UNL     1      -7.063  13.045  17.407  0.00  0.00    +0.000 C 
ATOM     31  C   UNL     1      -7.001  13.234  18.910  0.00  0.00    +0.000 C 
ATOM     32  C   UNL     1      -6.322  12.018  19.531  0.00  0.00    +0.000 C 
ATOM     33  C   UNL     1      -4.898  11.813  19.000  0.00  0.00    +0.000 C 
ATOM     34  H   UNL     1      -5.646  12.789  15.850  0.00  0.00    +0.000 HD
ENDBRANCH  23  33
ENDBRANCH   1  24
TORSDOF 4
ENDMDL
MODEL 5
REMARK VINA RESULT:      -6.4      1.842      2.592
REMARK  Name = 
REMARK  4 active torsions:
REMARK  status: ('A' for Active; 'I' for Inactive)
REMARK    1  A    between atoms: C_7  and  N_8
REMARK    2  A    between atoms: C_9  and  C_11
REMARK    3  A    between atoms: C_14  and  C_16
REMARK    4  A    between atoms: C_25  and  C_27
REMARK                            x       y       z     vdW  Elec       q    Type
REMARK                         _______ _______ _______ _____ _____    ______ ____
ROOT
ATOM      1  C   UNL     1      -1.618  13.778  20.468  0.00  0.00    +0.000 C 
ATOM      2  C   UNL     1      -2.910  14.323  21.096  0.00  0.00    +0.000 C 
ATOM      3  N   UNL     1      -3.289  13.579  22.310  0.00  0.00    +0.000 N 
ATOM      4  C   UNL     1      -4.525  12.978  22.574  0.00  0.00    +0.000 C 
ATOM      5  O   UNL     1      -4.736  12.282  23.565  0.00  0.00    +0.000 OA
ATOM      6  C   UNL     1      -2.219  13.508  23.328  0.00  0.00    +0.000 C 
ATOM      7  C   UNL     1      -0.815  13.223  22.742  0.00  0.00    +0.000 C 
ATOM      8  N   UNL     1      -0.554  13.945  21.476  0.00  0.00    +0.000 N 
ATOM      9  C   UNL     1       0.559  14.768  21.380  0.00  0.00    +0.000 C 
ATOM     10  O   UNL     1       1.303  14.912  22.357  0.00  0.00    +0.000 OA
ENDROOT
BRANCH   4  11
ATOM     11  C   UNL     1      -5.645  13.128  21.625  0.00  0.00    +0.000 A 
ATOM     12  C   UNL     1      -5.999  12.108  20.768  0.00  0.00    +0.000 A 
ATOM     13  N   UNL     1      -6.929  12.244  19.788  0.00  0.00    +0.000 NA
ATOM     14  C   UNL     1      -7.525  13.444  19.704  0.00  0.00    +0.000 A 
ATOM     15  N   UNL     1      -7.318  14.478  20.533  0.00  0.00    +0.000 NA
ATOM     16  C   UNL     1      -6.413  14.265  21.513  0.00  0.00    +0.000 A 
ENDBRANCH   4  11
BRANCH   9  17
ATOM     17  C   UNL     1       0.862  15.516  20.054  0.00  0.00    +0.000 C 
ATOM     18  C   UNL     1       2.147  16.357  20.053  0.00  0.00    +0.000 C 
ATOM     19  C   UNL     1       3.421  15.523  20.064  0.00  0.00    +0.000 C 
ATOM     20  C   UNL     1       3.474  14.459  18.972  0.00  0.00    +0.000 C 
ATOM     21  C   UNL     1       2.172  13.688  18.784  0.00  0.00    +0.000 C 
ATOM     22  C   UNL     1       0.918  14.563  18.840  0.00  0.00    +0.000 C 
ENDBRANCH   9  17
BRANCH   1  24
ATOM     23  N   UNL     1      -0.768  11.480  20.058  0.00  0.00    +0.000 N 
ATOM     24  C   UNL     1      -1.860  12.330  19.948  0.00  0.00    +0.000 C 
ATOM     25  O   UNL     1      -2.933  11.956  19.486  0.00  0.00    +0.000 OA
ATOM     26  H   UNL     1       0.073  11.780  20.528  0.00  0.00    +0.000 HD
BRANCH  23  33
ATOM     27  O   UNL     1      -0.530   8.848  21.704  0.00  0.00    +0.000 OA
ATOM     28  C   UNL     1      -0.075   9.177  20.610  0.00  0.00    +0.000 C 
ATOM     29  N   UNL     1       1.231   8.856  20.337  0.00  0.00    +0.000 N 
ATOM     30  C   UNL     1       1.785   8.827  19.007  0.00  0.00    +0.000 C 
ATOM     31  C   UNL     1       1.265   9.977  18.167  0.00  0.00    +0.000 C 
ATOM     32  C   UNL     1      -0.260   9.952  18.191  0.00  0.00    +0.000 C 
ATOM     33  C   UNL     1      -0.822  10.084  19.611  0.00  0.00    +0.000 C 
ATOM     34  H   UNL     1       1.624   8.237  21.037  0.00  0.00    +0.000 HD
ENDBRANCH  23  33
ENDBRANCH   1  24
TORSDOF 4
ENDMDL
MODEL 6
REMARK VINA RESULT:      -6.2      2.887      7.439
REMARK  Name = 
REMARK  4 active torsions:
REMARK  status: ('A' for Active; 'I' for Inactive)
REMARK    1  A    between atoms: C_7  and  N_8
REMARK    2  A    between atoms: C_9  and  C_11
REMARK    3  A    between atoms: C_14  and  C_16
REMARK    4  A    between atoms: C_25  and  C_27
REMARK                            x       y       z     vdW  Elec       q    Type
REMARK                         _______ _______ _______ _____ _____    ______ ____
ROOT
ATOM      1  C   UNL     1      -2.037  12.220  19.366  0.00  0.00    +0.000 C 
ATOM      2  C   UNL     1      -1.526  10.812  19.709  0.00  0.00    +0.000 C 
ATOM      3  N   UNL     1      -0.638  10.820  20.886  0.00  0.00    +0.000 N 
ATOM      4  C   UNL     1       0.654  10.289  20.966  0.00  0.00    +0.000 C 
ATOM      5  O   UNL     1       1.377  10.427  21.950  0.00  0.00    +0.000 OA
ATOM      6  C   UNL     1      -1.236  11.450  22.083  0.00  0.00    +0.000 C 
ATOM      7  C   UNL     1      -2.011  12.756  21.782  0.00  0.00    +0.000 C 
ATOM      8  N   UNL     1      -2.806  12.687  20.534  0.00  0.00    +0.000 N 
ATOM      9  C   UNL     1      -4.168  12.950  20.581  0.00  0.00    +0.000 C 
ATOM     10  O   UNL     1      -4.707  13.210  21.663  0.00  0.00    +0.000 OA
ENDROOT
BRANCH   4  11
ATOM     11  C   UNL     1       1.231   9.558  19.822  0.00  0.00    +0.000 A 
ATOM     12  C   UNL     1       1.625   8.243  19.936  0.00  0.00    +0.000 A 
ATOM     13  N   UNL     1       2.283   7.571  18.957  0.00  0.00    +0.000 NA
ATOM     14  C   UNL     1       2.516   8.257  17.827  0.00  0.00    +0.000 A 
ATOM     15  N   UNL     1       2.108   9.510  17.576  0.00  0.00    +0.000 NA
ATOM     16  C   UNL     1       1.422  10.109  18.574  0.00  0.00    +0.000 A 
ENDBRANCH   4  11
BRANCH   9  17
ATOM     17  C   UNL     1      -5.015  12.905  19.281  0.00  0.00    +0.000 C 
ATOM     18  C   UNL     1      -5.524  11.515  18.876  0.00  0.00    +0.000 C 
ATOM     19  C   UNL     1      -6.609  10.972  19.796  0.00  0.00    +0.000 C 
ATOM     20  C   UNL     1      -7.776  11.930  20.010  0.00  0.00    +0.000 C 
ATOM     21  C   UNL     1      -7.364  13.380  20.246  0.00  0.00    +0.000 C 
ATOM     22  C   UNL     1      -6.229  13.858  19.337  0.00  0.00    +0.000 C 
ENDBRANCH   9  17
BRANCH   1  24
ATOM     23  N   UNL     1      -0.987  14.465  19.204  0.00  0.00    +0.000 N 
ATOM     24  C   UNL     1      -0.844  13.115  18.918  0.00  0.00    +0.000 C 
ATOM     25  O   UNL     1       0.155  12.668  18.364  0.00  0.00    +0.000 OA
ATOM     26  H   UNL     1      -1.772  14.797  19.744  0.00  0.00    +0.000 HD
BRANCH  23  33
ATOM     27  O   UNL     1       1.797  15.000  20.490  0.00  0.00    +0.000 OA
ATOM     28  C   UNL     1       0.928  15.760  20.068  0.00  0.00    +0.000 C 
ATOM     29  N   UNL     1       0.621  16.865  20.822  0.00  0.00    +0.000 N 
ATOM     30  C   UNL     1      -0.073  18.016  20.306  0.00  0.00    +0.000 C 
ATOM     31  C   UNL     1      -1.186  17.612  19.359  0.00  0.00    +0.000 C 
ATOM     32  C   UNL     1      -0.604  16.715  18.271  0.00  0.00    +0.000 C 
ATOM     33  C   UNL     1       0.040  15.449  18.845  0.00  0.00    +0.000 C 
ATOM     34  H   UNL     1       1.276  16.997  21.585  0.00  0.00    +0.000 HD
ENDBRANCH  23  33
ENDBRANCH   1  24
TORSDOF 4
ENDMDL
MODEL 7
REMARK VINA RESULT:      -6.1      7.111     11.228
REMARK  Name = 
REMARK  4 active torsions:
REMARK  status: ('A' for Active; 'I' for Inactive)
REMARK    1  A    between atoms: C_7  and  N_8
REMARK    2  A    between atoms: C_9  and  C_11
REMARK    3  A    between atoms: C_14  and  C_16
REMARK    4  A    between atoms: C_25  and  C_27
REMARK                            x       y       z     vdW  Elec       q    Type
REMARK                         _______ _______ _______ _____ _____    ______ ____
ROOT
ATOM      1  C   UNL     1       8.434  14.178  21.564  0.00  0.00    +0.000 C 
ATOM      2  C   UNL     1       7.240  14.534  20.664  0.00  0.00    +0.000 C 
ATOM      3  N   UNL     1       7.056  15.992  20.543  0.00  0.00    +0.000 N 
ATOM      4  C   UNL     1       5.883  16.712  20.790  0.00  0.00    +0.000 C 
ATOM      5  O   UNL     1       5.832  17.940  20.771  0.00  0.00    +0.000 OA
ATOM      6  C   UNL     1       8.266  16.712  20.093  0.00  0.00    +0.000 C 
ATOM      7  C   UNL     1       9.572  16.225  20.765  0.00  0.00    +0.000 C 
ATOM      8  N   UNL     1       9.632  14.754  20.925  0.00  0.00    +0.000 N 
ATOM      9  C   UNL     1      10.706  14.055  20.392  0.00  0.00    +0.000 C 
ATOM     10  O   UNL     1      11.584  14.661  19.766  0.00  0.00    +0.000 OA
ENDROOT
BRANCH   4  11
ATOM     11  C   UNL     1       4.633  16.007  21.133  0.00  0.00    +0.000 A 
ATOM     12  C   UNL     1       3.680  15.731  20.177  0.00  0.00    +0.000 A 
ATOM     13  N   UNL     1       2.461  15.207  20.466  0.00  0.00    +0.000 NA
ATOM     14  C   UNL     1       2.228  14.938  21.760  0.00  0.00    +0.000 A 
ATOM     15  N   UNL     1       3.108  15.089  22.760  0.00  0.00    +0.000 NA
ATOM     16  C   UNL     1       4.317  15.574  22.401  0.00  0.00    +0.000 A 
ENDBRANCH   4  11
BRANCH   9  17
ATOM     17  C   UNL     1      10.798  12.515  20.568  0.00  0.00    +0.000 C 
ATOM     18  C   UNL     1       9.554  11.729  20.132  0.00  0.00    +0.000 C 
ATOM     19  C   UNL     1       9.343  11.707  18.624  0.00  0.00    +0.000 C 
ATOM     20  C   UNL     1      10.568  11.257  17.835  0.00  0.00    +0.000 C 
ATOM     21  C   UNL     1      11.883  11.860  18.317  0.00  0.00    +0.000 C 
ATOM     22  C   UNL     1      12.020  11.913  19.841  0.00  0.00    +0.000 C 
ENDBRANCH   9  17
BRANCH   1  24
ATOM     23  N   UNL     1       7.410  13.726  23.782  0.00  0.00    +0.000 N 
ATOM     24  C   UNL     1       8.141  14.632  23.025  0.00  0.00    +0.000 C 
ATOM     25  O   UNL     1       8.531  15.700  23.484  0.00  0.00    +0.000 OA
ATOM     26  H   UNL     1       7.182  12.815  23.415  0.00  0.00    +0.000 HD
BRANCH  23  33
ATOM     27  O   UNL     1       9.210  13.963  26.311  0.00  0.00    +0.000 OA
ATOM     28  C   UNL     1       8.115  13.434  26.128  0.00  0.00    +0.000 C 
ATOM     29  N   UNL     1       7.905  12.193  26.674  0.00  0.00    +0.000 N 
ATOM     30  C   UNL     1       6.599  11.619  26.873  0.00  0.00    +0.000 C 
ATOM     31  C   UNL     1       5.677  11.923  25.708  0.00  0.00    +0.000 C 
ATOM     32  C   UNL     1       5.651  13.432  25.484  0.00  0.00    +0.000 C 
ATOM     33  C   UNL     1       7.041  13.998  25.175  0.00  0.00    +0.000 C 
ATOM     34  H   UNL     1       8.652  11.923  27.304  0.00  0.00    +0.000 HD
ENDBRANCH  23  33
ENDBRANCH   1  24
TORSDOF 4
ENDMDL
MODEL 8
REMARK VINA RESULT:      -6.1      6.799     10.702
REMARK  Name = 
REMARK  4 active torsions:
REMARK  status: ('A' for Active; 'I' for Inactive)
REMARK    1  A    between atoms: C_7  and  N_8
REMARK    2  A    between atoms: C_9  and  C_11
REMARK    3  A    between atoms: C_14  and  C_16
REMARK    4  A    between atoms: C_25  and  C_27
REMARK                            x       y       z     vdW  Elec       q    Type
REMARK                         _______ _______ _______ _____ _____    ______ ____
ROOT
ATOM      1  C   UNL     1       7.251  14.466  20.838  0.00  0.00    +0.000 C 
ATOM      2  C   UNL     1       5.964  14.918  20.131  0.00  0.00    +0.000 C 
ATOM      3  N   UNL     1       5.899  16.384  19.990  0.00  0.00    +0.000 N 
ATOM      4  C   UNL     1       4.854  17.221  20.397  0.00  0.00    +0.000 C 
ATOM      5  O   UNL     1       4.916  18.447  20.343  0.00  0.00    +0.000 OA
ATOM      6  C   UNL     1       7.080  16.975  19.324  0.00  0.00    +0.000 C 
ATOM      7  C   UNL     1       8.428  16.375  19.793  0.00  0.00    +0.000 C 
ATOM      8  N   UNL     1       8.376  14.909  19.994  0.00  0.00    +0.000 N 
ATOM      9  C   UNL     1       9.278  14.098  19.320  0.00  0.00    +0.000 C 
ATOM     10  O   UNL     1      10.094  14.603  18.539  0.00  0.00    +0.000 OA
ENDROOT
BRANCH   4  11
ATOM     11  C   UNL     1       3.618  16.648  20.962  0.00  0.00    +0.000 A 
ATOM     12  C   UNL     1       2.504  16.431  20.180  0.00  0.00    +0.000 A 
ATOM     13  N   UNL     1       1.306  16.035  20.678  0.00  0.00    +0.000 NA
ATOM     14  C   UNL     1       1.258  15.831  22.004  0.00  0.00    +0.000 A 
ATOM     15  N   UNL     1       2.296  15.931  22.847  0.00  0.00    +0.000 NA
ATOM     16  C   UNL     1       3.470  16.288  22.283  0.00  0.00    +0.000 A 
ENDBRANCH   4  11
BRANCH   9  17
ATOM     17  C   UNL     1       9.254  12.561  19.533  0.00  0.00    +0.000 C 
ATOM     18  C   UNL     1       9.495  11.718  18.273  0.00  0.00    +0.000 C 
ATOM     19  C   UNL     1      10.925  11.789  17.757  0.00  0.00    +0.000 C 
ATOM     20  C   UNL     1      11.981  11.485  18.816  0.00  0.00    +0.000 C 
ATOM     21  C   UNL     1      11.724  12.147  20.166  0.00  0.00    +0.000 C 
ATOM     22  C   UNL     1      10.260  12.102  20.611  0.00  0.00    +0.000 C 
ENDBRANCH   9  17
BRANCH   1  24
ATOM     23  N   UNL     1       6.889  14.023  23.256  0.00  0.00    +0.000 N 
ATOM     24  C   UNL     1       7.245  14.975  22.310  0.00  0.00    +0.000 C 
ATOM     25  O   UNL     1       7.542  16.124  22.621  0.00  0.00    +0.000 OA
ATOM     26  H   UNL     1       6.742  13.062  22.988  0.00  0.00    +0.000 HD
BRANCH  23  33
ATOM     27  O   UNL     1       9.179  14.715  25.247  0.00  0.00    +0.000 OA
ATOM     28  C   UNL     1       8.176  14.014  25.361  0.00  0.00    +0.000 C 
ATOM     29  N   UNL     1       8.312  12.798  25.982  0.00  0.00    +0.000 N 
ATOM     30  C   UNL     1       7.207  12.048  26.520  0.00  0.00    +0.000 C 
ATOM     31  C   UNL     1       5.995  12.122  25.612  0.00  0.00    +0.000 C 
ATOM     32  C   UNL     1       5.665  13.588  25.352  0.00  0.00    +0.000 C 
ATOM     33  C   UNL     1       6.827  14.336  24.687  0.00  0.00    +0.000 C 
ATOM     34  H   UNL     1       9.224  12.692  26.414  0.00  0.00    +0.000 HD
ENDBRANCH  23  33
ENDBRANCH   1  24
TORSDOF 4
ENDMDL
MODEL 9
REMARK VINA RESULT:      -6.1      2.159      7.895
REMARK  Name = 
REMARK  4 active torsions:
REMARK  status: ('A' for Active; 'I' for Inactive)
REMARK    1  A    between atoms: C_7  and  N_8
REMARK    2  A    between atoms: C_9  and  C_11
REMARK    3  A    between atoms: C_14  and  C_16
REMARK    4  A    between atoms: C_25  and  C_27
REMARK                            x       y       z     vdW  Elec       q    Type
REMARK                         _______ _______ _______ _____ _____    ______ ____
ROOT
ATOM      1  C   UNL     1      -2.033  12.559  19.455  0.00  0.00    +0.000 C 
ATOM      2  C   UNL     1      -0.816  12.898  18.580  0.00  0.00    +0.000 C 
ATOM      3  N   UNL     1       0.143  11.781  18.515  0.00  0.00    +0.000 N 
ATOM      4  C   UNL     1       1.513  11.835  18.798  0.00  0.00    +0.000 C 
ATOM      5  O   UNL     1       2.232  10.839  18.825  0.00  0.00    +0.000 OA
ATOM      6  C   UNL     1      -0.455  10.501  18.080  0.00  0.00    +0.000 C 
ATOM      7  C   UNL     1      -1.832  10.204  18.722  0.00  0.00    +0.000 C 
ATOM      8  N   UNL     1      -2.697  11.402  18.827  0.00  0.00    +0.000 N 
ATOM      9  C   UNL     1      -3.963  11.378  18.259  0.00  0.00    +0.000 C 
ATOM     10  O   UNL     1      -4.344  10.373  17.648  0.00  0.00    +0.000 OA
ENDROOT
BRANCH   4  11
ATOM     11  C   UNL     1       2.156  13.121  19.127  0.00  0.00    +0.000 A 
ATOM     12  C   UNL     1       2.636  13.955  18.140  0.00  0.00    +0.000 A 
ATOM     13  N   UNL     1       3.352  15.080  18.395  0.00  0.00    +0.000 NA
ATOM     14  C   UNL     1       3.558  15.366  19.690  0.00  0.00    +0.000 A 
ATOM     15  N   UNL     1       3.070  14.673  20.730  0.00  0.00    +0.000 NA
ATOM     16  C   UNL     1       2.329  13.589  20.410  0.00  0.00    +0.000 A 
ENDBRANCH   4  11
BRANCH   9  17
ATOM     17  C   UNL     1      -4.893  12.615  18.377  0.00  0.00    +0.000 C 
ATOM     18  C   UNL     1      -6.219  12.516  17.609  0.00  0.00    +0.000 C 
ATOM     19  C   UNL     1      -7.198  11.518  18.211  0.00  0.00    +0.000 C 
ATOM     20  C   UNL     1      -7.454  11.723  19.701  0.00  0.00    +0.000 C 
ATOM     21  C   UNL     1      -6.199  12.004  20.521  0.00  0.00    +0.000 C 
ATOM     22  C   UNL     1      -5.219  12.967  19.845  0.00  0.00    +0.000 C 
ENDBRANCH   9  17
BRANCH   1  24
ATOM     23  N   UNL     1      -2.379  13.019  21.872  0.00  0.00    +0.000 N 
ATOM     24  C   UNL     1      -1.579  12.380  20.934  0.00  0.00    +0.000 C 
ATOM     25  O   UNL     1      -0.599  11.718  21.257  0.00  0.00    +0.000 OA
ATOM     26  H   UNL     1      -3.233  13.478  21.592  0.00  0.00    +0.000 HD
BRANCH  23  33
ATOM     27  O   UNL     1      -4.077  11.836  24.197  0.00  0.00    +0.000 OA
ATOM     28  C   UNL     1      -3.406  12.862  24.110  0.00  0.00    +0.000 C 
ATOM     29  N   UNL     1      -3.940  14.022  24.614  0.00  0.00    +0.000 N 
ATOM     30  C   UNL     1      -3.159  15.191  24.927  0.00  0.00    +0.000 C 
ATOM     31  C   UNL     1      -2.084  15.432  23.886  0.00  0.00    +0.000 C 
ATOM     32  C   UNL     1      -1.248  14.164  23.740  0.00  0.00    +0.000 C 
ATOM     33  C   UNL     1      -2.092  12.959  23.309  0.00  0.00    +0.000 C 
ATOM     34  H   UNL     1      -4.787  13.851  25.145  0.00  0.00    +0.000 HD
ENDBRANCH  23  33
ENDBRANCH   1  24
TORSDOF 4
ENDMDL
