MODEL 1
REMARK VINA RESULT:      -7.8      0.000      0.000
REMARK  Name = 
REMARK  5 active torsions:
REMARK  status: ('A' for Active; 'I' for Inactive)
REMARK    1  A    between atoms: C_1  and  O_2
REMARK    2  A    between atoms: O_2  and  C_3
REMARK    3  A    between atoms: C_13  and  C_14
REMARK    4  A    between atoms: C_15  and  C_16
REMARK    5  A    between atoms: C_28  and  C_29
REMARK                            x       y       z     vdW  Elec       q    Type
REMARK                         _______ _______ _______ _____ _____    ______ ____
ROOT
ATOM      1  C   UNL     1      -2.034  15.697  23.140  0.00  0.00    +0.000 C 
ATOM      2  C   UNL     1      -0.654  16.184  22.710  0.00  0.00    +0.000 C 
ATOM      3  C   UNL     1       0.034  15.120  21.866  0.00  0.00    +0.000 C 
ATOM      4  C   UNL     1      -0.762  14.668  20.557  0.00  0.00    +0.000 C 
ATOM      5  C   UNL     1      -2.199  14.310  20.977  0.00  0.00    +0.000 C 
ATOM      6  C   UNL     1      -2.858  15.370  21.884  0.00  0.00    +0.000 C 
ATOM      7  C   UNL     1      -0.711  15.838  19.539  0.00  0.00    +0.000 C 
ATOM      8  C   UNL     1       0.667  15.660  18.980  0.00  0.00    +0.000 A 
ATOM      9  C   UNL     1       1.541  16.672  18.600  0.00  0.00    +0.000 A 
ATOM     10  C   UNL     1       2.859  16.323  18.280  0.00  0.00    +0.000 A 
ATOM     11  C   UNL     1       3.288  14.984  18.307  0.00  0.00    +0.000 A 
ATOM     12  C   UNL     1       2.392  13.969  18.689  0.00  0.00    +0.000 A 
ATOM     13  C   UNL     1       1.081  14.319  19.054  0.00  0.00    +0.000 A 
ATOM     14  C   UNL     1       0.041  13.479  19.818  0.00  0.00    +0.000 C 
ATOM     15  N   UNL     1       0.719  12.772  20.969  0.00  0.00    +0.000 NA
ATOM     16  C   UNL     1       0.515  11.519  20.770  0.00  0.00    +0.000 C 
ATOM     17  N   UNL     1       0.407  10.656  21.815  0.00  0.00    +0.000 N 
ATOM     18  C   UNL     1       0.109  11.197  19.429  0.00  0.00    +0.000 A 
ATOM     19  C   UNL     1       0.180   9.969  18.810  0.00  0.00    +0.000 A 
ATOM     20  C   UNL     1      -0.702   9.763  17.778  0.00  0.00    +0.000 A 
ATOM     21  C   UNL     1      -1.714  10.722  17.535  0.00  0.00    +0.000 A 
ATOM     22  C   UNL     1      -1.617  12.045  18.112  0.00  0.00    +0.000 A 
ATOM     23  C   UNL     1      -0.577  12.323  19.002  0.00  0.00    +0.000 A 
ATOM     24  H   UNL     1       0.398  11.216  22.668  0.00  0.00    +0.000 HD
ATOM     25  H   UNL     1      -0.487  10.165  21.778  0.00  0.00    +0.000 HD
ENDROOT
BRANCH  21  26
ATOM     26  C   UNL     1      -2.941  10.187  16.807  0.00  0.00    +0.000 C 
ATOM     27  F   UNL     1      -3.766  11.179  16.347  0.00  0.00    +0.000 F 
ATOM     28  F   UNL     1      -2.598   9.480  15.691  0.00  0.00    +0.000 F 
ATOM     29  F   UNL     1      -3.729   9.370  17.550  0.00  0.00    +0.000 F 
ENDBRANCH  21  26
BRANCH   1  31
ATOM     30  C   UNL     1      -3.201  14.213  24.628  0.00  0.00    +0.000 C 
ATOM     31  O   UNL     1      -1.986  14.513  23.951  0.00  0.00    +0.000 OA
ENDBRANCH   1  31
BRANCH  11  32
ATOM     32  C   UNL     1       4.677  14.720  17.987  0.00  0.00    +0.000 C 
ATOM     33  C   UNL     1       5.862  14.634  17.830  0.00  0.00    +0.000 C 
BRANCH  33  34
ATOM     34  C   UNL     1       7.304  14.673  17.716  0.00  0.00    +0.000 C 
ATOM     35  C   UNL     1       8.171  14.357  18.890  0.00  0.00    +0.000 C 
ATOM     36  C   UNL     1       8.081  13.410  17.735  0.00  0.00    +0.000 C 
ENDBRANCH  33  34
ENDBRANCH  11  32
TORSDOF 4
ENDMDL
MODEL 2
REMARK VINA RESULT:      -7.7      4.141      6.850
REMARK  Name = 
REMARK  5 active torsions:
REMARK  status: ('A' for Active; 'I' for Inactive)
REMARK    1  A    between atoms: C_1  and  O_2
REMARK    2  A    between atoms: O_2  and  C_3
REMARK    3  A    between atoms: C_13  and  C_14
REMARK    4  A    between atoms: C_15  and  C_16
REMARK    5  A    between atoms: C_28  and  C_29
REMARK                            x       y       z     vdW  Elec       q    Type
REMARK                         _______ _______ _______ _____ _____    ______ ____
ROOT
ATOM      1  C   UNL     1      -4.470  14.122  21.632  0.00  0.00    +0.000 C 
ATOM      2  C   UNL     1      -4.195  12.628  21.777  0.00  0.00    +0.000 C 
ATOM      3  C   UNL     1      -2.903  12.264  21.061  0.00  0.00    +0.000 C 
ATOM      4  C   UNL     1      -1.605  13.055  21.551  0.00  0.00    +0.000 C 
ATOM      5  C   UNL     1      -1.933  14.559  21.536  0.00  0.00    +0.000 C 
ATOM      6  C   UNL     1      -3.278  14.903  22.211  0.00  0.00    +0.000 C 
ATOM      7  C   UNL     1      -1.237  12.539  22.967  0.00  0.00    +0.000 C 
ATOM      8  C   UNL     1      -0.544  11.256  22.623  0.00  0.00    +0.000 A 
ATOM      9  C   UNL     1      -0.597  10.069  23.345  0.00  0.00    +0.000 A 
ATOM     10  C   UNL     1      -0.043   8.919  22.769  0.00  0.00    +0.000 A 
ATOM     11  C   UNL     1       0.584   8.960  21.511  0.00  0.00    +0.000 A 
ATOM     12  C   UNL     1       0.636  10.169  20.793  0.00  0.00    +0.000 A 
ATOM     13  C   UNL     1       0.042  11.316  21.346  0.00  0.00    +0.000 A 
ATOM     14  C   UNL     1      -0.338  12.633  20.644  0.00  0.00    +0.000 C 
ATOM     15  N   UNL     1      -0.973  12.322  19.310  0.00  0.00    +0.000 NA
ATOM     16  C   UNL     1      -0.241  12.912  18.435  0.00  0.00    +0.000 C 
ATOM     17  N   UNL     1      -0.779  13.384  17.278  0.00  0.00    +0.000 N 
ATOM     18  C   UNL     1       1.059  13.291  18.919  0.00  0.00    +0.000 A 
ATOM     19  C   UNL     1       2.176  13.580  18.166  0.00  0.00    +0.000 A 
ATOM     20  C   UNL     1       3.108  14.394  18.761  0.00  0.00    +0.000 A 
ATOM     21  C   UNL     1       2.798  15.009  19.997  0.00  0.00    +0.000 A 
ATOM     22  C   UNL     1       1.689  14.527  20.792  0.00  0.00    +0.000 A 
ATOM     23  C   UNL     1       0.862  13.530  20.270  0.00  0.00    +0.000 A 
ATOM     24  H   UNL     1      -1.791  13.276  17.351  0.00  0.00    +0.000 HD
ATOM     25  H   UNL     1      -0.597  14.383  17.185  0.00  0.00    +0.000 HD
ENDROOT
BRANCH  21  26
ATOM     26  C   UNL     1       3.583  16.281  20.294  0.00  0.00    +0.000 C 
ATOM     27  F   UNL     1       4.922  16.054  20.471  0.00  0.00    +0.000 F 
ATOM     28  F   UNL     1       3.519  17.166  19.257  0.00  0.00    +0.000 F 
ATOM     29  F   UNL     1       3.175  16.954  21.398  0.00  0.00    +0.000 F 
ENDBRANCH  21  26
BRANCH   1  31
ATOM     30  C   UNL     1      -5.914  14.228  19.714  0.00  0.00    +0.000 C 
ATOM     31  O   UNL     1      -4.639  14.533  20.267  0.00  0.00    +0.000 OA
ENDBRANCH   1  31
BRANCH  11  32
ATOM     32  C   UNL     1       1.106   7.715  20.983  0.00  0.00    +0.000 C 
ATOM     33  C   UNL     1       1.510   6.621  20.706  0.00  0.00    +0.000 C 
BRANCH  33  34
ATOM     34  C   UNL     1       1.996   5.270  20.530  0.00  0.00    +0.000 C 
ATOM     35  C   UNL     1       1.046   4.118  20.485  0.00  0.00    +0.000 C 
ATOM     36  C   UNL     1       1.762   4.561  19.248  0.00  0.00    +0.000 C 
ENDBRANCH  33  34
ENDBRANCH  11  32
TORSDOF 4
ENDMDL
MODEL 3
REMARK VINA RESULT:      -7.4      1.018      1.181
REMARK  Name = 
REMARK  5 active torsions:
REMARK  status: ('A' for Active; 'I' for Inactive)
REMARK    1  A    between atoms: C_1  and  O_2
REMARK    2  A    between atoms: O_2  and  C_3
REMARK    3  A    between atoms: C_13  and  C_14
REMARK    4  A    between atoms: C_15  and  C_16
REMARK    5  A    between atoms: C_28  and  C_29
REMARK                            x       y       z     vdW  Elec       q    Type
REMARK                         _______ _______ _______ _____ _____    ______ ____
ROOT
ATOM      1  C   UNL     1      -2.974  14.407  23.628  0.00  0.00    +0.000 C 
ATOM      2  C   UNL     1      -1.591  15.008  23.398  0.00  0.00    +0.000 C 
ATOM      3  C   UNL     1      -0.827  14.181  22.374  0.00  0.00    +0.000 C 
ATOM      4  C   UNL     1      -1.541  14.024  20.954  0.00  0.00    +0.000 C 
ATOM      5  C   UNL     1      -2.984  13.549  21.200  0.00  0.00    +0.000 C 
ATOM      6  C   UNL     1      -3.722  14.358  22.286  0.00  0.00    +0.000 C 
ATOM      7  C   UNL     1      -1.479  15.397  20.233  0.00  0.00    +0.000 C 
ATOM      8  C   UNL     1      -0.069  15.381  19.727  0.00  0.00    +0.000 A 
ATOM      9  C   UNL     1       0.789  16.471  19.636  0.00  0.00    +0.000 A 
ATOM     10  C   UNL     1       2.132  16.232  19.320  0.00  0.00    +0.000 A 
ATOM     11  C   UNL     1       2.603  14.933  19.065  0.00  0.00    +0.000 A 
ATOM     12  C   UNL     1       1.724  13.838  19.155  0.00  0.00    +0.000 A 
ATOM     13  C   UNL     1       0.386  14.067  19.516  0.00  0.00    +0.000 A 
ATOM     14  C   UNL     1      -0.662  13.053  20.010  0.00  0.00    +0.000 C 
ATOM     15  N   UNL     1      -0.019  12.116  21.005  0.00  0.00    +0.000 NA
ATOM     16  C   UNL     1      -0.171  10.938  20.516  0.00  0.00    +0.000 C 
ATOM     17  N   UNL     1      -0.303   9.856  21.330  0.00  0.00    +0.000 N 
ATOM     18  C   UNL     1      -0.499  10.923  19.116  0.00  0.00    +0.000 A 
ATOM     19  C   UNL     1      -0.357   9.871  18.239  0.00  0.00    +0.000 A 
ATOM     20  C   UNL     1      -1.179   9.888  17.139  0.00  0.00    +0.000 A 
ATOM     21  C   UNL     1      -2.208  10.855  17.064  0.00  0.00    +0.000 A 
ATOM     22  C   UNL     1      -2.184  12.013  17.932  0.00  0.00    +0.000 A 
ATOM     23  C   UNL     1      -1.201  12.102  18.919  0.00  0.00    +0.000 A 
ATOM     24  H   UNL     1      -0.372  10.206  22.286  0.00  0.00    +0.000 HD
ATOM     25  H   UNL     1      -1.176   9.368  21.132  0.00  0.00    +0.000 HD
ENDROOT
BRANCH  21  26
ATOM     26  C   UNL     1      -3.380  10.475  16.166  0.00  0.00    +0.000 C 
ATOM     27  F   UNL     1      -3.398  11.171  14.987  0.00  0.00    +0.000 F 
ATOM     28  F   UNL     1      -3.322   9.164  15.791  0.00  0.00    +0.000 F 
ATOM     29  F   UNL     1      -4.603  10.661  16.722  0.00  0.00    +0.000 F 
ENDBRANCH  21  26
BRANCH   1  31
ATOM     30  C   UNL     1      -4.183  12.561  24.581  0.00  0.00    +0.000 C 
ATOM     31  O   UNL     1      -2.926  13.070  24.149  0.00  0.00    +0.000 OA
ENDBRANCH   1  31
BRANCH  11  32
ATOM     32  C   UNL     1       4.015  14.778  18.772  0.00  0.00    +0.000 C 
ATOM     33  C   UNL     1       5.144  14.721  18.373  0.00  0.00    +0.000 C 
BRANCH  33  34
ATOM     34  C   UNL     1       6.447  14.686  17.746  0.00  0.00    +0.000 C 
ATOM     35  C   UNL     1       7.479  15.715  18.075  0.00  0.00    +0.000 C 
ATOM     36  C   UNL     1       7.639  14.302  18.541  0.00  0.00    +0.000 C 
ENDBRANCH  33  34
ENDBRANCH  11  32
TORSDOF 4
ENDMDL
MODEL 4
REMARK VINA RESULT:      -7.1      1.148      1.735
REMARK  Name = 
REMARK  5 active torsions:
REMARK  status: ('A' for Active; 'I' for Inactive)
REMARK    1  A    between atoms: C_1  and  O_2
REMARK    2  A    between atoms: O_2  and  C_3
REMARK    3  A    between atoms: C_13  and  C_14
REMARK    4  A    between atoms: C_15  and  C_16
REMARK    5  A    between atoms: C_28  and  C_29
REMARK                            x       y       z     vdW  Elec       q    Type
REMARK                         _______ _______ _______ _____ _____    ______ ____
ROOT
ATOM      1  C   UNL     1      -3.792  14.353  23.985  0.00  0.00    +0.000 C 
ATOM      2  C   UNL     1      -2.592  15.256  23.723  0.00  0.00    +0.000 C 
ATOM      3  C   UNL     1      -1.625  14.575  22.765  0.00  0.00    +0.000 C 
ATOM      4  C   UNL     1      -2.246  14.155  21.354  0.00  0.00    +0.000 C 
ATOM      5  C   UNL     1      -3.536  13.360  21.622  0.00  0.00    +0.000 C 
ATOM      6  C   UNL     1      -4.475  14.035  22.644  0.00  0.00    +0.000 C 
ATOM      7  C   UNL     1      -2.501  15.452  20.540  0.00  0.00    +0.000 C 
ATOM      8  C   UNL     1      -1.118  15.747  20.046  0.00  0.00    +0.000 A 
ATOM      9  C   UNL     1      -0.549  17.005  19.886  0.00  0.00    +0.000 A 
ATOM     10  C   UNL     1       0.819  17.080  19.597  0.00  0.00    +0.000 A 
ATOM     11  C   UNL     1       1.598  15.920  19.437  0.00  0.00    +0.000 A 
ATOM     12  C   UNL     1       1.008  14.653  19.596  0.00  0.00    +0.000 A 
ATOM     13  C   UNL     1      -0.354  14.572  19.931  0.00  0.00    +0.000 A 
ATOM     14  C   UNL     1      -1.136  13.367  20.486  0.00  0.00    +0.000 C 
ATOM     15  N   UNL     1      -0.308  12.683  21.549  0.00  0.00    +0.000 NA
ATOM     16  C   UNL     1      -0.159  11.474  21.141  0.00  0.00    +0.000 C 
ATOM     17  N   UNL     1      -0.043  10.449  22.028  0.00  0.00    +0.000 N 
ATOM     18  C   UNL     1      -0.439  11.288  19.744  0.00  0.00    +0.000 A 
ATOM     19  C   UNL     1      -0.025  10.247  18.943  0.00  0.00    +0.000 A 
ATOM     20  C   UNL     1      -0.801   9.991  17.839  0.00  0.00    +0.000 A 
ATOM     21  C   UNL     1      -2.032  10.671  17.689  0.00  0.00    +0.000 A 
ATOM     22  C   UNL     1      -2.310  11.854  18.475  0.00  0.00    +0.000 A 
ATOM     23  C   UNL     1      -1.401  12.245  19.460  0.00  0.00    +0.000 A 
ATOM     24  H   UNL     1      -0.218  10.833  22.957  0.00  0.00    +0.000 HD
ATOM     25  H   UNL     1      -0.767   9.751  21.858  0.00  0.00    +0.000 HD
ENDROOT
BRANCH  21  26
ATOM     26  C   UNL     1      -3.054   9.959  16.812  0.00  0.00    +0.000 C 
ATOM     27  F   UNL     1      -3.980  10.810  16.270  0.00  0.00    +0.000 F 
ATOM     28  F   UNL     1      -2.465   9.361  15.735  0.00  0.00    +0.000 F 
ATOM     29  F   UNL     1      -3.767   8.994  17.443  0.00  0.00    +0.000 F 
ENDBRANCH  21  26
BRANCH   1  31
ATOM     30  C   UNL     1      -4.541  12.282  24.948  0.00  0.00    +0.000 C 
ATOM     31  O   UNL     1      -3.434  13.105  24.598  0.00  0.00    +0.000 OA
ENDBRANCH   1  31
BRANCH  11  32
ATOM     32  C   UNL     1       3.011  16.095  19.165  0.00  0.00    +0.000 C 
ATOM     33  C   UNL     1       4.167  16.092  18.847  0.00  0.00    +0.000 C 
BRANCH  33  34
ATOM     34  C   UNL     1       5.538  15.936  18.412  0.00  0.00    +0.000 C 
ATOM     35  C   UNL     1       6.485  15.066  19.173  0.00  0.00    +0.000 C 
ATOM     36  C   UNL     1       5.985  14.649  17.825  0.00  0.00    +0.000 C 
ENDBRANCH  33  34
ENDBRANCH  11  32
TORSDOF 4
ENDMDL
MODEL 5
REMARK VINA RESULT:      -6.9      4.357      6.913
REMARK  Name = 
REMARK  5 active torsions:
REMARK  status: ('A' for Active; 'I' for Inactive)
REMARK    1  A    between atoms: C_1  and  O_2
REMARK    2  A    between atoms: O_2  and  C_3
REMARK    3  A    between atoms: C_13  and  C_14
REMARK    4  A    between atoms: C_15  and  C_16
REMARK    5  A    between atoms: C_28  and  C_29
REMARK                            x       y       z     vdW  Elec       q    Type
REMARK                         _______ _______ _______ _____ _____    ______ ____
ROOT
ATOM      1  C   UNL     1      -4.740  14.206  21.841  0.00  0.00    +0.000 C 
ATOM      2  C   UNL     1      -4.384  12.728  21.718  0.00  0.00    +0.000 C 
ATOM      3  C   UNL     1      -2.992  12.575  21.123  0.00  0.00    +0.000 C 
ATOM      4  C   UNL     1      -1.821  13.300  21.930  0.00  0.00    +0.000 C 
ATOM      5  C   UNL     1      -2.247  14.759  22.174  0.00  0.00    +0.000 C 
ATOM      6  C   UNL     1      -3.684  14.898  22.718  0.00  0.00    +0.000 C 
ATOM      7  C   UNL     1      -1.594  12.516  23.251  0.00  0.00    +0.000 C 
ATOM      8  C   UNL     1      -0.778  11.363  22.752  0.00  0.00    +0.000 A 
ATOM      9  C   UNL     1      -0.838  10.051  23.206  0.00  0.00    +0.000 A 
ATOM     10  C   UNL     1      -0.140   9.070  22.491  0.00  0.00    +0.000 A 
ATOM     11  C   UNL     1       0.631   9.397  21.363  0.00  0.00    +0.000 A 
ATOM     12  C   UNL     1       0.688  10.730  20.915  0.00  0.00    +0.000 A 
ATOM     13  C   UNL     1      -0.047  11.711  21.603  0.00  0.00    +0.000 A 
ATOM     14  C   UNL     1      -0.426  13.129  21.135  0.00  0.00    +0.000 C 
ATOM     15  N   UNL     1      -0.872  13.076  19.693  0.00  0.00    +0.000 NA
ATOM     16  C   UNL     1      -0.079  13.864  19.060  0.00  0.00    +0.000 C 
ATOM     17  N   UNL     1      -0.503  14.543  17.961  0.00  0.00    +0.000 N 
ATOM     18  C   UNL     1       1.123  14.189  19.779  0.00  0.00    +0.000 A 
ATOM     19  C   UNL     1       2.300  14.674  19.257  0.00  0.00    +0.000 A 
ATOM     20  C   UNL     1       3.095  15.385  20.122  0.00  0.00    +0.000 A 
ATOM     21  C   UNL     1       2.595  15.715  21.403  0.00  0.00    +0.000 A 
ATOM     22  C   UNL     1       1.433  15.034  21.929  0.00  0.00    +0.000 A 
ATOM     23  C   UNL     1       0.746  14.133  21.113  0.00  0.00    +0.000 A 
ATOM     24  H   UNL     1      -1.507  14.380  17.874  0.00  0.00    +0.000 HD
ATOM     25  H   UNL     1      -0.379  15.547  18.094  0.00  0.00    +0.000 HD
ENDROOT
BRANCH  21  26
ATOM     26  C   UNL     1       3.249  16.930  22.051  0.00  0.00    +0.000 C 
ATOM     27  F   UNL     1       3.774  16.659  23.288  0.00  0.00    +0.000 F 
ATOM     28  F   UNL     1       4.309  17.383  21.320  0.00  0.00    +0.000 F 
ATOM     29  F   UNL     1       2.424  17.991  22.227  0.00  0.00    +0.000 F 
ENDBRANCH  21  26
BRANCH   1  31
ATOM     30  C   UNL     1      -5.516  16.095  20.574  0.00  0.00    +0.000 C 
ATOM     31  O   UNL     1      -4.769  14.884  20.576  0.00  0.00    +0.000 OA
ENDBRANCH   1  31
BRANCH  11  32
ATOM     32  C   UNL     1       1.298   8.313  20.669  0.00  0.00    +0.000 C 
ATOM     33  C   UNL     1       1.851   7.335  20.252  0.00  0.00    +0.000 C 
BRANCH  33  34
ATOM     34  C   UNL     1       2.541   6.112  19.902  0.00  0.00    +0.000 C 
ATOM     35  C   UNL     1       1.869   4.787  20.057  0.00  0.00    +0.000 C 
ATOM     36  C   UNL     1       2.130   5.351  18.696  0.00  0.00    +0.000 C 
ENDBRANCH  33  34
ENDBRANCH  11  32
TORSDOF 4
ENDMDL
MODEL 6
REMARK VINA RESULT:      -6.9      1.639      1.928
REMARK  Name = 
REMARK  5 active torsions:
REMARK  status: ('A' for Active; 'I' for Inactive)
REMARK    1  A    between atoms: C_1  and  O_2
REMARK    2  A    between atoms: O_2  and  C_3
REMARK    3  A    between atoms: C_13  and  C_14
REMARK    4  A    between atoms: C_15  and  C_16
REMARK    5  A    between atoms: C_28  and  C_29
REMARK                            x       y       z     vdW  Elec       q    Type
REMARK                         _______ _______ _______ _____ _____    ______ ____
ROOT
ATOM      1  C   UNL     1      -3.662  14.307  24.110  0.00  0.00    +0.000 C 
ATOM      2  C   UNL     1      -2.336  15.059  24.064  0.00  0.00    +0.000 C 
ATOM      3  C   UNL     1      -1.339  14.305  23.195  0.00  0.00    +0.000 C 
ATOM      4  C   UNL     1      -1.809  14.038  21.693  0.00  0.00    +0.000 C 
ATOM      5  C   UNL     1      -3.211  13.405  21.740  0.00  0.00    +0.000 C 
ATOM      6  C   UNL     1      -4.190  14.146  22.675  0.00  0.00    +0.000 C 
ATOM      7  C   UNL     1      -1.792  15.395  20.938  0.00  0.00    +0.000 C 
ATOM      8  C   UNL     1      -0.328  15.531  20.646  0.00  0.00    +0.000 A 
ATOM      9  C   UNL     1       0.407  16.711  20.643  0.00  0.00    +0.000 A 
ATOM     10  C   UNL     1       1.800  16.622  20.537  0.00  0.00    +0.000 A 
ATOM     11  C   UNL     1       2.446  15.380  20.403  0.00  0.00    +0.000 A 
ATOM     12  C   UNL     1       1.690  14.193  20.403  0.00  0.00    +0.000 A 
ATOM     13  C   UNL     1       0.295  14.274  20.554  0.00  0.00    +0.000 A 
ATOM     14  C   UNL     1      -0.696  13.156  20.925  0.00  0.00    +0.000 C 
ATOM     15  N   UNL     1      -0.111  12.319  22.038  0.00  0.00    +0.000 NA
ATOM     16  C   UNL     1      -0.056  11.122  21.575  0.00  0.00    +0.000 C 
ATOM     17  N   UNL     1      -0.188  10.049  22.401  0.00  0.00    +0.000 N 
ATOM     18  C   UNL     1      -0.165  11.042  20.144  0.00  0.00    +0.000 A 
ATOM     19  C   UNL     1       0.223   9.996  19.337  0.00  0.00    +0.000 A 
ATOM     20  C   UNL     1      -0.421   9.896  18.128  0.00  0.00    +0.000 A 
ATOM     21  C   UNL     1      -1.528  10.737  17.867  0.00  0.00    +0.000 A 
ATOM     22  C   UNL     1      -1.763  11.907  18.685  0.00  0.00    +0.000 A 
ATOM     23  C   UNL     1      -0.955  12.128  19.802  0.00  0.00    +0.000 A 
ATOM     24  H   UNL     1      -0.439  10.408  23.323  0.00  0.00    +0.000 HD
ATOM     25  H   UNL     1      -0.962   9.460  22.094  0.00  0.00    +0.000 HD
ENDROOT
BRANCH  21  26
ATOM     26  C   UNL     1      -2.501  10.206  16.821  0.00  0.00    +0.000 C 
ATOM     27  F   UNL     1      -3.093  11.201  16.088  0.00  0.00    +0.000 F 
ATOM     28  F   UNL     1      -1.870   9.426  15.895  0.00  0.00    +0.000 F 
ATOM     29  F   UNL     1      -3.519   9.462  17.320  0.00  0.00    +0.000 F 
ENDBRANCH  21  26
BRANCH   1  31
ATOM     30  C   UNL     1      -4.785  12.318  24.859  0.00  0.00    +0.000 C 
ATOM     31  O   UNL     1      -3.546  12.995  24.681  0.00  0.00    +0.000 OA
ENDBRANCH   1  31
BRANCH  11  32
ATOM     32  C   UNL     1       3.893  15.383  20.327  0.00  0.00    +0.000 C 
ATOM     33  C   UNL     1       5.083  15.237  20.358  0.00  0.00    +0.000 C 
BRANCH  33  34
ATOM     34  C   UNL     1       6.492  14.948  20.507  0.00  0.00    +0.000 C 
ATOM     35  C   UNL     1       7.325  15.701  21.491  0.00  0.00    +0.000 C 
ATOM     36  C   UNL     1       6.981  14.265  21.730  0.00  0.00    +0.000 C 
ENDBRANCH  33  34
ENDBRANCH  11  32
TORSDOF 4
ENDMDL
MODEL 7
REMARK VINA RESULT:      -6.8      7.911     10.818
REMARK  Name = 
REMARK  5 active torsions:
REMARK  status: ('A' for Active; 'I' for Inactive)
REMARK    1  A    between atoms: C_1  and  O_2
REMARK    2  A    between atoms: O_2  and  C_3
REMARK    3  A    between atoms: C_13  and  C_14
REMARK    4  A    between atoms: C_15  and  C_16
REMARK    5  A    between atoms: C_28  and  C_29
REMARK                            x       y       z     vdW  Elec       q    Type
REMARK                         _______ _______ _______ _____ _____    ______ ____
ROOT
ATOM      1  C   UNL     1       3.757   1.740  20.456  0.00  0.00    +0.000 C 
ATOM      2  C   UNL     1       3.173   3.119  20.743  0.00  0.00    +0.000 C 
ATOM      3  C   UNL     1       3.821   4.158  19.839  0.00  0.00    +0.000 C 
ATOM      4  C   UNL     1       3.686   3.879  18.272  0.00  0.00    +0.000 C 
ATOM      5  C   UNL     1       4.146   2.434  18.007  0.00  0.00    +0.000 C 
ATOM      6  C   UNL     1       3.528   1.403  18.974  0.00  0.00    +0.000 C 
ATOM      7  C   UNL     1       2.205   4.116  17.871  0.00  0.00    +0.000 C 
ATOM      8  C   UNL     1       2.176   5.612  17.789  0.00  0.00    +0.000 A 
ATOM      9  C   UNL     1       1.119   6.439  18.151  0.00  0.00    +0.000 A 
ATOM     10  C   UNL     1       1.343   7.820  18.187  0.00  0.00    +0.000 A 
ATOM     11  C   UNL     1       2.588   8.370  17.835  0.00  0.00    +0.000 A 
ATOM     12  C   UNL     1       3.649   7.522  17.465  0.00  0.00    +0.000 A 
ATOM     13  C   UNL     1       3.443   6.132  17.470  0.00  0.00    +0.000 A 
ATOM     14  C   UNL     1       4.494   5.007  17.448  0.00  0.00    +0.000 C 
ATOM     15  N   UNL     1       5.623   5.359  18.389  0.00  0.00    +0.000 NA
ATOM     16  C   UNL     1       6.682   5.375  17.662  0.00  0.00    +0.000 C 
ATOM     17  N   UNL     1       7.891   5.039  18.187  0.00  0.00    +0.000 N 
ATOM     18  C   UNL     1       6.424   5.457  16.251  0.00  0.00    +0.000 A 
ATOM     19  C   UNL     1       7.298   5.862  15.267  0.00  0.00    +0.000 A 
ATOM     20  C   UNL     1       7.047   5.385  14.004  0.00  0.00    +0.000 A 
ATOM     21  C   UNL     1       6.047   4.401  13.826  0.00  0.00    +0.000 A 
ATOM     22  C   UNL     1       5.073   4.156  14.868  0.00  0.00    +0.000 A 
ATOM     23  C   UNL     1       5.204   4.818  16.090  0.00  0.00    +0.000 A 
ATOM     24  H   UNL     1       7.724   4.695  19.133  0.00  0.00    +0.000 HD
ATOM     25  H   UNL     1       8.303   4.266  17.662  0.00  0.00    +0.000 HD
ENDROOT
BRANCH  21  26
ATOM     26  C   UNL     1       6.211   3.539  12.580  0.00  0.00    +0.000 C 
ATOM     27  F   UNL     1       5.123   3.587  11.749  0.00  0.00    +0.000 F 
ATOM     28  F   UNL     1       7.253   3.964  11.807  0.00  0.00    +0.000 F 
ATOM     29  F   UNL     1       6.428   2.223  12.825  0.00  0.00    +0.000 F 
ENDBRANCH  21  26
BRANCH   1  31
ATOM     30  C   UNL     1       5.559   0.590  21.555  0.00  0.00    +0.000 C 
ATOM     31  O   UNL     1       5.169   1.663  20.707  0.00  0.00    +0.000 OA
ENDBRANCH   1  31
BRANCH  11  32
ATOM     32  C   UNL     1       2.736   9.809  17.927  0.00  0.00    +0.000 C 
ATOM     33  C   UNL     1       2.682  11.004  18.001  0.00  0.00    +0.000 C 
BRANCH  33  34
ATOM     34  C   UNL     1       2.461  12.433  18.054  0.00  0.00    +0.000 C 
ATOM     35  C   UNL     1       1.153  12.985  18.517  0.00  0.00    +0.000 C 
ATOM     36  C   UNL     1       2.378  13.119  19.367  0.00  0.00    +0.000 C 
ENDBRANCH  33  34
ENDBRANCH  11  32
TORSDOF 4
ENDMDL
MODEL 8
REMARK VINA RESULT:      -6.7      4.420      6.748
REMARK  Name = 
REMARK  5 active torsions:
REMARK  status: ('A' for Active; 'I' for Inactive)
REMARK    1  A    between atoms: C_1  and  O_2
REMARK    2  A    between atoms: O_2  and  C_3
REMARK    3  A    between atoms: C_13  and  C_14
REMARK    4  A    between atoms: C_15  and  C_16
REMARK    5  A    between atoms: C_28  and  C_29
REMARK                            x       y       z     vdW  Elec       q    Type
REMARK                         _______ _______ _______ _____ _____    ______ ____
ROOT
ATOM      1  C   UNL     1      -4.432  14.113  22.240  0.00  0.00    +0.000 C 
ATOM      2  C   UNL     1      -4.094  12.696  21.790  0.00  0.00    +0.000 C 
ATOM      3  C   UNL     1      -2.740  12.679  21.095  0.00  0.00    +0.000 C 
ATOM      4  C   UNL     1      -1.519  13.226  21.966  0.00  0.00    +0.000 C 
ATOM      5  C   UNL     1      -1.920  14.599  22.534  0.00  0.00    +0.000 C 
ATOM      6  C   UNL     1      -3.322  14.613  23.179  0.00  0.00    +0.000 C 
ATOM      7  C   UNL     1      -1.220  12.185  23.078  0.00  0.00    +0.000 C 
ATOM      8  C   UNL     1      -0.442  11.166  22.302  0.00  0.00    +0.000 A 
ATOM      9  C   UNL     1      -0.484   9.787  22.475  0.00  0.00    +0.000 A 
ATOM     10  C   UNL     1       0.164   8.982  21.531  0.00  0.00    +0.000 A 
ATOM     11  C   UNL     1       0.870   9.542  20.452  0.00  0.00    +0.000 A 
ATOM     12  C   UNL     1       0.909  10.940  20.291  0.00  0.00    +0.000 A 
ATOM     13  C   UNL     1       0.223  11.751  21.210  0.00  0.00    +0.000 A 
ATOM     14  C   UNL     1      -0.174  13.233  21.073  0.00  0.00    +0.000 C 
ATOM     15  N   UNL     1      -0.704  13.480  19.679  0.00  0.00    +0.000 NA
ATOM     16  C   UNL     1       0.056  14.388  19.180  0.00  0.00    +0.000 C 
ATOM     17  N   UNL     1      -0.427  15.279  18.274  0.00  0.00    +0.000 N 
ATOM     18  C   UNL     1       1.300  14.561  19.880  0.00  0.00    +0.000 A 
ATOM     19  C   UNL     1       2.448  15.152  19.402  0.00  0.00    +0.000 A 
ATOM     20  C   UNL     1       3.297  15.671  20.348  0.00  0.00    +0.000 A 
ATOM     21  C   UNL     1       2.875  15.723  21.697  0.00  0.00    +0.000 A 
ATOM     22  C   UNL     1       1.741  14.940  22.137  0.00  0.00    +0.000 A 
ATOM     23  C   UNL     1       1.002  14.226  21.192  0.00  0.00    +0.000 A 
ATOM     24  H   UNL     1      -1.436  15.132  18.215  0.00  0.00    +0.000 HD
ATOM     25  H   UNL     1      -0.289  16.234  18.607  0.00  0.00    +0.000 HD
ENDROOT
BRANCH  21  26
ATOM     26  C   UNL     1       3.574  16.779  22.546  0.00  0.00    +0.000 C 
ATOM     27  F   UNL     1       2.708  17.496  23.328  0.00  0.00    +0.000 F 
ATOM     28  F   UNL     1       4.451  16.218  23.428  0.00  0.00    +0.000 F 
ATOM     29  F   UNL     1       4.277  17.699  21.840  0.00  0.00    +0.000 F 
ENDBRANCH  21  26
BRANCH   1  31
ATOM     30  C   UNL     1      -5.753  14.970  20.423  0.00  0.00    +0.000 C 
ATOM     31  O   UNL     1      -4.531  15.041  21.149  0.00  0.00    +0.000 OA
ENDBRANCH   1  31
BRANCH  11  32
ATOM     32  C   UNL     1       1.487   8.630  19.510  0.00  0.00    +0.000 C 
ATOM     33  C   UNL     1       2.136   7.879  18.838  0.00  0.00    +0.000 C 
BRANCH  33  34
ATOM     34  C   UNL     1       3.045   7.012  18.120  0.00  0.00    +0.000 C 
ATOM     35  C   UNL     1       3.791   5.932  18.833  0.00  0.00    +0.000 C 
ATOM     36  C   UNL     1       2.683   5.592  17.886  0.00  0.00    +0.000 C 
ENDBRANCH  33  34
ENDBRANCH  11  32
TORSDOF 4
ENDMDL
MODEL 9
REMARK VINA RESULT:      -6.5      2.855      3.365
REMARK  Name = 
REMARK  5 active torsions:
REMARK  status: ('A' for Active; 'I' for Inactive)
REMARK    1  A    between atoms: C_1  and  O_2
REMARK    2  A    between atoms: O_2  and  C_3
REMARK    3  A    between atoms: C_13  and  C_14
REMARK    4  A    between atoms: C_15  and  C_16
REMARK    5  A    between atoms: C_28  and  C_29
REMARK                            x       y       z     vdW  Elec       q    Type
REMARK                         _______ _______ _______ _____ _____    ______ ____
ROOT
ATOM      1  C   UNL     1      -5.241  14.506  23.668  0.00  0.00    +0.000 C 
ATOM      2  C   UNL     1      -3.980  15.304  23.986  0.00  0.00    +0.000 C 
ATOM      3  C   UNL     1      -2.750  14.546  23.506  0.00  0.00    +0.000 C 
ATOM      4  C   UNL     1      -2.732  14.190  21.950  0.00  0.00    +0.000 C 
ATOM      5  C   UNL     1      -4.067  13.508  21.604  0.00  0.00    +0.000 C 
ATOM      6  C   UNL     1      -5.301  14.256  22.152  0.00  0.00    +0.000 C 
ATOM      7  C   UNL     1      -2.512  15.508  21.160  0.00  0.00    +0.000 C 
ATOM      8  C   UNL     1      -1.033  15.684  21.320  0.00  0.00    +0.000 A 
ATOM      9  C   UNL     1      -0.356  16.889  21.473  0.00  0.00    +0.000 A 
ATOM     10  C   UNL     1       1.004  16.847  21.801  0.00  0.00    +0.000 A 
ATOM     11  C   UNL     1       1.685  15.625  21.942  0.00  0.00    +0.000 A 
ATOM     12  C   UNL     1       0.990  14.413  21.780  0.00  0.00    +0.000 A 
ATOM     13  C   UNL     1      -0.385  14.449  21.494  0.00  0.00    +0.000 A 
ATOM     14  C   UNL     1      -1.419  13.314  21.609  0.00  0.00    +0.000 C 
ATOM     15  N   UNL     1      -1.185  12.554  22.894  0.00  0.00    +0.000 NA
ATOM     16  C   UNL     1      -0.967  11.339  22.539  0.00  0.00    +0.000 C 
ATOM     17  N   UNL     1      -1.322  10.303  23.345  0.00  0.00    +0.000 N 
ATOM     18  C   UNL     1      -0.631  11.185  21.149  0.00  0.00    +0.000 A 
ATOM     19  C   UNL     1       0.007  10.117  20.560  0.00  0.00    +0.000 A 
ATOM     20  C   UNL     1      -0.234   9.936  19.221  0.00  0.00    +0.000 A 
ATOM     21  C   UNL     1      -1.225  10.721  18.587  0.00  0.00    +0.000 A 
ATOM     22  C   UNL     1      -1.724  11.919  19.226  0.00  0.00    +0.000 A 
ATOM     23  C   UNL     1      -1.301  12.224  20.521  0.00  0.00    +0.000 A 
ATOM     24  H   UNL     1      -1.851  10.696  24.125  0.00  0.00    +0.000 HD
ATOM     25  H   UNL     1      -1.954   9.671  22.852  0.00  0.00    +0.000 HD
ENDROOT
BRANCH  21  26
ATOM     26  C   UNL     1      -1.820  10.105  17.326  0.00  0.00    +0.000 C 
ATOM     27  F   UNL     1      -3.000   9.448  17.558  0.00  0.00    +0.000 F 
ATOM     28  F   UNL     1      -2.133  11.056  16.399  0.00  0.00    +0.000 F 
ATOM     29  F   UNL     1      -1.018   9.208  16.700  0.00  0.00    +0.000 F 
ENDBRANCH  21  26
BRANCH   1  31
ATOM     30  C   UNL     1      -6.521  12.546  24.212  0.00  0.00    +0.000 C 
ATOM     31  O   UNL     1      -5.277  13.229  24.322  0.00  0.00    +0.000 OA
ENDBRANCH   1  31
BRANCH  11  32
ATOM     32  C   UNL     1       3.086  15.678  22.310  0.00  0.00    +0.000 C 
ATOM     33  C   UNL     1       4.221  15.561  22.678  0.00  0.00    +0.000 C 
BRANCH  33  34
ATOM     34  C   UNL     1       5.541  15.288  23.204  0.00  0.00    +0.000 C 
ATOM     35  C   UNL     1       5.876  15.603  24.625  0.00  0.00    +0.000 C 
ATOM     36  C   UNL     1       5.736  14.183  24.174  0.00  0.00    +0.000 C 
ENDBRANCH  33  34
ENDBRANCH  11  32
TORSDOF 4
ENDMDL
