MODEL 1
REMARK VINA RESULT:      -6.7      0.000      0.000
REMARK  Name = 
REMARK  7 active torsions:
REMARK  status: ('A' for Active; 'I' for Inactive)
REMARK    1  A    between atoms: C_1  and  O_2
REMARK    2  A    between atoms: O_2  and  C_3
REMARK    3  A    between atoms: C_8  and  N_9
REMARK    4  A    between atoms: C_10  and  S_11
REMARK    5  A    between atoms: N_12  and  C_13
REMARK    6  A    between atoms: C_13  and  C_14
REMARK    7  A    between atoms: C_14  and  C_15
REMARK                            x       y       z     vdW  Elec       q    Type
REMARK                         _______ _______ _______ _____ _____    ______ ____
ROOT
ATOM      1  N   UNL     1       4.055   5.615  18.779  0.00  0.00    +0.000 NA
ATOM      2  C   UNL     1       3.174   6.563  18.898  0.00  0.00    +0.000 C 
ATOM      3  N   UNL     1       2.336   6.670  19.974  0.00  0.00    +0.000 N 
ATOM      4  H   UNL     1       1.517   7.242  19.804  0.00  0.00    +0.000 HD
ENDROOT
BRANCH   1  10
ATOM      5  C   UNL     1       6.281   5.749  17.734  0.00  0.00    +0.000 A 
ATOM      6  C   UNL     1       7.107   5.545  16.615  0.00  0.00    +0.000 A 
ATOM      7  C   UNL     1       6.609   4.941  15.461  0.00  0.00    +0.000 A 
ATOM      8  C   UNL     1       5.293   4.505  15.432  0.00  0.00    +0.000 A 
ATOM      9  C   UNL     1       4.468   4.705  16.539  0.00  0.00    +0.000 A 
ATOM     10  C   UNL     1       4.910   5.399  17.677  0.00  0.00    +0.000 A 
BRANCH   5  12
ATOM     11  C   UNL     1       7.967   5.684  19.403  0.00  0.00    +0.000 C 
ATOM     12  O   UNL     1       6.766   6.280  18.912  0.00  0.00    +0.000 OA
ENDBRANCH   5  12
ENDBRANCH   1  10
BRANCH   2  13
ATOM     13  S   UNL     1       2.833   7.869  17.772  0.00  0.00    +0.000 S 
ATOM     14  H   UNL     1       2.745   7.120  16.669  0.00  0.00    +0.000 HD
ENDBRANCH   2  13
BRANCH   3  15
ATOM     15  C   UNL     1       2.184   5.631  20.966  0.00  0.00    +0.000 C 
BRANCH  15  16
ATOM     16  C   UNL     1       1.189   4.566  20.500  0.00  0.00    +0.000 C 
BRANCH  16  17
ATOM     17  C   UNL     1       1.923   3.467  19.775  0.00  0.00    +0.000 A 
ATOM     18  C   UNL     1       3.061   2.890  20.354  0.00  0.00    +0.000 A 
ATOM     19  C   UNL     1       3.810   1.954  19.646  0.00  0.00    +0.000 A 
ATOM     20  C   UNL     1       3.415   1.594  18.361  0.00  0.00    +0.000 A 
ATOM     21  F   UNL     1       4.153   0.714  17.670  0.00  0.00    +0.000 F 
ATOM     22  C   UNL     1       2.282   2.144  17.781  0.00  0.00    +0.000 A 
ATOM     23  C   UNL     1       1.527   3.082  18.485  0.00  0.00    +0.000 A 
ENDBRANCH  16  17
ENDBRANCH  15  16
ENDBRANCH   3  15
TORSDOF 6
ENDMDL
MODEL 2
REMARK VINA RESULT:      -6.5      0.452      1.149
REMARK  Name = 
REMARK  7 active torsions:
REMARK  status: ('A' for Active; 'I' for Inactive)
REMARK    1  A    between atoms: C_1  and  O_2
REMARK    2  A    between atoms: O_2  and  C_3
REMARK    3  A    between atoms: C_8  and  N_9
REMARK    4  A    between atoms: C_10  and  S_11
REMARK    5  A    between atoms: N_12  and  C_13
REMARK    6  A    between atoms: C_13  and  C_14
REMARK    7  A    between atoms: C_14  and  C_15
REMARK                            x       y       z     vdW  Elec       q    Type
REMARK                         _______ _______ _______ _____ _____    ______ ____
ROOT
ATOM      1  N   UNL     1       4.019   5.621  19.052  0.00  0.00    +0.000 NA
ATOM      2  C   UNL     1       3.116   6.555  19.059  0.00  0.00    +0.000 C 
ATOM      3  N   UNL     1       2.175   6.674  20.046  0.00  0.00    +0.000 N 
ATOM      4  H   UNL     1       1.367   7.226  19.780  0.00  0.00    +0.000 HD
ENDROOT
BRANCH   1  10
ATOM      5  C   UNL     1       6.360   5.304  18.356  0.00  0.00    +0.000 A 
ATOM      6  C   UNL     1       7.301   5.099  17.331  0.00  0.00    +0.000 A 
ATOM      7  C   UNL     1       6.890   4.917  16.011  0.00  0.00    +0.000 A 
ATOM      8  C   UNL     1       5.535   4.902  15.713  0.00  0.00    +0.000 A 
ATOM      9  C   UNL     1       4.597   5.106  16.725  0.00  0.00    +0.000 A 
ATOM     10  C   UNL     1       4.981   5.392  18.046  0.00  0.00    +0.000 A 
BRANCH   5  12
ATOM     11  C   UNL     1       8.133   5.601  19.905  0.00  0.00    +0.000 C 
ATOM     12  O   UNL     1       6.734   5.418  19.679  0.00  0.00    +0.000 OA
ENDBRANCH   5  12
ENDBRANCH   1  10
BRANCH   2  13
ATOM     13  S   UNL     1       2.864   7.824  17.869  0.00  0.00    +0.000 S 
ATOM     14  H   UNL     1       2.614   7.028  16.826  0.00  0.00    +0.000 HD
ENDBRANCH   2  13
BRANCH   3  15
ATOM     15  C   UNL     1       1.943   5.659  21.047  0.00  0.00    +0.000 C 
BRANCH  15  16
ATOM     16  C   UNL     1       1.087   4.520  20.489  0.00  0.00    +0.000 C 
BRANCH  16  17
ATOM     17  C   UNL     1       1.956   3.560  19.718  0.00  0.00    +0.000 A 
ATOM     18  C   UNL     1       1.610   3.206  18.408  0.00  0.00    +0.000 A 
ATOM     19  C   UNL     1       2.341   2.237  17.725  0.00  0.00    +0.000 A 
ATOM     20  C   UNL     1       3.420   1.626  18.357  0.00  0.00    +0.000 A 
ATOM     21  F   UNL     1       4.106   0.673  17.710  0.00  0.00    +0.000 F 
ATOM     22  C   UNL     1       3.785   1.977  19.648  0.00  0.00    +0.000 A 
ATOM     23  C   UNL     1       3.058   2.948  20.336  0.00  0.00    +0.000 A 
ENDBRANCH  16  17
ENDBRANCH  15  16
ENDBRANCH   3  15
TORSDOF 6
ENDMDL
MODEL 3
REMARK VINA RESULT:      -6.4      4.931      7.985
REMARK  Name = 
REMARK  7 active torsions:
REMARK  status: ('A' for Active; 'I' for Inactive)
REMARK    1  A    between atoms: C_1  and  O_2
REMARK    2  A    between atoms: O_2  and  C_3
REMARK    3  A    between atoms: C_8  and  N_9
REMARK    4  A    between atoms: C_10  and  S_11
REMARK    5  A    between atoms: N_12  and  C_13
REMARK    6  A    between atoms: C_13  and  C_14
REMARK    7  A    between atoms: C_14  and  C_15
REMARK                            x       y       z     vdW  Elec       q    Type
REMARK                         _______ _______ _______ _____ _____    ______ ____
ROOT
ATOM      1  N   UNL     1       5.854   6.194  18.214  0.00  0.00    +0.000 NA
ATOM      2  C   UNL     1       6.605   6.287  17.158  0.00  0.00    +0.000 C 
ATOM      3  N   UNL     1       7.740   7.051  17.116  0.00  0.00    +0.000 N 
ATOM      4  H   UNL     1       8.048   7.279  16.178  0.00  0.00    +0.000 HD
ENDROOT
BRANCH   1  10
ATOM      5  C   UNL     1       3.394   6.119  18.104  0.00  0.00    +0.000 A 
ATOM      6  C   UNL     1       2.199   5.391  18.237  0.00  0.00    +0.000 A 
ATOM      7  C   UNL     1       2.222   4.026  18.519  0.00  0.00    +0.000 A 
ATOM      8  C   UNL     1       3.440   3.372  18.632  0.00  0.00    +0.000 A 
ATOM      9  C   UNL     1       4.630   4.088  18.502  0.00  0.00    +0.000 A 
ATOM     10  C   UNL     1       4.641   5.481  18.319  0.00  0.00    +0.000 A 
BRANCH   5  12
ATOM     11  C   UNL     1       2.141   8.120  17.862  0.00  0.00    +0.000 C 
ATOM     12  O   UNL     1       3.402   7.455  17.758  0.00  0.00    +0.000 OA
ENDBRANCH   5  12
ENDBRANCH   1  10
BRANCH   2  13
ATOM     13  S   UNL     1       6.373   5.518  15.594  0.00  0.00    +0.000 S 
ATOM     14  H   UNL     1       5.184   4.967  15.854  0.00  0.00    +0.000 HD
ENDBRANCH   2  13
BRANCH   3  15
ATOM     15  C   UNL     1       8.094   8.001  18.145  0.00  0.00    +0.000 C 
BRANCH  15  16
ATOM     16  C   UNL     1       8.060   9.433  17.609  0.00  0.00    +0.000 C 
BRANCH  16  17
ATOM     17  C   UNL     1       9.050  10.283  18.363  0.00  0.00    +0.000 A 
ATOM     18  C   UNL     1       9.990  11.046  17.658  0.00  0.00    +0.000 A 
ATOM     19  C   UNL     1      10.979  11.748  18.343  0.00  0.00    +0.000 A 
ATOM     20  C   UNL     1      11.022  11.687  19.733  0.00  0.00    +0.000 A 
ATOM     21  F   UNL     1      11.991  12.339  20.389  0.00  0.00    +0.000 F 
ATOM     22  C   UNL     1      10.087  10.950  20.445  0.00  0.00    +0.000 A 
ATOM     23  C   UNL     1       9.094  10.245  19.765  0.00  0.00    +0.000 A 
ENDBRANCH  16  17
ENDBRANCH  15  16
ENDBRANCH   3  15
TORSDOF 6
ENDMDL
MODEL 4
REMARK VINA RESULT:      -6.4      4.948      7.858
REMARK  Name = 
REMARK  7 active torsions:
REMARK  status: ('A' for Active; 'I' for Inactive)
REMARK    1  A    between atoms: C_1  and  O_2
REMARK    2  A    between atoms: O_2  and  C_3
REMARK    3  A    between atoms: C_8  and  N_9
REMARK    4  A    between atoms: C_10  and  S_11
REMARK    5  A    between atoms: N_12  and  C_13
REMARK    6  A    between atoms: C_13  and  C_14
REMARK    7  A    between atoms: C_14  and  C_15
REMARK                            x       y       z     vdW  Elec       q    Type
REMARK                         _______ _______ _______ _____ _____    ______ ____
ROOT
ATOM      1  N   UNL     1       5.853   6.105  18.086  0.00  0.00    +0.000 NA
ATOM      2  C   UNL     1       6.630   6.180  17.047  0.00  0.00    +0.000 C 
ATOM      3  N   UNL     1       7.764   6.945  17.020  0.00  0.00    +0.000 N 
ATOM      4  H   UNL     1       8.095   7.158  16.086  0.00  0.00    +0.000 HD
ENDROOT
BRANCH   1  10
ATOM      5  C   UNL     1       3.397   6.024  17.925  0.00  0.00    +0.000 A 
ATOM      6  C   UNL     1       2.199   5.296  18.042  0.00  0.00    +0.000 A 
ATOM      7  C   UNL     1       2.218   3.935  18.340  0.00  0.00    +0.000 A 
ATOM      8  C   UNL     1       3.434   3.284  18.488  0.00  0.00    +0.000 A 
ATOM      9  C   UNL     1       4.626   4.000  18.374  0.00  0.00    +0.000 A 
ATOM     10  C   UNL     1       4.639   5.391  18.174  0.00  0.00    +0.000 A 
BRANCH   5  12
ATOM     11  C   UNL     1       2.309   8.130  18.042  0.00  0.00    +0.000 C 
ATOM     12  O   UNL     1       3.410   7.356  17.562  0.00  0.00    +0.000 OA
ENDBRANCH   5  12
ENDBRANCH   1  10
BRANCH   2  13
ATOM     13  S   UNL     1       6.436   5.384  15.492  0.00  0.00    +0.000 S 
ATOM     14  H   UNL     1       7.404   4.477  15.647  0.00  0.00    +0.000 HD
ENDBRANCH   2  13
BRANCH   3  15
ATOM     15  C   UNL     1       8.092   7.914  18.041  0.00  0.00    +0.000 C 
BRANCH  15  16
ATOM     16  C   UNL     1       7.831   9.340  17.552  0.00  0.00    +0.000 C 
BRANCH  16  17
ATOM     17  C   UNL     1       8.703  10.306  18.312  0.00  0.00    +0.000 A 
ATOM     18  C   UNL     1       9.197   9.953  19.574  0.00  0.00    +0.000 A 
ATOM     19  C   UNL     1       9.910  10.878  20.332  0.00  0.00    +0.000 A 
ATOM     20  C   UNL     1      10.131  12.154  19.823  0.00  0.00    +0.000 A 
ATOM     21  F   UNL     1      10.792  13.053  20.565  0.00  0.00    +0.000 F 
ATOM     22  C   UNL     1       9.662  12.513  18.568  0.00  0.00    +0.000 A 
ATOM     23  C   UNL     1       8.948  11.592  17.803  0.00  0.00    +0.000 A 
ENDBRANCH  16  17
ENDBRANCH  15  16
ENDBRANCH   3  15
TORSDOF 6
ENDMDL
MODEL 5
REMARK VINA RESULT:      -6.4      5.011      7.933
REMARK  Name = 
REMARK  7 active torsions:
REMARK  status: ('A' for Active; 'I' for Inactive)
REMARK    1  A    between atoms: C_1  and  O_2
REMARK    2  A    between atoms: O_2  and  C_3
REMARK    3  A    between atoms: C_8  and  N_9
REMARK    4  A    between atoms: C_10  and  S_11
REMARK    5  A    between atoms: N_12  and  C_13
REMARK    6  A    between atoms: C_13  and  C_14
REMARK    7  A    between atoms: C_14  and  C_15
REMARK                            x       y       z     vdW  Elec       q    Type
REMARK                         _______ _______ _______ _____ _____    ______ ____
ROOT
ATOM      1  N   UNL     1       5.598   6.229  17.716  0.00  0.00    +0.000 NA
ATOM      2  C   UNL     1       6.606   6.161  16.899  0.00  0.00    +0.000 C 
ATOM      3  N   UNL     1       7.596   7.105  16.858  0.00  0.00    +0.000 N 
ATOM      4  H   UNL     1       8.132   7.103  15.998  0.00  0.00    +0.000 HD
ENDROOT
BRANCH   1  10
ATOM      5  C   UNL     1       3.173   5.805  17.803  0.00  0.00    +0.000 A 
ATOM      6  C   UNL     1       2.106   4.893  17.889  0.00  0.00    +0.000 A 
ATOM      7  C   UNL     1       2.340   3.519  17.888  0.00  0.00    +0.000 A 
ATOM      8  C   UNL     1       3.639   3.047  17.763  0.00  0.00    +0.000 A 
ATOM      9  C   UNL     1       4.702   3.946  17.679  0.00  0.00    +0.000 A 
ATOM     10  C   UNL     1       4.509   5.334  17.779  0.00  0.00    +0.000 A 
BRANCH   5  12
ATOM     11  C   UNL     1       2.318   7.746  18.868  0.00  0.00    +0.000 C 
ATOM     12  O   UNL     1       2.966   7.168  17.733  0.00  0.00    +0.000 OA
ENDBRANCH   5  12
ENDBRANCH   1  10
BRANCH   2  13
ATOM     13  S   UNL     1       6.939   4.927  15.692  0.00  0.00    +0.000 S 
ATOM     14  H   UNL     1       5.942   5.235  14.859  0.00  0.00    +0.000 HD
ENDBRANCH   2  13
BRANCH   3  15
ATOM     15  C   UNL     1       7.510   8.374  17.545  0.00  0.00    +0.000 C 
BRANCH  15  16
ATOM     16  C   UNL     1       8.628   8.517  18.579  0.00  0.00    +0.000 C 
BRANCH  16  17
ATOM     17  C   UNL     1       8.952   9.976  18.779  0.00  0.00    +0.000 A 
ATOM     18  C   UNL     1       8.645  10.901  17.773  0.00  0.00    +0.000 A 
ATOM     19  C   UNL     1       9.039  12.231  17.898  0.00  0.00    +0.000 A 
ATOM     20  C   UNL     1       9.738  12.632  19.033  0.00  0.00    +0.000 A 
ATOM     21  F   UNL     1      10.142  13.905  19.140  0.00  0.00    +0.000 F 
ATOM     22  C   UNL     1      10.035  11.731  20.045  0.00  0.00    +0.000 A 
ATOM     23  C   UNL     1       9.643  10.398  19.926  0.00  0.00    +0.000 A 
ENDBRANCH  16  17
ENDBRANCH  15  16
ENDBRANCH   3  15
TORSDOF 6
ENDMDL
MODEL 6
REMARK VINA RESULT:      -6.3      2.655      5.970
REMARK  Name = 
REMARK  7 active torsions:
REMARK  status: ('A' for Active; 'I' for Inactive)
REMARK    1  A    between atoms: C_1  and  O_2
REMARK    2  A    between atoms: O_2  and  C_3
REMARK    3  A    between atoms: C_8  and  N_9
REMARK    4  A    between atoms: C_10  and  S_11
REMARK    5  A    between atoms: N_12  and  C_13
REMARK    6  A    between atoms: C_13  and  C_14
REMARK    7  A    between atoms: C_14  and  C_15
REMARK                            x       y       z     vdW  Elec       q    Type
REMARK                         _______ _______ _______ _____ _____    ______ ____
ROOT
ATOM      1  N   UNL     1       3.492   3.553  17.981  0.00  0.00    +0.000 NA
ATOM      2  C   UNL     1       3.764   4.724  17.488  0.00  0.00    +0.000 C 
ATOM      3  N   UNL     1       4.499   4.899  16.347  0.00  0.00    +0.000 N 
ATOM      4  H   UNL     1       4.893   5.828  16.249  0.00  0.00    +0.000 HD
ENDROOT
BRANCH   1  10
ATOM      5  C   UNL     1       3.449   2.704  20.292  0.00  0.00    +0.000 A 
ATOM      6  C   UNL     1       2.728   2.431  21.468  0.00  0.00    +0.000 A 
ATOM      7  C   UNL     1       1.385   2.787  21.581  0.00  0.00    +0.000 A 
ATOM      8  C   UNL     1       0.764   3.452  20.533  0.00  0.00    +0.000 A 
ATOM      9  C   UNL     1       1.473   3.725  19.364  0.00  0.00    +0.000 A 
ATOM     10  C   UNL     1       2.796   3.290  19.180  0.00  0.00    +0.000 A 
BRANCH   5  12
ATOM     11  C   UNL     1       5.243   1.276  20.901  0.00  0.00    +0.000 C 
ATOM     12  O   UNL     1       4.796   2.424  20.179  0.00  0.00    +0.000 OA
ENDBRANCH   5  12
ENDBRANCH   1  10
BRANCH   2  13
ATOM     13  S   UNL     1       3.307   6.298  18.124  0.00  0.00    +0.000 S 
ATOM     14  H   UNL     1       2.824   5.872  19.293  0.00  0.00    +0.000 HD
ENDBRANCH   2  13
BRANCH   3  15
ATOM     15  C   UNL     1       5.233   3.833  15.705  0.00  0.00    +0.000 C 
BRANCH  15  16
ATOM     16  C   UNL     1       6.707   4.203  15.533  0.00  0.00    +0.000 C 
BRANCH  16  17
ATOM     17  C   UNL     1       7.116   5.179  16.607  0.00  0.00    +0.000 A 
ATOM     18  C   UNL     1       7.114   6.553  16.336  0.00  0.00    +0.000 A 
ATOM     19  C   UNL     1       7.594   7.456  17.282  0.00  0.00    +0.000 A 
ATOM     20  C   UNL     1       8.072   6.980  18.499  0.00  0.00    +0.000 A 
ATOM     21  F   UNL     1       8.561   7.846  19.397  0.00  0.00    +0.000 F 
ATOM     22  C   UNL     1       8.065   5.623  18.788  0.00  0.00    +0.000 A 
ATOM     23  C   UNL     1       7.585   4.714  17.846  0.00  0.00    +0.000 A 
ENDBRANCH  16  17
ENDBRANCH  15  16
ENDBRANCH   3  15
TORSDOF 6
ENDMDL
MODEL 7
REMARK VINA RESULT:      -6.3      2.840      4.157
REMARK  Name = 
REMARK  7 active torsions:
REMARK  status: ('A' for Active; 'I' for Inactive)
REMARK    1  A    between atoms: C_1  and  O_2
REMARK    2  A    between atoms: O_2  and  C_3
REMARK    3  A    between atoms: C_8  and  N_9
REMARK    4  A    between atoms: C_10  and  S_11
REMARK    5  A    between atoms: N_12  and  C_13
REMARK    6  A    between atoms: C_13  and  C_14
REMARK    7  A    between atoms: C_14  and  C_15
REMARK                            x       y       z     vdW  Elec       q    Type
REMARK                         _______ _______ _______ _____ _____    ______ ____
ROOT
ATOM      1  N   UNL     1       4.291   3.184  18.111  0.00  0.00    +0.000 NA
ATOM      2  C   UNL     1       4.020   2.253  18.976  0.00  0.00    +0.000 C 
ATOM      3  N   UNL     1       2.889   1.485  18.913  0.00  0.00    +0.000 N 
ATOM      4  H   UNL     1       2.650   1.031  19.787  0.00  0.00    +0.000 HD
ENDROOT
BRANCH   1  10
ATOM      5  C   UNL     1       6.208   4.254  16.994  0.00  0.00    +0.000 A 
ATOM      6  C   UNL     1       7.321   5.111  17.055  0.00  0.00    +0.000 A 
ATOM      7  C   UNL     1       7.608   5.825  18.218  0.00  0.00    +0.000 A 
ATOM      8  C   UNL     1       6.765   5.714  19.314  0.00  0.00    +0.000 A 
ATOM      9  C   UNL     1       5.660   4.865  19.260  0.00  0.00    +0.000 A 
ATOM     10  C   UNL     1       5.400   4.057  18.140  0.00  0.00    +0.000 A 
BRANCH   5  12
ATOM     11  C   UNL     1       6.420   4.124  14.634  0.00  0.00    +0.000 C 
ATOM     12  O   UNL     1       5.861   3.589  15.835  0.00  0.00    +0.000 OA
ENDBRANCH   5  12
ENDBRANCH   1  10
BRANCH   2  13
ATOM     13  S   UNL     1       4.964   1.771  20.379  0.00  0.00    +0.000 S 
ATOM     14  H   UNL     1       5.177   2.996  20.865  0.00  0.00    +0.000 HD
ENDBRANCH   2  13
BRANCH   3  15
ATOM     15  C   UNL     1       1.783   1.775  18.030  0.00  0.00    +0.000 C 
BRANCH  15  16
ATOM     16  C   UNL     1       0.681   2.543  18.761  0.00  0.00    +0.000 C 
BRANCH  16  17
ATOM     17  C   UNL     1       1.148   3.945  19.059  0.00  0.00    +0.000 A 
ATOM     18  C   UNL     1       1.553   4.780  18.010  0.00  0.00    +0.000 A 
ATOM     19  C   UNL     1       2.091   6.036  18.281  0.00  0.00    +0.000 A 
ATOM     20  C   UNL     1       2.218   6.454  19.602  0.00  0.00    +0.000 A 
ATOM     21  F   UNL     1       2.762   7.651  19.863  0.00  0.00    +0.000 F 
ATOM     22  C   UNL     1       1.806   5.645  20.650  0.00  0.00    +0.000 A 
ATOM     23  C   UNL     1       1.266   4.386  20.386  0.00  0.00    +0.000 A 
ENDBRANCH  16  17
ENDBRANCH  15  16
ENDBRANCH   3  15
TORSDOF 6
ENDMDL
MODEL 8
REMARK VINA RESULT:      -6.3      3.372      6.273
REMARK  Name = 
REMARK  7 active torsions:
REMARK  status: ('A' for Active; 'I' for Inactive)
REMARK    1  A    between atoms: C_1  and  O_2
REMARK    2  A    between atoms: O_2  and  C_3
REMARK    3  A    between atoms: C_8  and  N_9
REMARK    4  A    between atoms: C_10  and  S_11
REMARK    5  A    between atoms: N_12  and  C_13
REMARK    6  A    between atoms: C_13  and  C_14
REMARK    7  A    between atoms: C_14  and  C_15
REMARK                            x       y       z     vdW  Elec       q    Type
REMARK                         _______ _______ _______ _____ _____    ______ ____
ROOT
ATOM      1  N   UNL     1       5.014   4.207  16.368  0.00  0.00    +0.000 NA
ATOM      2  C   UNL     1       5.254   5.433  16.011  0.00  0.00    +0.000 C 
ATOM      3  N   UNL     1       6.136   5.760  15.017  0.00  0.00    +0.000 N 
ATOM      4  H   UNL     1       6.457   6.721  15.050  0.00  0.00    +0.000 HD
ENDROOT
BRANCH   1  10
ATOM      5  C   UNL     1       4.660   3.652  18.741  0.00  0.00    +0.000 A 
ATOM      6  C   UNL     1       3.804   3.213  19.767  0.00  0.00    +0.000 A 
ATOM      7  C   UNL     1       2.454   2.970  19.515  0.00  0.00    +0.000 A 
ATOM      8  C   UNL     1       1.944   3.200  18.246  0.00  0.00    +0.000 A 
ATOM      9  C   UNL     1       2.788   3.634  17.224  0.00  0.00    +0.000 A 
ATOM     10  C   UNL     1       4.170   3.791  17.419  0.00  0.00    +0.000 A 
BRANCH   5  12
ATOM     11  C   UNL     1       6.218   5.278  19.490  0.00  0.00    +0.000 C 
ATOM     12  O   UNL     1       5.983   3.965  18.978  0.00  0.00    +0.000 OA
ENDBRANCH   5  12
ENDBRANCH   1  10
BRANCH   2  13
ATOM     13  S   UNL     1       4.569   6.908  16.679  0.00  0.00    +0.000 S 
ATOM     14  H   UNL     1       4.810   7.695  15.627  0.00  0.00    +0.000 HD
ENDBRANCH   2  13
BRANCH   3  15
ATOM     15  C   UNL     1       7.050   4.811  14.424  0.00  0.00    +0.000 C 
BRANCH  15  16
ATOM     16  C   UNL     1       7.146   5.009  12.911  0.00  0.00    +0.000 C 
BRANCH  16  17
ATOM     17  C   UNL     1       6.765   3.732  12.205  0.00  0.00    +0.000 A 
ATOM     18  C   UNL     1       5.423   3.333  12.166  0.00  0.00    +0.000 A 
ATOM     19  C   UNL     1       5.072   2.103  11.614  0.00  0.00    +0.000 A 
ATOM     20  C   UNL     1       6.067   1.277  11.100  0.00  0.00    +0.000 A 
ATOM     21  F   UNL     1       5.732   0.081  10.596  0.00  0.00    +0.000 F 
ATOM     22  C   UNL     1       7.398   1.666  11.117  0.00  0.00    +0.000 A 
ATOM     23  C   UNL     1       7.756   2.896  11.666  0.00  0.00    +0.000 A 
ENDBRANCH  16  17
ENDBRANCH  15  16
ENDBRANCH   3  15
TORSDOF 6
ENDMDL
MODEL 9
REMARK VINA RESULT:      -6.3      4.034      5.475
REMARK  Name = 
REMARK  7 active torsions:
REMARK  status: ('A' for Active; 'I' for Inactive)
REMARK    1  A    between atoms: C_1  and  O_2
REMARK    2  A    between atoms: O_2  and  C_3
REMARK    3  A    between atoms: C_8  and  N_9
REMARK    4  A    between atoms: C_10  and  S_11
REMARK    5  A    between atoms: N_12  and  C_13
REMARK    6  A    between atoms: C_13  and  C_14
REMARK    7  A    between atoms: C_14  and  C_15
REMARK                            x       y       z     vdW  Elec       q    Type
REMARK                         _______ _______ _______ _____ _____    ______ ____
ROOT
ATOM      1  N   UNL     1       4.133   6.123  17.898  0.00  0.00    +0.000 NA
ATOM      2  C   UNL     1       3.045   5.506  18.249  0.00  0.00    +0.000 C 
ATOM      3  N   UNL     1       2.126   6.047  19.107  0.00  0.00    +0.000 N 
ATOM      4  H   UNL     1       1.507   5.366  19.530  0.00  0.00    +0.000 HD
ENDROOT
BRANCH   1  10
ATOM      5  C   UNL     1       6.308   5.000  17.622  0.00  0.00    +0.000 A 
ATOM      6  C   UNL     1       7.324   4.520  16.777  0.00  0.00    +0.000 A 
ATOM      7  C   UNL     1       7.187   4.580  15.391  0.00  0.00    +0.000 A 
ATOM      8  C   UNL     1       6.018   5.086  14.842  0.00  0.00    +0.000 A 
ATOM      9  C   UNL     1       5.007   5.566  15.675  0.00  0.00    +0.000 A 
ATOM     10  C   UNL     1       5.156   5.612  17.071  0.00  0.00    +0.000 A 
BRANCH   5  12
ATOM     11  C   UNL     1       7.453   5.620  19.606  0.00  0.00    +0.000 C 
ATOM     12  O   UNL     1       6.388   4.890  18.996  0.00  0.00    +0.000 OA
ENDBRANCH   5  12
ENDBRANCH   1  10
BRANCH   2  13
ATOM     13  S   UNL     1       2.503   3.907  17.761  0.00  0.00    +0.000 S 
ATOM     14  H   UNL     1       1.194   4.116  17.928  0.00  0.00    +0.000 HD
ENDBRANCH   2  13
BRANCH   3  15
ATOM     15  C   UNL     1       2.373   7.242  19.882  0.00  0.00    +0.000 C 
BRANCH  15  16
ATOM     16  C   UNL     1       1.611   8.438  19.308  0.00  0.00    +0.000 C 
BRANCH  16  17
ATOM     17  C   UNL     1       0.919   9.183  20.421  0.00  0.00    +0.000 A 
ATOM     18  C   UNL     1       1.025   8.720  21.739  0.00  0.00    +0.000 A 
ATOM     19  C   UNL     1       0.302   9.333  22.758  0.00  0.00    +0.000 A 
ATOM     20  C   UNL     1      -0.525  10.412  22.456  0.00  0.00    +0.000 A 
ATOM     21  F   UNL     1      -1.243  10.983  23.432  0.00  0.00    +0.000 F 
ATOM     22  C   UNL     1      -0.628  10.891  21.158  0.00  0.00    +0.000 A 
ATOM     23  C   UNL     1       0.095  10.282  20.133  0.00  0.00    +0.000 A 
ENDBRANCH  16  17
ENDBRANCH  15  16
ENDBRANCH   3  15
TORSDOF 6
ENDMDL
