MODEL 1
REMARK VINA RESULT:      -8.8      0.000      0.000
REMARK  Name = 
REMARK  5 active torsions:
REMARK  status: ('A' for Active; 'I' for Inactive)
REMARK    1  A    between atoms: C_5  and  C_6
REMARK    2  A    between atoms: C_8  and  C_9
REMARK    3  A    between atoms: C_17  and  O_18
REMARK    4  A    between atoms: C_19  and  C_20
REMARK    5  A    between atoms: C_23  and  N_24
REMARK                            x       y       z     vdW  Elec       q    Type
REMARK                         _______ _______ _______ _____ _____    ______ ____
ROOT
ATOM      1  O   UNL     1       1.778   9.967  17.328  0.00  0.00    +0.000 OA
ATOM      2  C   UNL     1       1.871   9.172  18.249  0.00  0.00    +0.000 C 
ATOM      3  O   UNL     1       2.595   8.007  18.182  0.00  0.00    +0.000 OA
ATOM      4  C   UNL     1       2.368   7.365  19.392  0.00  0.00    +0.000 C 
ATOM      5  C   UNL     1       2.838   6.139  19.662  0.00  0.00    +0.000 C 
ATOM      6  C   UNL     1       1.564   8.202  20.216  0.00  0.00    +0.000 C 
ATOM      7  C   UNL     1       1.228   9.317  19.574  0.00  0.00    +0.000 C 
ENDROOT
BRANCH   5   8
ATOM      8  C   UNL     1       3.716   5.401  18.745  0.00  0.00    +0.000 A 
ATOM      9  C   UNL     1       5.102   5.616  18.813  0.00  0.00    +0.000 A 
ATOM     10  C   UNL     1       5.983   4.942  17.952  0.00  0.00    +0.000 A 
ATOM     11  C   UNL     1       5.460   4.028  17.022  0.00  0.00    +0.000 A 
ATOM     12  C   UNL     1       4.080   3.809  16.944  0.00  0.00    +0.000 A 
ATOM     13  C   UNL     1       3.213   4.495  17.798  0.00  0.00    +0.000 A 
ATOM     14 CL   UNL     1       1.515   4.213  17.626  0.00  0.00    +0.000 Cl
BRANCH  10  15
ATOM     15  C   UNL     1       7.472   5.195  18.005  0.00  0.00    +0.000 C 
ATOM     16  F   UNL     1       7.856   6.300  17.307  0.00  0.00    +0.000 F 
ATOM     17  F   UNL     1       7.928   5.374  19.274  0.00  0.00    +0.000 F 
ATOM     18  F   UNL     1       8.191   4.160  17.489  0.00  0.00    +0.000 F 
ENDBRANCH  10  15
ENDBRANCH   5   8
BRANCH   7  19
ATOM     19  C   UNL     1       0.416  10.443  20.037  0.00  0.00    +0.000 A 
ATOM     20  C   UNL     1       0.923  11.380  20.943  0.00  0.00    +0.000 A 
ATOM     21  C   UNL     1       0.167  12.495  21.331  0.00  0.00    +0.000 A 
ATOM     22  C   UNL     1      -1.117  12.721  20.823  0.00  0.00    +0.000 A 
ATOM     23  C   UNL     1      -1.621  11.750  19.940  0.00  0.00    +0.000 A 
ATOM     24  F   UNL     1      -2.874  11.856  19.463  0.00  0.00    +0.000 F 
ATOM     25  C   UNL     1      -0.880  10.637  19.552  0.00  0.00    +0.000 A 
BRANCH  22  26
ATOM     26  N   UNL     1      -1.880  13.812  21.200  0.00  0.00    +0.000 N 
ATOM     27  C   UNL     1      -2.832  13.746  22.314  0.00  0.00    +0.000 C 
ATOM     28  C   UNL     1      -3.967  14.745  22.033  0.00  0.00    +0.000 C 
ATOM     29  O   UNL     1      -3.466  16.080  21.837  0.00  0.00    +0.000 OA
ATOM     30  C   UNL     1      -2.542  16.112  20.731  0.00  0.00    +0.000 C 
ATOM     31  C   UNL     1      -1.353  15.169  20.967  0.00  0.00    +0.000 C 
ENDBRANCH  22  26
ENDBRANCH   7  19
BRANCH   6  32
ATOM     32  O   UNL     1       1.245   7.884  21.508  0.00  0.00    +0.000 OA
ATOM     33  H   UNL     1       0.668   7.104  21.521  0.00  0.00    +0.000 HD
ENDBRANCH   6  32
TORSDOF 5
ENDMDL
MODEL 2
REMARK VINA RESULT:      -8.7      0.903      1.638
REMARK  Name = 
REMARK  5 active torsions:
REMARK  status: ('A' for Active; 'I' for Inactive)
REMARK    1  A    between atoms: C_5  and  C_6
REMARK    2  A    between atoms: C_8  and  C_9
REMARK    3  A    between atoms: C_17  and  O_18
REMARK    4  A    between atoms: C_19  and  C_20
REMARK    5  A    between atoms: C_23  and  N_24
REMARK                            x       y       z     vdW  Elec       q    Type
REMARK                         _______ _______ _______ _____ _____    ______ ____
ROOT
ATOM      1  O   UNL     1       1.862  10.076  17.296  0.00  0.00    +0.000 OA
ATOM      2  C   UNL     1       1.891   9.277  18.218  0.00  0.00    +0.000 C 
ATOM      3  O   UNL     1       2.600   8.100  18.186  0.00  0.00    +0.000 OA
ATOM      4  C   UNL     1       2.297   7.457  19.379  0.00  0.00    +0.000 C 
ATOM      5  C   UNL     1       2.732   6.223  19.668  0.00  0.00    +0.000 C 
ATOM      6  C   UNL     1       1.461   8.304  20.161  0.00  0.00    +0.000 C 
ATOM      7  C   UNL     1       1.178   9.427  19.506  0.00  0.00    +0.000 C 
ENDROOT
BRANCH   5   8
ATOM      8  C   UNL     1       3.649   5.476  18.799  0.00  0.00    +0.000 A 
ATOM      9  C   UNL     1       5.030   5.686  18.929  0.00  0.00    +0.000 A 
ATOM     10  C   UNL     1       5.947   5.002  18.115  0.00  0.00    +0.000 A 
ATOM     11  C   UNL     1       5.464   4.083  17.168  0.00  0.00    +0.000 A 
ATOM     12  C   UNL     1       4.089   3.869  17.028  0.00  0.00    +0.000 A 
ATOM     13  C   UNL     1       3.186   4.565  17.836  0.00  0.00    +0.000 A 
ATOM     14 CL   UNL     1       1.496   4.287  17.588  0.00  0.00    +0.000 Cl
BRANCH  10  15
ATOM     15  C   UNL     1       7.433   5.250  18.235  0.00  0.00    +0.000 C 
ATOM     16  F   UNL     1       7.842   5.471  19.515  0.00  0.00    +0.000 F 
ATOM     17  F   UNL     1       8.178   4.207  17.777  0.00  0.00    +0.000 F 
ATOM     18  F   UNL     1       7.834   6.340  17.523  0.00  0.00    +0.000 F 
ENDBRANCH  10  15
ENDBRANCH   5   8
BRANCH   7  19
ATOM     19  C   UNL     1       0.358  10.563  19.927  0.00  0.00    +0.000 A 
ATOM     20  C   UNL     1      -0.973  10.689  19.516  0.00  0.00    +0.000 A 
ATOM     21  C   UNL     1      -1.776  11.742  19.977  0.00  0.00    +0.000 A 
ATOM     22  C   UNL     1      -1.285  12.700  20.871  0.00  0.00    +0.000 A 
ATOM     23  C   UNL     1       0.065  12.574  21.246  0.00  0.00    +0.000 A 
ATOM     24  F   UNL     1       0.633  13.494  22.044  0.00  0.00    +0.000 F 
ATOM     25  C   UNL     1       0.872  11.535  20.789  0.00  0.00    +0.000 A 
BRANCH  22  26
ATOM     26  N   UNL     1      -2.061  13.750  21.331  0.00  0.00    +0.000 N 
ATOM     27  C   UNL     1      -1.978  15.091  20.745  0.00  0.00    +0.000 C 
ATOM     28  C   UNL     1      -2.332  16.113  21.838  0.00  0.00    +0.000 C 
ATOM     29  O   UNL     1      -3.629  15.858  22.407  0.00  0.00    +0.000 OA
ATOM     30  C   UNL     1      -3.674  14.537  22.982  0.00  0.00    +0.000 C 
ATOM     31  C   UNL     1      -3.376  13.458  21.930  0.00  0.00    +0.000 C 
ENDBRANCH  22  26
ENDBRANCH   7  19
BRANCH   6  32
ATOM     32  O   UNL     1       1.066   7.986  21.431  0.00  0.00    +0.000 OA
ATOM     33  H   UNL     1       0.930   7.028  21.503  0.00  0.00    +0.000 HD
ENDBRANCH   6  32
TORSDOF 5
ENDMDL
MODEL 3
REMARK VINA RESULT:      -8.6      1.220      2.246
REMARK  Name = 
REMARK  5 active torsions:
REMARK  status: ('A' for Active; 'I' for Inactive)
REMARK    1  A    between atoms: C_5  and  C_6
REMARK    2  A    between atoms: C_8  and  C_9
REMARK    3  A    between atoms: C_17  and  O_18
REMARK    4  A    between atoms: C_19  and  C_20
REMARK    5  A    between atoms: C_23  and  N_24
REMARK                            x       y       z     vdW  Elec       q    Type
REMARK                         _______ _______ _______ _____ _____    ______ ____
ROOT
ATOM      1  O   UNL     1       1.199   8.323  21.810  0.00  0.00    +0.000 OA
ATOM      2  C   UNL     1       1.423   8.425  20.615  0.00  0.00    +0.000 C 
ATOM      3  O   UNL     1       2.223   7.557  19.912  0.00  0.00    +0.000 OA
ATOM      4  C   UNL     1       2.282   8.075  18.624  0.00  0.00    +0.000 C 
ATOM      5  C   UNL     1       3.055   7.547  17.665  0.00  0.00    +0.000 C 
ATOM      6  C   UNL     1       1.439   9.220  18.548  0.00  0.00    +0.000 C 
ATOM      7  C   UNL     1       0.890   9.484  19.730  0.00  0.00    +0.000 C 
ENDROOT
BRANCH   5   8
ATOM      8  C   UNL     1       3.834   6.317  17.854  0.00  0.00    +0.000 A 
ATOM      9  C   UNL     1       5.227   6.411  17.996  0.00  0.00    +0.000 A 
ATOM     10  C   UNL     1       6.017   5.263  18.170  0.00  0.00    +0.000 A 
ATOM     11  C   UNL     1       5.391   4.006  18.216  0.00  0.00    +0.000 A 
ATOM     12  C   UNL     1       4.004   3.901  18.073  0.00  0.00    +0.000 A 
ATOM     13  C   UNL     1       3.230   5.050  17.888  0.00  0.00    +0.000 A 
ATOM     14 CL   UNL     1       1.524   4.852  17.675  0.00  0.00    +0.000 Cl
BRANCH  10  15
ATOM     15  C   UNL     1       7.520   5.363  18.293  0.00  0.00    +0.000 C 
ATOM     16  F   UNL     1       8.176   4.287  17.774  0.00  0.00    +0.000 F 
ATOM     17  F   UNL     1       8.027   6.455  17.659  0.00  0.00    +0.000 F 
ATOM     18  F   UNL     1       7.928   5.457  19.589  0.00  0.00    +0.000 F 
ENDBRANCH  10  15
ENDBRANCH   5   8
BRANCH   7  19
ATOM     19  C   UNL     1      -0.029  10.559  20.104  0.00  0.00    +0.000 A 
ATOM     20  C   UNL     1      -1.153  10.856  19.325  0.00  0.00    +0.000 A 
ATOM     21  C   UNL     1      -2.069  11.840  19.723  0.00  0.00    +0.000 A 
ATOM     22  C   UNL     1      -1.904  12.556  20.914  0.00  0.00    +0.000 A 
ATOM     23  C   UNL     1      -0.751  12.266  21.664  0.00  0.00    +0.000 A 
ATOM     24  F   UNL     1      -0.481  12.960  22.783  0.00  0.00    +0.000 F 
ATOM     25  C   UNL     1       0.168  11.294  21.275  0.00  0.00    +0.000 A 
BRANCH  22  26
ATOM     26  N   UNL     1      -2.794  13.535  21.318  0.00  0.00    +0.000 N 
ATOM     27  C   UNL     1      -2.605  14.948  20.971  0.00  0.00    +0.000 C 
ATOM     28  C   UNL     1      -3.239  15.802  22.080  0.00  0.00    +0.000 C 
ATOM     29  O   UNL     1      -4.628  15.481  22.274  0.00  0.00    +0.000 OA
ATOM     30  C   UNL     1      -4.778  14.091  22.623  0.00  0.00    +0.000 C 
ATOM     31  C   UNL     1      -4.208  13.175  21.530  0.00  0.00    +0.000 C 
ENDBRANCH  22  26
ENDBRANCH   7  19
BRANCH   6  32
ATOM     32  O   UNL     1       1.216   9.898  17.381  0.00  0.00    +0.000 OA
ATOM     33  H   UNL     1       0.981   9.273  16.677  0.00  0.00    +0.000 HD
ENDBRANCH   6  32
TORSDOF 5
ENDMDL
MODEL 4
REMARK VINA RESULT:      -8.6      0.921      1.239
REMARK  Name = 
REMARK  5 active torsions:
REMARK  status: ('A' for Active; 'I' for Inactive)
REMARK    1  A    between atoms: C_5  and  C_6
REMARK    2  A    between atoms: C_8  and  C_9
REMARK    3  A    between atoms: C_17  and  O_18
REMARK    4  A    between atoms: C_19  and  C_20
REMARK    5  A    between atoms: C_23  and  N_24
REMARK                            x       y       z     vdW  Elec       q    Type
REMARK                         _______ _______ _______ _____ _____    ______ ____
ROOT
ATOM      1  O   UNL     1       1.850  10.070  17.267  0.00  0.00    +0.000 OA
ATOM      2  C   UNL     1       1.891   9.268  18.186  0.00  0.00    +0.000 C 
ATOM      3  O   UNL     1       2.581   8.081  18.132  0.00  0.00    +0.000 OA
ATOM      4  C   UNL     1       2.298   7.440  19.331  0.00  0.00    +0.000 C 
ATOM      5  C   UNL     1       2.722   6.198  19.607  0.00  0.00    +0.000 C 
ATOM      6  C   UNL     1       1.496   8.297  20.137  0.00  0.00    +0.000 C 
ATOM      7  C   UNL     1       1.213   9.426  19.492  0.00  0.00    +0.000 C 
ENDROOT
BRANCH   5   8
ATOM      8  C   UNL     1       3.603   5.439  18.712  0.00  0.00    +0.000 A 
ATOM      9  C   UNL     1       4.986   5.679  18.758  0.00  0.00    +0.000 A 
ATOM     10  C   UNL     1       5.870   4.985  17.916  0.00  0.00    +0.000 A 
ATOM     11  C   UNL     1       5.354   4.026  17.028  0.00  0.00    +0.000 A 
ATOM     12  C   UNL     1       3.978   3.783  16.972  0.00  0.00    +0.000 A 
ATOM     13  C   UNL     1       3.107   4.488  17.806  0.00  0.00    +0.000 A 
ATOM     14 CL   UNL     1       1.412   4.172  17.661  0.00  0.00    +0.000 Cl
BRANCH  10  15
ATOM     15  C   UNL     1       7.355   5.264  17.945  0.00  0.00    +0.000 C 
ATOM     16  F   UNL     1       7.708   6.378  17.246  0.00  0.00    +0.000 F 
ATOM     17  F   UNL     1       7.830   5.445  19.207  0.00  0.00    +0.000 F 
ATOM     18  F   UNL     1       8.083   4.244  17.412  0.00  0.00    +0.000 F 
ENDBRANCH  10  15
ENDBRANCH   5   8
BRANCH   7  19
ATOM     19  C   UNL     1       0.423  10.573  19.937  0.00  0.00    +0.000 A 
ATOM     20  C   UNL     1      -0.965  10.609  19.764  0.00  0.00    +0.000 A 
ATOM     21  C   UNL     1      -1.728  11.679  20.254  0.00  0.00    +0.000 A 
ATOM     22  C   UNL     1      -1.137  12.745  20.942  0.00  0.00    +0.000 A 
ATOM     23  C   UNL     1       0.262  12.706  21.075  0.00  0.00    +0.000 A 
ATOM     24  F   UNL     1       0.913  13.727  21.659  0.00  0.00    +0.000 F 
ATOM     25  C   UNL     1       1.029  11.651  20.588  0.00  0.00    +0.000 A 
BRANCH  22  26
ATOM     26  N   UNL     1      -1.874  13.812  21.425  0.00  0.00    +0.000 N 
ATOM     27  C   UNL     1      -2.094  14.016  22.861  0.00  0.00    +0.000 C 
ATOM     28  C   UNL     1      -3.438  14.741  23.040  0.00  0.00    +0.000 C 
ATOM     29  O   UNL     1      -3.476  15.982  22.312  0.00  0.00    +0.000 OA
ATOM     30  C   UNL     1      -3.266  15.745  20.906  0.00  0.00    +0.000 C 
ATOM     31  C   UNL     1      -1.914  15.065  20.649  0.00  0.00    +0.000 C 
ENDBRANCH  22  26
ENDBRANCH   7  19
BRANCH   6  32
ATOM     32  O   UNL     1       1.129   7.982  21.416  0.00  0.00    +0.000 OA
ATOM     33  H   UNL     1       1.918   7.783  21.945  0.00  0.00    +0.000 HD
ENDBRANCH   6  32
TORSDOF 5
ENDMDL
MODEL 5
REMARK VINA RESULT:      -8.5      0.874      1.718
REMARK  Name = 
REMARK  5 active torsions:
REMARK  status: ('A' for Active; 'I' for Inactive)
REMARK    1  A    between atoms: C_5  and  C_6
REMARK    2  A    between atoms: C_8  and  C_9
REMARK    3  A    between atoms: C_17  and  O_18
REMARK    4  A    between atoms: C_19  and  C_20
REMARK    5  A    between atoms: C_23  and  N_24
REMARK                            x       y       z     vdW  Elec       q    Type
REMARK                         _______ _______ _______ _____ _____    ______ ____
ROOT
ATOM      1  O   UNL     1       1.220   8.402  21.832  0.00  0.00    +0.000 OA
ATOM      2  C   UNL     1       1.433   8.479  20.633  0.00  0.00    +0.000 C 
ATOM      3  O   UNL     1       2.226   7.596  19.941  0.00  0.00    +0.000 OA
ATOM      4  C   UNL     1       2.274   8.087  18.643  0.00  0.00    +0.000 C 
ATOM      5  C   UNL     1       3.037   7.539  17.688  0.00  0.00    +0.000 C 
ATOM      6  C   UNL     1       1.431   9.231  18.550  0.00  0.00    +0.000 C 
ATOM      7  C   UNL     1       0.892   9.520  19.732  0.00  0.00    +0.000 C 
ENDROOT
BRANCH   5   8
ATOM      8  C   UNL     1       3.817   6.313  17.895  0.00  0.00    +0.000 A 
ATOM      9  C   UNL     1       5.206   6.414  18.071  0.00  0.00    +0.000 A 
ATOM     10  C   UNL     1       5.997   5.269  18.263  0.00  0.00    +0.000 A 
ATOM     11  C   UNL     1       5.376   4.009  18.293  0.00  0.00    +0.000 A 
ATOM     12  C   UNL     1       3.992   3.898  18.116  0.00  0.00    +0.000 A 
ATOM     13  C   UNL     1       3.218   5.043  17.913  0.00  0.00    +0.000 A 
ATOM     14 CL   UNL     1       1.519   4.837  17.658  0.00  0.00    +0.000 Cl
BRANCH  10  15
ATOM     15  C   UNL     1       7.496   5.375  18.423  0.00  0.00    +0.000 C 
ATOM     16  F   UNL     1       7.896   5.439  19.723  0.00  0.00    +0.000 F 
ATOM     17  F   UNL     1       8.157   4.319  17.876  0.00  0.00    +0.000 F 
ATOM     18  F   UNL     1       8.002   6.488  17.823  0.00  0.00    +0.000 F 
ENDBRANCH  10  15
ENDBRANCH   5   8
BRANCH   7  19
ATOM     19  C   UNL     1      -0.023  10.604  20.092  0.00  0.00    +0.000 A 
ATOM     20  C   UNL     1       0.253  11.460  21.163  0.00  0.00    +0.000 A 
ATOM     21  C   UNL     1      -0.591  12.539  21.462  0.00  0.00    +0.000 A 
ATOM     22  C   UNL     1      -1.733  12.809  20.700  0.00  0.00    +0.000 A 
ATOM     23  C   UNL     1      -2.010  11.917  19.649  0.00  0.00    +0.000 A 
ATOM     24  F   UNL     1      -3.126  12.065  18.915  0.00  0.00    +0.000 F 
ATOM     25  C   UNL     1      -1.181  10.840  19.347  0.00  0.00    +0.000 A 
BRANCH  22  26
ATOM     26  N   UNL     1      -2.580  13.865  20.985  0.00  0.00    +0.000 N 
ATOM     27  C   UNL     1      -3.830  13.678  21.730  0.00  0.00    +0.000 C 
ATOM     28  C   UNL     1      -4.826  14.755  21.270  0.00  0.00    +0.000 C 
ATOM     29  O   UNL     1      -4.295  16.082  21.441  0.00  0.00    +0.000 OA
ATOM     30  C   UNL     1      -3.075  16.235  20.689  0.00  0.00    +0.000 C 
ATOM     31  C   UNL     1      -2.013  15.218  21.134  0.00  0.00    +0.000 C 
ENDBRANCH  22  26
ENDBRANCH   7  19
BRANCH   6  32
ATOM     32  O   UNL     1       1.197   9.886  17.372  0.00  0.00    +0.000 OA
ATOM     33  H   UNL     1       2.039  10.163  16.977  0.00  0.00    +0.000 HD
ENDBRANCH   6  32
TORSDOF 5
ENDMDL
MODEL 6
REMARK VINA RESULT:      -8.5      1.305      1.707
REMARK  Name = 
REMARK  5 active torsions:
REMARK  status: ('A' for Active; 'I' for Inactive)
REMARK    1  A    between atoms: C_5  and  C_6
REMARK    2  A    between atoms: C_8  and  C_9
REMARK    3  A    between atoms: C_17  and  O_18
REMARK    4  A    between atoms: C_19  and  C_20
REMARK    5  A    between atoms: C_23  and  N_24
REMARK                            x       y       z     vdW  Elec       q    Type
REMARK                         _______ _______ _______ _____ _____    ______ ____
ROOT
ATOM      1  O   UNL     1       1.559   9.781  17.362  0.00  0.00    +0.000 OA
ATOM      2  C   UNL     1       1.805   9.012  18.277  0.00  0.00    +0.000 C 
ATOM      3  O   UNL     1       2.480   7.826  18.117  0.00  0.00    +0.000 OA
ATOM      4  C   UNL     1       2.469   7.227  19.370  0.00  0.00    +0.000 C 
ATOM      5  C   UNL     1       2.956   5.998  19.590  0.00  0.00    +0.000 C 
ATOM      6  C   UNL     1       1.849   8.110  20.299  0.00  0.00    +0.000 C 
ATOM      7  C   UNL     1       1.422   9.214  19.692  0.00  0.00    +0.000 C 
ENDROOT
BRANCH   5   8
ATOM      8  C   UNL     1       3.633   5.210  18.553  0.00  0.00    +0.000 A 
ATOM      9  C   UNL     1       5.000   5.428  18.319  0.00  0.00    +0.000 A 
ATOM     10  C   UNL     1       5.691   4.706  17.332  0.00  0.00    +0.000 A 
ATOM     11  C   UNL     1       4.996   3.743  16.582  0.00  0.00    +0.000 A 
ATOM     12  C   UNL     1       3.633   3.520  16.804  0.00  0.00    +0.000 A 
ATOM     13  C   UNL     1       2.954   4.253  17.781  0.00  0.00    +0.000 A 
ATOM     14 CL   UNL     1       1.261   3.963  17.980  0.00  0.00    +0.000 Cl
BRANCH  10  15
ATOM     15  C   UNL     1       7.155   4.962  17.061  0.00  0.00    +0.000 C 
ATOM     16  F   UNL     1       7.536   4.630  15.796  0.00  0.00    +0.000 F 
ATOM     17  F   UNL     1       7.499   6.268  17.227  0.00  0.00    +0.000 F 
ATOM     18  F   UNL     1       7.966   4.250  17.893  0.00  0.00    +0.000 F 
ENDBRANCH  10  15
ENDBRANCH   5   8
BRANCH   7  19
ATOM     19  C   UNL     1       0.734  10.374  20.258  0.00  0.00    +0.000 A 
ATOM     20  C   UNL     1      -0.487  10.237  20.928  0.00  0.00    +0.000 A 
ATOM     21  C   UNL     1      -1.110  11.340  21.529  0.00  0.00    +0.000 A 
ATOM     22  C   UNL     1      -0.536  12.615  21.492  0.00  0.00    +0.000 A 
ATOM     23  C   UNL     1       0.674  12.737  20.786  0.00  0.00    +0.000 A 
ATOM     24  F   UNL     1       1.253  13.942  20.642  0.00  0.00    +0.000 F 
ATOM     25  C   UNL     1       1.298  11.649  20.181  0.00  0.00    +0.000 A 
BRANCH  22  26
ATOM     26  N   UNL     1      -1.140  13.716  22.074  0.00  0.00    +0.000 N 
ATOM     27  C   UNL     1      -1.982  14.636  21.303  0.00  0.00    +0.000 C 
ATOM     28  C   UNL     1      -1.887  16.028  21.950  0.00  0.00    +0.000 C 
ATOM     29  O   UNL     1      -2.261  15.997  23.340  0.00  0.00    +0.000 OA
ATOM     30  C   UNL     1      -1.409  15.092  24.069  0.00  0.00    +0.000 C 
ATOM     31  C   UNL     1      -1.494  13.666  23.504  0.00  0.00    +0.000 C 
ENDBRANCH  22  26
ENDBRANCH   7  19
BRANCH   6  32
ATOM     32  O   UNL     1       1.769   7.839  21.638  0.00  0.00    +0.000 OA
ATOM     33  H   UNL     1       1.652   6.885  21.774  0.00  0.00    +0.000 HD
ENDBRANCH   6  32
TORSDOF 5
ENDMDL
MODEL 7
REMARK VINA RESULT:      -8.5      1.192      1.510
REMARK  Name = 
REMARK  5 active torsions:
REMARK  status: ('A' for Active; 'I' for Inactive)
REMARK    1  A    between atoms: C_5  and  C_6
REMARK    2  A    between atoms: C_8  and  C_9
REMARK    3  A    between atoms: C_17  and  O_18
REMARK    4  A    between atoms: C_19  and  C_20
REMARK    5  A    between atoms: C_23  and  N_24
REMARK                            x       y       z     vdW  Elec       q    Type
REMARK                         _______ _______ _______ _____ _____    ______ ____
ROOT
ATOM      1  O   UNL     1       1.530   9.795  17.522  0.00  0.00    +0.000 OA
ATOM      2  C   UNL     1       1.777   8.992  18.407  0.00  0.00    +0.000 C 
ATOM      3  O   UNL     1       2.458   7.817  18.203  0.00  0.00    +0.000 OA
ATOM      4  C   UNL     1       2.446   7.169  19.431  0.00  0.00    +0.000 C 
ATOM      5  C   UNL     1       2.937   5.934  19.605  0.00  0.00    +0.000 C 
ATOM      6  C   UNL     1       1.820   8.013  20.393  0.00  0.00    +0.000 C 
ATOM      7  C   UNL     1       1.389   9.137  19.828  0.00  0.00    +0.000 C 
ENDROOT
BRANCH   5   8
ATOM      8  C   UNL     1       3.621   5.190  18.541  0.00  0.00    +0.000 A 
ATOM      9  C   UNL     1       4.975   5.460  18.287  0.00  0.00    +0.000 A 
ATOM     10  C   UNL     1       5.671   4.781  17.273  0.00  0.00    +0.000 A 
ATOM     11  C   UNL     1       4.996   3.809  16.517  0.00  0.00    +0.000 A 
ATOM     12  C   UNL     1       3.646   3.535  16.760  0.00  0.00    +0.000 A 
ATOM     13  C   UNL     1       2.961   4.225  17.763  0.00  0.00    +0.000 A 
ATOM     14 CL   UNL     1       1.282   3.873  17.988  0.00  0.00    +0.000 Cl
BRANCH  10  15
ATOM     15  C   UNL     1       7.121   5.092  16.980  0.00  0.00    +0.000 C 
ATOM     16  F   UNL     1       7.988   4.217  17.561  0.00  0.00    +0.000 F 
ATOM     17  F   UNL     1       7.403   5.075  15.649  0.00  0.00    +0.000 F 
ATOM     18  F   UNL     1       7.485   6.327  17.425  0.00  0.00    +0.000 F 
ENDBRANCH  10  15
ENDBRANCH   5   8
BRANCH   7  19
ATOM     19  C   UNL     1       0.694  10.271  20.436  0.00  0.00    +0.000 A 
ATOM     20  C   UNL     1       0.886  11.576  19.968  0.00  0.00    +0.000 A 
ATOM     21  C   UNL     1       0.165  12.651  20.508  0.00  0.00    +0.000 A 
ATOM     22  C   UNL     1      -0.778  12.464  21.524  0.00  0.00    +0.000 A 
ATOM     23  C   UNL     1      -0.931  11.151  22.003  0.00  0.00    +0.000 A 
ATOM     24  F   UNL     1      -1.764  10.899  23.027  0.00  0.00    +0.000 F 
ATOM     25  C   UNL     1      -0.217  10.078  21.478  0.00  0.00    +0.000 A 
BRANCH  22  26
ATOM     26  N   UNL     1      -1.492  13.515  22.073  0.00  0.00    +0.000 N 
ATOM     27  C   UNL     1      -1.118  14.123  23.353  0.00  0.00    +0.000 C 
ATOM     28  C   UNL     1      -2.393  14.672  24.013  0.00  0.00    +0.000 C 
ATOM     29  O   UNL     1      -3.077  15.606  23.158  0.00  0.00    +0.000 OA
ATOM     30  C   UNL     1      -3.440  14.974  21.914  0.00  0.00    +0.000 C 
ATOM     31  C   UNL     1      -2.202  14.444  21.175  0.00  0.00    +0.000 C 
ENDBRANCH  22  26
ENDBRANCH   7  19
BRANCH   6  32
ATOM     32  O   UNL     1       1.737   7.690  21.719  0.00  0.00    +0.000 OA
ATOM     33  H   UNL     1       2.426   8.159  22.216  0.00  0.00    +0.000 HD
ENDBRANCH   6  32
TORSDOF 5
ENDMDL
MODEL 8
REMARK VINA RESULT:      -8.4      2.743      3.426
REMARK  Name = 
REMARK  5 active torsions:
REMARK  status: ('A' for Active; 'I' for Inactive)
REMARK    1  A    between atoms: C_5  and  C_6
REMARK    2  A    between atoms: C_8  and  C_9
REMARK    3  A    between atoms: C_17  and  O_18
REMARK    4  A    between atoms: C_19  and  C_20
REMARK    5  A    between atoms: C_23  and  N_24
REMARK                            x       y       z     vdW  Elec       q    Type
REMARK                         _______ _______ _______ _____ _____    ______ ____
ROOT
ATOM      1  O   UNL     1       0.967   8.684  21.868  0.00  0.00    +0.000 OA
ATOM      2  C   UNL     1       1.258   8.671  20.683  0.00  0.00    +0.000 C 
ATOM      3  O   UNL     1       1.818   7.591  20.046  0.00  0.00    +0.000 OA
ATOM      4  C   UNL     1       2.067   8.019  18.748  0.00  0.00    +0.000 C 
ATOM      5  C   UNL     1       2.704   7.262  17.844  0.00  0.00    +0.000 C 
ATOM      6  C   UNL     1       1.571   9.345  18.596  0.00  0.00    +0.000 C 
ATOM      7  C   UNL     1       1.068   9.797  19.742  0.00  0.00    +0.000 C 
ENDROOT
BRANCH   5   8
ATOM      8  C   UNL     1       3.111   5.877  18.108  0.00  0.00    +0.000 A 
ATOM      9  C   UNL     1       2.138   4.949  18.512  0.00  0.00    +0.000 A 
ATOM     10  C   UNL     1       2.479   3.614  18.785  0.00  0.00    +0.000 A 
ATOM     11  C   UNL     1       3.815   3.207  18.634  0.00  0.00    +0.000 A 
ATOM     12  C   UNL     1       4.793   4.125  18.234  0.00  0.00    +0.000 A 
ATOM     13  C   UNL     1       4.443   5.453  17.977  0.00  0.00    +0.000 A 
ATOM     14 CL   UNL     1       5.703   6.550  17.527  0.00  0.00    +0.000 Cl
BRANCH  10  15
ATOM     15  C   UNL     1       1.436   2.623  19.249  0.00  0.00    +0.000 C 
ATOM     16  F   UNL     1       1.909   1.349  19.346  0.00  0.00    +0.000 F 
ATOM     17  F   UNL     1       0.928   2.930  20.473  0.00  0.00    +0.000 F 
ATOM     18  F   UNL     1       0.370   2.560  18.404  0.00  0.00    +0.000 F 
ENDBRANCH  10  15
ENDBRANCH   5   8
BRANCH   7  19
ATOM     19  C   UNL     1       0.461  11.095  20.038  0.00  0.00    +0.000 A 
ATOM     20  C   UNL     1       1.218  12.144  20.572  0.00  0.00    +0.000 A 
ATOM     21  C   UNL     1       0.650  13.408  20.789  0.00  0.00    +0.000 A 
ATOM     22  C   UNL     1      -0.687  13.674  20.475  0.00  0.00    +0.000 A 
ATOM     23  C   UNL     1      -1.438  12.597  19.971  0.00  0.00    +0.000 A 
ATOM     24  F   UNL     1      -2.748  12.751  19.712  0.00  0.00    +0.000 F 
ATOM     25  C   UNL     1      -0.885  11.338  19.756  0.00  0.00    +0.000 A 
BRANCH  22  26
ATOM     26  N   UNL     1      -1.266  14.912  20.690  0.00  0.00    +0.000 N 
ATOM     27  C   UNL     1      -1.966  15.236  21.937  0.00  0.00    +0.000 C 
ATOM     28  C   UNL     1      -3.051  16.278  21.620  0.00  0.00    +0.000 C 
ATOM     29  O   UNL     1      -2.498  17.452  20.998  0.00  0.00    +0.000 OA
ATOM     30  C   UNL     1      -1.827  17.101  19.772  0.00  0.00    +0.000 C 
ATOM     31  C   UNL     1      -0.693  16.096  20.023  0.00  0.00    +0.000 C 
ENDBRANCH  22  26
ENDBRANCH   7  19
BRANCH   6  32
ATOM     32  O   UNL     1       1.587  10.009  17.401  0.00  0.00    +0.000 OA
ATOM     33  H   UNL     1       2.240  10.727  17.432  0.00  0.00    +0.000 HD
ENDBRANCH   6  32
TORSDOF 5
ENDMDL
MODEL 9
REMARK VINA RESULT:      -8.4      2.581      3.438
REMARK  Name = 
REMARK  5 active torsions:
REMARK  status: ('A' for Active; 'I' for Inactive)
REMARK    1  A    between atoms: C_5  and  C_6
REMARK    2  A    between atoms: C_8  and  C_9
REMARK    3  A    between atoms: C_17  and  O_18
REMARK    4  A    between atoms: C_19  and  C_20
REMARK    5  A    between atoms: C_23  and  N_24
REMARK                            x       y       z     vdW  Elec       q    Type
REMARK                         _______ _______ _______ _____ _____    ______ ____
ROOT
ATOM      1  O   UNL     1       0.866   8.266  21.502  0.00  0.00    +0.000 OA
ATOM      2  C   UNL     1       1.274   8.453  20.368  0.00  0.00    +0.000 C 
ATOM      3  O   UNL     1       2.009   7.533  19.659  0.00  0.00    +0.000 OA
ATOM      4  C   UNL     1       2.339   8.168  18.469  0.00  0.00    +0.000 C 
ATOM      5  C   UNL     1       3.141   7.613  17.549  0.00  0.00    +0.000 C 
ATOM      6  C   UNL     1       1.721   9.451  18.442  0.00  0.00    +0.000 C 
ATOM      7  C   UNL     1       1.060   9.683  19.572  0.00  0.00    +0.000 C 
ENDROOT
BRANCH   5   8
ATOM      8  C   UNL     1       3.665   6.247  17.668  0.00  0.00    +0.000 A 
ATOM      9  C   UNL     1       2.765   5.191  17.878  0.00  0.00    +0.000 A 
ATOM     10  C   UNL     1       3.218   3.867  18.006  0.00  0.00    +0.000 A 
ATOM     11  C   UNL     1       4.595   3.606  17.908  0.00  0.00    +0.000 A 
ATOM     12  C   UNL     1       5.501   4.652  17.702  0.00  0.00    +0.000 A 
ATOM     13  C   UNL     1       5.038   5.966  17.588  0.00  0.00    +0.000 A 
ATOM     14 CL   UNL     1       6.210   7.221  17.376  0.00  0.00    +0.000 Cl
BRANCH  10  15
ATOM     15  C   UNL     1       2.251   2.734  18.262  0.00  0.00    +0.000 C 
ATOM     16  F   UNL     1       2.382   2.182  19.500  0.00  0.00    +0.000 F 
ATOM     17  F   UNL     1       0.951   3.120  18.157  0.00  0.00    +0.000 F 
ATOM     18  F   UNL     1       2.412   1.709  17.379  0.00  0.00    +0.000 F 
ENDBRANCH  10  15
ENDBRANCH   5   8
BRANCH   7  19
ATOM     19  C   UNL     1       0.292  10.862  19.970  0.00  0.00    +0.000 A 
ATOM     20  C   UNL     1      -1.040  11.027  19.575  0.00  0.00    +0.000 A 
ATOM     21  C   UNL     1      -1.794  12.124  20.015  0.00  0.00    +0.000 A 
ATOM     22  C   UNL     1      -1.252  13.090  20.871  0.00  0.00    +0.000 A 
ATOM     23  C   UNL     1       0.098  12.923  21.228  0.00  0.00    +0.000 A 
ATOM     24  F   UNL     1       0.714  13.845  21.988  0.00  0.00    +0.000 F 
ATOM     25  C   UNL     1       0.856  11.841  20.792  0.00  0.00    +0.000 A 
BRANCH  22  26
ATOM     26  N   UNL     1      -1.979  14.183  21.309  0.00  0.00    +0.000 N 
ATOM     27  C   UNL     1      -1.918  15.480  20.627  0.00  0.00    +0.000 C 
ATOM     28  C   UNL     1      -2.182  16.580  21.668  0.00  0.00    +0.000 C 
ATOM     29  O   UNL     1      -3.440  16.388  22.340  0.00  0.00    +0.000 OA
ATOM     30  C   UNL     1      -3.464  15.111  23.007  0.00  0.00    +0.000 C 
ATOM     31  C   UNL     1      -3.255  13.958  22.014  0.00  0.00    +0.000 C 
ENDBRANCH  22  26
ENDBRANCH   7  19
BRANCH   6  32
ATOM     32  O   UNL     1       1.786  10.281  17.356  0.00  0.00    +0.000 OA
ATOM     33  H   UNL     1       2.711  10.396  17.085  0.00  0.00    +0.000 HD
ENDBRANCH   6  32
TORSDOF 5
ENDMDL
