MODEL 1
REMARK VINA RESULT:     -10.1      0.000      0.000
REMARK  Name = 
REMARK  6 active torsions:
REMARK  status: ('A' for Active; 'I' for Inactive)
REMARK    1  A    between atoms: C_1  and  O_2
REMARK    2  A    between atoms: O_2  and  C_3
REMARK    3  A    between atoms: N_10  and  C_11
REMARK    4  A    between atoms: C_14  and  O_15
REMARK    5  A    between atoms: O_15  and  C_16
REMARK    6  A    between atoms: C_21  and  C_22
REMARK                            x       y       z     vdW  Elec       q    Type
REMARK                         _______ _______ _______ _____ _____    ______ ____
ROOT
ATOM      1  C   UNL     1       1.158   9.177  19.386  0.00  0.00    +0.000 A 
ATOM      2  C   UNL     1       1.209   8.387  20.543  0.00  0.00    +0.000 A 
ATOM      3  C   UNL     1       1.996   7.227  20.593  0.00  0.00    +0.000 A 
ATOM      4  C   UNL     1       2.732   6.824  19.476  0.00  0.00    +0.000 A 
ATOM      5  C   UNL     1       2.690   7.607  18.321  0.00  0.00    +0.000 A 
ATOM      6  C   UNL     1       1.899   8.759  18.272  0.00  0.00    +0.000 A 
ENDROOT
BRANCH   1  14
ATOM      7  C   UNL     1      -4.038  11.722  17.978  0.00  0.00    +0.000 A 
ATOM      8  C   UNL     1      -4.711  11.516  16.759  0.00  0.00    +0.000 A 
ATOM      9  C   UNL     1      -4.122  10.805  15.708  0.00  0.00    +0.000 A 
ATOM     10  C   UNL     1      -2.842  10.267  15.826  0.00  0.00    +0.000 A 
ATOM     11  C   UNL     1      -2.183  10.488  17.035  0.00  0.00    +0.000 A 
ATOM     12  N   UNL     1      -0.943  10.117  17.475  0.00  0.00    +0.000 N 
ATOM     13  C   UNL     1      -0.766  10.579  18.752  0.00  0.00    +0.000 A 
ATOM     14  N   UNL     1       0.405  10.375  19.395  0.00  0.00    +0.000 N 
ATOM     15  N   UNL     1      -1.812  11.273  19.142  0.00  0.00    +0.000 NA
ATOM     16  C   UNL     1      -2.724  11.205  18.102  0.00  0.00    +0.000 A 
ATOM     17  H   UNL     1      -0.250   9.599  16.960  0.00  0.00    +0.000 HD
ATOM     18  H   UNL     1       0.526  10.900  20.258  0.00  0.00    +0.000 HD
BRANCH   7  20
ATOM     19  C   UNL     1      -5.776  11.904  19.578  0.00  0.00    +0.000 C 
ATOM     20  O   UNL     1      -4.571  12.429  19.029  0.00  0.00    +0.000 OA
ENDBRANCH   7  20
ENDBRANCH   1  14
BRANCH   4  21
ATOM     21  O   UNL     1       3.529   5.705  19.612  0.00  0.00    +0.000 OA
BRANCH  21  22
ATOM     22  C   UNL     1       3.099   4.521  19.022  0.00  0.00    +0.000 A 
ATOM     23  N   UNL     1       1.993   3.926  19.539  0.00  0.00    +0.000 NA
ATOM     24  C   UNL     1       1.551   2.803  18.944  0.00  0.00    +0.000 A 
ATOM     25  C   UNL     1       2.173   2.220  17.860  0.00  0.00    +0.000 A 
ATOM     26  C   UNL     1       3.332   2.815  17.372  0.00  0.00    +0.000 A 
ATOM     27  C   UNL     1       3.833   3.992  17.953  0.00  0.00    +0.000 A 
BRANCH  27  28
ATOM     28  C   UNL     1       5.096   4.638  17.410  0.00  0.00    +0.000 C 
ATOM     29  C   UNL     1       5.526   4.025  16.065  0.00  0.00    +0.000 C 
ATOM     30  C   UNL     1       6.837   4.639  15.593  0.00  0.00    +0.000 C 
ATOM     31  O   UNL     1       7.854   4.461  16.577  0.00  0.00    +0.000 OA
ATOM     32  C   UNL     1       7.541   5.121  17.803  0.00  0.00    +0.000 C 
ATOM     33  C   UNL     1       6.265   4.551  18.411  0.00  0.00    +0.000 C 
ENDBRANCH  27  28
ENDBRANCH  21  22
ENDBRANCH   4  21
TORSDOF 5
ENDMDL
MODEL 2
REMARK VINA RESULT:      -9.5      0.915      1.088
REMARK  Name = 
REMARK  6 active torsions:
REMARK  status: ('A' for Active; 'I' for Inactive)
REMARK    1  A    between atoms: C_1  and  O_2
REMARK    2  A    between atoms: O_2  and  C_3
REMARK    3  A    between atoms: N_10  and  C_11
REMARK    4  A    between atoms: C_14  and  O_15
REMARK    5  A    between atoms: O_15  and  C_16
REMARK    6  A    between atoms: C_21  and  C_22
REMARK                            x       y       z     vdW  Elec       q    Type
REMARK                         _______ _______ _______ _____ _____    ______ ____
ROOT
ATOM      1  C   UNL     1       1.185   9.735  18.959  0.00  0.00    +0.000 A 
ATOM      2  C   UNL     1       1.168   8.992  20.148  0.00  0.00    +0.000 A 
ATOM      3  C   UNL     1       1.895   7.797  20.265  0.00  0.00    +0.000 A 
ATOM      4  C   UNL     1       2.637   7.314  19.186  0.00  0.00    +0.000 A 
ATOM      5  C   UNL     1       2.663   8.048  17.999  0.00  0.00    +0.000 A 
ATOM      6  C   UNL     1       1.932   9.235  17.883  0.00  0.00    +0.000 A 
ENDROOT
BRANCH   1  14
ATOM      7  C   UNL     1      -4.119  12.410  19.362  0.00  0.00    +0.000 A 
ATOM      8  C   UNL     1      -5.295  11.923  18.761  0.00  0.00    +0.000 A 
ATOM      9  C   UNL     1      -5.271  10.835  17.881  0.00  0.00    +0.000 A 
ATOM     10  C   UNL     1      -4.079  10.185  17.565  0.00  0.00    +0.000 A 
ATOM     11  C   UNL     1      -2.921  10.686  18.160  0.00  0.00    +0.000 A 
ATOM     12  N   UNL     1      -1.613  10.302  18.065  0.00  0.00    +0.000 N 
ATOM     13  C   UNL     1      -0.850  11.120  18.856  0.00  0.00    +0.000 A 
ATOM     14  N   UNL     1       0.493  10.967  18.900  0.00  0.00    +0.000 N 
ATOM     15  N   UNL     1      -1.594  12.044  19.420  0.00  0.00    +0.000 NA
ATOM     16  C   UNL     1      -2.896  11.778  19.027  0.00  0.00    +0.000 A 
ATOM     17  H   UNL     1      -1.243   9.552  17.504  0.00  0.00    +0.000 HD
ATOM     18  H   UNL     1       1.002  11.718  19.359  0.00  0.00    +0.000 HD
BRANCH   7  20
ATOM     19  C   UNL     1      -5.025  13.442  21.292  0.00  0.00    +0.000 C 
ATOM     20  O   UNL     1      -4.093  13.487  20.217  0.00  0.00    +0.000 OA
ENDBRANCH   7  20
ENDBRANCH   1  14
BRANCH   4  21
ATOM     21  O   UNL     1       3.374   6.163  19.387  0.00  0.00    +0.000 OA
BRANCH  21  22
ATOM     22  C   UNL     1       2.918   4.984  18.806  0.00  0.00    +0.000 A 
ATOM     23  N   UNL     1       1.732   4.486  19.241  0.00  0.00    +0.000 NA
ATOM     24  C   UNL     1       1.269   3.369  18.650  0.00  0.00    +0.000 A 
ATOM     25  C   UNL     1       1.944   2.700  17.651  0.00  0.00    +0.000 A 
ATOM     26  C   UNL     1       3.180   3.196  17.250  0.00  0.00    +0.000 A 
ATOM     27  C   UNL     1       3.707   4.363  17.829  0.00  0.00    +0.000 A 
BRANCH  27  28
ATOM     28  C   UNL     1       5.054   4.901  17.381  0.00  0.00    +0.000 C 
ATOM     29  C   UNL     1       5.440   4.396  15.979  0.00  0.00    +0.000 C 
ATOM     30  C   UNL     1       6.830   4.889  15.599  0.00  0.00    +0.000 C 
ATOM     31  O   UNL     1       7.791   4.471  16.567  0.00  0.00    +0.000 OA
ATOM     32  C   UNL     1       7.529   5.022  17.857  0.00  0.00    +0.000 C 
ATOM     33  C   UNL     1       6.176   4.553  18.380  0.00  0.00    +0.000 C 
ENDBRANCH  27  28
ENDBRANCH  21  22
ENDBRANCH   4  21
TORSDOF 5
ENDMDL
MODEL 3
REMARK VINA RESULT:      -9.3      0.786      1.143
REMARK  Name = 
REMARK  6 active torsions:
REMARK  status: ('A' for Active; 'I' for Inactive)
REMARK    1  A    between atoms: C_1  and  O_2
REMARK    2  A    between atoms: O_2  and  C_3
REMARK    3  A    between atoms: N_10  and  C_11
REMARK    4  A    between atoms: C_14  and  O_15
REMARK    5  A    between atoms: O_15  and  C_16
REMARK    6  A    between atoms: C_21  and  C_22
REMARK                            x       y       z     vdW  Elec       q    Type
REMARK                         _______ _______ _______ _____ _____    ______ ____
ROOT
ATOM      1  C   UNL     1       1.132   9.233  19.407  0.00  0.00    +0.000 A 
ATOM      2  C   UNL     1       1.173   8.449  20.568  0.00  0.00    +0.000 A 
ATOM      3  C   UNL     1       1.967   7.293  20.634  0.00  0.00    +0.000 A 
ATOM      4  C   UNL     1       2.719   6.891  19.528  0.00  0.00    +0.000 A 
ATOM      5  C   UNL     1       2.688   7.667  18.368  0.00  0.00    +0.000 A 
ATOM      6  C   UNL     1       1.890   8.815  18.305  0.00  0.00    +0.000 A 
ENDROOT
BRANCH   1  14
ATOM      7  C   UNL     1      -4.071  11.732  17.943  0.00  0.00    +0.000 A 
ATOM      8  C   UNL     1      -4.734  11.512  16.721  0.00  0.00    +0.000 A 
ATOM      9  C   UNL     1      -4.134  10.796  15.681  0.00  0.00    +0.000 A 
ATOM     10  C   UNL     1      -2.851  10.267  15.811  0.00  0.00    +0.000 A 
ATOM     11  C   UNL     1      -2.201  10.502  17.023  0.00  0.00    +0.000 A 
ATOM     12  N   UNL     1      -0.963  10.143  17.474  0.00  0.00    +0.000 N 
ATOM     13  C   UNL     1      -0.797  10.618  18.748  0.00  0.00    +0.000 A 
ATOM     14  N   UNL     1       0.372  10.426  19.401  0.00  0.00    +0.000 N 
ATOM     15  N   UNL     1      -1.849  11.308  19.125  0.00  0.00    +0.000 NA
ATOM     16  C   UNL     1      -2.754  11.225  18.080  0.00  0.00    +0.000 A 
ATOM     17  H   UNL     1      -0.263   9.625  16.968  0.00  0.00    +0.000 HD
ATOM     18  H   UNL     1       0.483  10.959  20.259  0.00  0.00    +0.000 HD
BRANCH   7  20
ATOM     19  C   UNL     1      -5.729  11.839  19.631  0.00  0.00    +0.000 C 
ATOM     20  O   UNL     1      -4.615  12.446  18.985  0.00  0.00    +0.000 OA
ENDBRANCH   7  20
ENDBRANCH   1  14
BRANCH   4  21
ATOM     21  O   UNL     1       3.522   5.777  19.679  0.00  0.00    +0.000 OA
BRANCH  21  22
ATOM     22  C   UNL     1       3.167   4.618  18.995  0.00  0.00    +0.000 A 
ATOM     23  N   UNL     1       1.929   4.108  19.220  0.00  0.00    +0.000 NA
ATOM     24  C   UNL     1       1.570   3.012  18.527  0.00  0.00    +0.000 A 
ATOM     25  C   UNL     1       2.397   2.374  17.627  0.00  0.00    +0.000 A 
ATOM     26  C   UNL     1       3.679   2.881  17.444  0.00  0.00    +0.000 A 
ATOM     27  C   UNL     1       4.103   4.027  18.137  0.00  0.00    +0.000 A 
BRANCH  27  28
ATOM     28  C   UNL     1       5.503   4.576  17.926  0.00  0.00    +0.000 C 
ATOM     29  C   UNL     1       6.139   5.059  19.243  0.00  0.00    +0.000 C 
ATOM     30  C   UNL     1       7.506   5.676  18.981  0.00  0.00    +0.000 C 
ATOM     31  O   UNL     1       7.399   6.750  18.049  0.00  0.00    +0.000 OA
ATOM     32  C   UNL     1       6.925   6.314  16.776  0.00  0.00    +0.000 C 
ATOM     33  C   UNL     1       5.526   5.721  16.895  0.00  0.00    +0.000 C 
ENDBRANCH  27  28
ENDBRANCH  21  22
ENDBRANCH   4  21
TORSDOF 5
ENDMDL
MODEL 4
REMARK VINA RESULT:      -9.2      0.598      1.356
REMARK  Name = 
REMARK  6 active torsions:
REMARK  status: ('A' for Active; 'I' for Inactive)
REMARK    1  A    between atoms: C_1  and  O_2
REMARK    2  A    between atoms: O_2  and  C_3
REMARK    3  A    between atoms: N_10  and  C_11
REMARK    4  A    between atoms: C_14  and  O_15
REMARK    5  A    between atoms: O_15  and  C_16
REMARK    6  A    between atoms: C_21  and  C_22
REMARK                            x       y       z     vdW  Elec       q    Type
REMARK                         _______ _______ _______ _____ _____    ______ ____
ROOT
ATOM      1  C   UNL     1       1.272   9.341  19.226  0.00  0.00    +0.000 A 
ATOM      2  C   UNL     1       1.946   9.195  18.006  0.00  0.00    +0.000 A 
ATOM      3  C   UNL     1       2.766   8.083  17.761  0.00  0.00    +0.000 A 
ATOM      4  C   UNL     1       2.943   7.106  18.743  0.00  0.00    +0.000 A 
ATOM      5  C   UNL     1       2.272   7.241  19.960  0.00  0.00    +0.000 A 
ATOM      6  C   UNL     1       1.461   8.355  20.203  0.00  0.00    +0.000 A 
ENDROOT
BRANCH   1  14
ATOM      7  C   UNL     1      -4.145  11.560  18.133  0.00  0.00    +0.000 A 
ATOM      8  C   UNL     1      -4.787  11.489  16.883  0.00  0.00    +0.000 A 
ATOM      9  C   UNL     1      -4.125  11.018  15.745  0.00  0.00    +0.000 A 
ATOM     10  C   UNL     1      -2.798  10.596  15.802  0.00  0.00    +0.000 A 
ATOM     11  C   UNL     1      -2.170  10.682  17.045  0.00  0.00    +0.000 A 
ATOM     12  N   UNL     1      -0.903  10.368  17.446  0.00  0.00    +0.000 N 
ATOM     13  C   UNL     1      -0.780  10.632  18.784  0.00  0.00    +0.000 A 
ATOM     14  N   UNL     1       0.403  10.442  19.411  0.00  0.00    +0.000 N 
ATOM     15  N   UNL     1      -1.891  11.148  19.258  0.00  0.00    +0.000 NA
ATOM     16  C   UNL     1      -2.787  11.161  18.201  0.00  0.00    +0.000 A 
ATOM     17  H   UNL     1      -0.159  10.009  16.870  0.00  0.00    +0.000 HD
ATOM     18  H   UNL     1       0.466  10.830  20.349  0.00  0.00    +0.000 HD
BRANCH   7  20
ATOM     19  C   UNL     1      -5.784  12.991  19.069  0.00  0.00    +0.000 C 
ATOM     20  O   UNL     1      -4.751  12.033  19.273  0.00  0.00    +0.000 OA
ENDBRANCH   7  20
ENDBRANCH   1  14
BRANCH   4  21
ATOM     21  O   UNL     1       3.717   6.010  18.416  0.00  0.00    +0.000 OA
BRANCH  21  22
ATOM     22  C   UNL     1       3.094   4.768  18.347  0.00  0.00    +0.000 A 
ATOM     23  N   UNL     1       1.847   4.659  18.872  0.00  0.00    +0.000 NA
ATOM     24  C   UNL     1       1.226   3.469  18.768  0.00  0.00    +0.000 A 
ATOM     25  C   UNL     1       1.799   2.360  18.182  0.00  0.00    +0.000 A 
ATOM     26  C   UNL     1       3.096   2.475  17.692  0.00  0.00    +0.000 A 
ATOM     27  C   UNL     1       3.787   3.696  17.769  0.00  0.00    +0.000 A 
BRANCH  27  28
ATOM     28  C   UNL     1       5.201   3.813  17.228  0.00  0.00    +0.000 C 
ATOM     29  C   UNL     1       6.146   4.507  18.226  0.00  0.00    +0.000 C 
ATOM     30  C   UNL     1       7.531   4.679  17.617  0.00  0.00    +0.000 C 
ATOM     31  O   UNL     1       7.453   5.417  16.400  0.00  0.00    +0.000 OA
ATOM     32  C   UNL     1       6.681   4.742  15.408  0.00  0.00    +0.000 C 
ATOM     33  C   UNL     1       5.243   4.557  15.879  0.00  0.00    +0.000 C 
ENDBRANCH  27  28
ENDBRANCH  21  22
ENDBRANCH   4  21
TORSDOF 5
ENDMDL
MODEL 5
REMARK VINA RESULT:      -9.0      1.501      3.019
REMARK  Name = 
REMARK  6 active torsions:
REMARK  status: ('A' for Active; 'I' for Inactive)
REMARK    1  A    between atoms: C_1  and  O_2
REMARK    2  A    between atoms: O_2  and  C_3
REMARK    3  A    between atoms: N_10  and  C_11
REMARK    4  A    between atoms: C_14  and  O_15
REMARK    5  A    between atoms: O_15  and  C_16
REMARK    6  A    between atoms: C_21  and  C_22
REMARK                            x       y       z     vdW  Elec       q    Type
REMARK                         _______ _______ _______ _____ _____    ______ ____
ROOT
ATOM      1  C   UNL     1       1.193   9.300  19.248  0.00  0.00    +0.000 A 
ATOM      2  C   UNL     1       1.295   8.415  20.331  0.00  0.00    +0.000 A 
ATOM      3  C   UNL     1       2.146   7.300  20.277  0.00  0.00    +0.000 A 
ATOM      4  C   UNL     1       2.894   7.039  19.127  0.00  0.00    +0.000 A 
ATOM      5  C   UNL     1       2.800   7.916  18.044  0.00  0.00    +0.000 A 
ATOM      6  C   UNL     1       1.947   9.022  18.100  0.00  0.00    +0.000 A 
ENDROOT
BRANCH   1  14
ATOM      7  C   UNL     1      -4.136  11.676  18.055  0.00  0.00    +0.000 A 
ATOM      8  C   UNL     1      -4.796  11.548  16.819  0.00  0.00    +0.000 A 
ATOM      9  C   UNL     1      -4.169  10.972  15.710  0.00  0.00    +0.000 A 
ATOM     10  C   UNL     1      -2.861  10.496  15.784  0.00  0.00    +0.000 A 
ATOM     11  C   UNL     1      -2.215  10.639  17.012  0.00  0.00    +0.000 A 
ATOM     12  N   UNL     1      -0.957  10.297  17.421  0.00  0.00    +0.000 N 
ATOM     13  C   UNL     1      -0.806  10.647  18.737  0.00  0.00    +0.000 A 
ATOM     14  N   UNL     1       0.375  10.448  19.365  0.00  0.00    +0.000 N 
ATOM     15  N   UNL     1      -1.888  11.243  19.184  0.00  0.00    +0.000 NA
ATOM     16  C   UNL     1      -2.795  11.223  18.137  0.00  0.00    +0.000 A 
ATOM     17  H   UNL     1      -0.237   9.868  16.864  0.00  0.00    +0.000 HD
ATOM     18  H   UNL     1       0.466  10.896  20.273  0.00  0.00    +0.000 HD
BRANCH   7  20
ATOM     19  C   UNL     1      -5.969  11.721  19.555  0.00  0.00    +0.000 C 
ATOM     20  O   UNL     1      -4.707  12.253  19.166  0.00  0.00    +0.000 OA
ENDBRANCH   7  20
ENDBRANCH   1  14
BRANCH   4  21
ATOM     21  O   UNL     1       3.753   5.958  19.161  0.00  0.00    +0.000 OA
BRANCH  21  22
ATOM     22  C   UNL     1       4.325   5.540  17.964  0.00  0.00    +0.000 A 
ATOM     23  N   UNL     1       5.160   6.403  17.330  0.00  0.00    +0.000 NA
ATOM     24  C   UNL     1       5.747   5.984  16.194  0.00  0.00    +0.000 A 
ATOM     25  C   UNL     1       5.526   4.743  15.635  0.00  0.00    +0.000 A 
ATOM     26  C   UNL     1       4.631   3.889  16.270  0.00  0.00    +0.000 A 
ATOM     27  C   UNL     1       3.996   4.274  17.463  0.00  0.00    +0.000 A 
BRANCH  27  28
ATOM     28  C   UNL     1       3.024   3.333  18.153  0.00  0.00    +0.000 C 
ATOM     29  C   UNL     1       1.561   3.774  17.965  0.00  0.00    +0.000 C 
ATOM     30  C   UNL     1       0.623   2.855  18.736  0.00  0.00    +0.000 C 
ATOM     31  O   UNL     1       0.971   2.834  20.120  0.00  0.00    +0.000 OA
ATOM     32  C   UNL     1       2.281   2.315  20.338  0.00  0.00    +0.000 C 
ATOM     33  C   UNL     1       3.328   3.188  19.656  0.00  0.00    +0.000 C 
ENDBRANCH  27  28
ENDBRANCH  21  22
ENDBRANCH   4  21
TORSDOF 5
ENDMDL
MODEL 6
REMARK VINA RESULT:      -9.0      2.942      3.849
REMARK  Name = 
REMARK  6 active torsions:
REMARK  status: ('A' for Active; 'I' for Inactive)
REMARK    1  A    between atoms: C_1  and  O_2
REMARK    2  A    between atoms: O_2  and  C_3
REMARK    3  A    between atoms: N_10  and  C_11
REMARK    4  A    between atoms: C_14  and  O_15
REMARK    5  A    between atoms: O_15  and  C_16
REMARK    6  A    between atoms: C_21  and  C_22
REMARK                            x       y       z     vdW  Elec       q    Type
REMARK                         _______ _______ _______ _____ _____    ______ ____
ROOT
ATOM      1  C   UNL     1       0.766   9.598  19.327  0.00  0.00    +0.000 A 
ATOM      2  C   UNL     1       1.013   8.810  20.461  0.00  0.00    +0.000 A 
ATOM      3  C   UNL     1       1.878   7.706  20.400  0.00  0.00    +0.000 A 
ATOM      4  C   UNL     1       2.496   7.359  19.197  0.00  0.00    +0.000 A 
ATOM      5  C   UNL     1       2.259   8.140  18.064  0.00  0.00    +0.000 A 
ATOM      6  C   UNL     1       1.391   9.235  18.127  0.00  0.00    +0.000 A 
ENDROOT
BRANCH   1  14
ATOM      7  C   UNL     1       0.560  15.547  19.158  0.00  0.00    +0.000 A 
ATOM      8  C   UNL     1       1.505  16.385  19.777  0.00  0.00    +0.000 A 
ATOM      9  C   UNL     1       2.496  15.874  20.622  0.00  0.00    +0.000 A 
ATOM     10  C   UNL     1       2.590  14.508  20.884  0.00  0.00    +0.000 A 
ATOM     11  C   UNL     1       1.640  13.690  20.272  0.00  0.00    +0.000 A 
ATOM     12  N   UNL     1       1.440  12.340  20.318  0.00  0.00    +0.000 N 
ATOM     13  C   UNL     1       0.366  12.021  19.531  0.00  0.00    +0.000 A 
ATOM     14  N   UNL     1      -0.060  10.740  19.443  0.00  0.00    +0.000 N 
ATOM     15  N   UNL     1      -0.169  13.105  19.017  0.00  0.00    +0.000 NA
ATOM     16  C   UNL     1       0.625  14.159  19.438  0.00  0.00    +0.000 A 
ATOM     17  H   UNL     1       1.974  11.668  20.845  0.00  0.00    +0.000 HD
ATOM     18  H   UNL     1      -0.962  10.611  18.993  0.00  0.00    +0.000 HD
BRANCH   7  20
ATOM     19  C   UNL     1      -0.312  17.359  17.906  0.00  0.00    +0.000 C 
ATOM     20  O   UNL     1      -0.441  16.007  18.336  0.00  0.00    +0.000 OA
ENDBRANCH   7  20
ENDBRANCH   1  14
BRANCH   4  21
ATOM     21  O   UNL     1       3.379   6.297  19.221  0.00  0.00    +0.000 OA
BRANCH  21  22
ATOM     22  C   UNL     1       2.937   5.069  18.739  0.00  0.00    +0.000 A 
ATOM     23  N   UNL     1       1.750   4.601  19.204  0.00  0.00    +0.000 NA
ATOM     24  C   UNL     1       1.301   3.433  18.707  0.00  0.00    +0.000 A 
ATOM     25  C   UNL     1       1.991   2.686  17.777  0.00  0.00    +0.000 A 
ATOM     26  C   UNL     1       3.228   3.155  17.347  0.00  0.00    +0.000 A 
ATOM     27  C   UNL     1       3.740   4.372  17.828  0.00  0.00    +0.000 A 
BRANCH  27  28
ATOM     28  C   UNL     1       5.089   4.879  17.349  0.00  0.00    +0.000 C 
ATOM     29  C   UNL     1       5.489   4.266  15.994  0.00  0.00    +0.000 C 
ATOM     30  C   UNL     1       6.879   4.734  15.587  0.00  0.00    +0.000 C 
ATOM     31  O   UNL     1       7.834   4.400  16.593  0.00  0.00    +0.000 OA
ATOM     32  C   UNL     1       7.559   5.050  17.833  0.00  0.00    +0.000 C 
ATOM     33  C   UNL     1       6.204   4.617  18.380  0.00  0.00    +0.000 C 
ENDBRANCH  27  28
ENDBRANCH  21  22
ENDBRANCH   4  21
TORSDOF 5
ENDMDL
MODEL 7
REMARK VINA RESULT:      -8.9      0.949      1.348
REMARK  Name = 
REMARK  6 active torsions:
REMARK  status: ('A' for Active; 'I' for Inactive)
REMARK    1  A    between atoms: C_1  and  O_2
REMARK    2  A    between atoms: O_2  and  C_3
REMARK    3  A    between atoms: N_10  and  C_11
REMARK    4  A    between atoms: C_14  and  O_15
REMARK    5  A    between atoms: O_15  and  C_16
REMARK    6  A    between atoms: C_21  and  C_22
REMARK                            x       y       z     vdW  Elec       q    Type
REMARK                         _______ _______ _______ _____ _____    ______ ____
ROOT
ATOM      1  C   UNL     1       1.173   9.483  19.368  0.00  0.00    +0.000 A 
ATOM      2  C   UNL     1       1.218   8.707  20.535  0.00  0.00    +0.000 A 
ATOM      3  C   UNL     1       1.911   7.487  20.566  0.00  0.00    +0.000 A 
ATOM      4  C   UNL     1       2.553   7.011  19.421  0.00  0.00    +0.000 A 
ATOM      5  C   UNL     1       2.517   7.778  18.255  0.00  0.00    +0.000 A 
ATOM      6  C   UNL     1       1.820   8.991  18.226  0.00  0.00    +0.000 A 
ENDROOT
BRANCH   1  14
ATOM      7  C   UNL     1      -4.073  12.296  19.199  0.00  0.00    +0.000 A 
ATOM      8  C   UNL     1      -5.111  11.973  18.305  0.00  0.00    +0.000 A 
ATOM      9  C   UNL     1      -4.926  11.051  17.270  0.00  0.00    +0.000 A 
ATOM     10  C   UNL     1      -3.703  10.409  17.081  0.00  0.00    +0.000 A 
ATOM     11  C   UNL     1      -2.680  10.747  17.968  0.00  0.00    +0.000 A 
ATOM     12  N   UNL     1      -1.384  10.325  18.062  0.00  0.00    +0.000 N 
ATOM     13  C   UNL     1      -0.784  10.959  19.117  0.00  0.00    +0.000 A 
ATOM     14  N   UNL     1       0.521  10.738  19.394  0.00  0.00    +0.000 N 
ATOM     15  N   UNL     1      -1.614  11.808  19.680  0.00  0.00    +0.000 NA
ATOM     16  C   UNL     1      -2.815  11.673  19.002  0.00  0.00    +0.000 A 
ATOM     17  H   UNL     1      -0.919   9.664  17.461  0.00  0.00    +0.000 HD
ATOM     18  H   UNL     1       0.937  11.376  20.067  0.00  0.00    +0.000 HD
BRANCH   7  20
ATOM     19  C   UNL     1      -4.864  12.735  21.388  0.00  0.00    +0.000 C 
ATOM     20  O   UNL     1      -4.204  13.209  20.218  0.00  0.00    +0.000 OA
ENDBRANCH   7  20
ENDBRANCH   1  14
BRANCH   4  21
ATOM     21  O   UNL     1       3.263   5.832  19.536  0.00  0.00    +0.000 OA
BRANCH  21  22
ATOM     22  C   UNL     1       2.613   4.643  19.217  0.00  0.00    +0.000 A 
ATOM     23  N   UNL     1       1.443   4.377  19.851  0.00  0.00    +0.000 NA
ATOM     24  C   UNL     1       0.792   3.249  19.513  0.00  0.00    +0.000 A 
ATOM     25  C   UNL     1       1.262   2.348  18.582  0.00  0.00    +0.000 A 
ATOM     26  C   UNL     1       2.486   2.611  17.976  0.00  0.00    +0.000 A 
ATOM     27  C   UNL     1       3.204   3.778  18.288  0.00  0.00    +0.000 A 
BRANCH  27  28
ATOM     28  C   UNL     1       4.538   4.060  17.618  0.00  0.00    +0.000 C 
ATOM     29  C   UNL     1       5.639   4.392  18.641  0.00  0.00    +0.000 C 
ATOM     30  C   UNL     1       6.938   4.748  17.930  0.00  0.00    +0.000 C 
ATOM     31  O   UNL     1       6.735   5.840  17.036  0.00  0.00    +0.000 OA
ATOM     32  C   UNL     1       5.806   5.523  16.001  0.00  0.00    +0.000 C 
ATOM     33  C   UNL     1       4.436   5.200  16.585  0.00  0.00    +0.000 C 
ENDBRANCH  27  28
ENDBRANCH  21  22
ENDBRANCH   4  21
TORSDOF 5
ENDMDL
MODEL 8
REMARK VINA RESULT:      -8.9      2.731      3.637
REMARK  Name = 
REMARK  6 active torsions:
REMARK  status: ('A' for Active; 'I' for Inactive)
REMARK    1  A    between atoms: C_1  and  O_2
REMARK    2  A    between atoms: O_2  and  C_3
REMARK    3  A    between atoms: N_10  and  C_11
REMARK    4  A    between atoms: C_14  and  O_15
REMARK    5  A    between atoms: O_15  and  C_16
REMARK    6  A    between atoms: C_21  and  C_22
REMARK                            x       y       z     vdW  Elec       q    Type
REMARK                         _______ _______ _______ _____ _____    ______ ____
ROOT
ATOM      1  C   UNL     1       0.975   9.574  18.719  0.00  0.00    +0.000 A 
ATOM      2  C   UNL     1       1.823   9.039  17.739  0.00  0.00    +0.000 A 
ATOM      3  C   UNL     1       2.631   7.924  18.012  0.00  0.00    +0.000 A 
ATOM      4  C   UNL     1       2.620   7.337  19.279  0.00  0.00    +0.000 A 
ATOM      5  C   UNL     1       1.776   7.861  20.261  0.00  0.00    +0.000 A 
ATOM      6  C   UNL     1       0.977   8.977  19.987  0.00  0.00    +0.000 A 
ENDROOT
BRANCH   1  14
ATOM      7  C   UNL     1      -0.061  15.395  19.430  0.00  0.00    +0.000 A 
ATOM      8  C   UNL     1       0.015  16.063  20.666  0.00  0.00    +0.000 A 
ATOM      9  C   UNL     1       0.194  15.366  21.866  0.00  0.00    +0.000 A 
ATOM     10  C   UNL     1       0.308  13.977  21.886  0.00  0.00    +0.000 A 
ATOM     11  C   UNL     1       0.220  13.327  20.655  0.00  0.00    +0.000 A 
ATOM     12  N   UNL     1       0.280  12.004  20.320  0.00  0.00    +0.000 N 
ATOM     13  C   UNL     1       0.143  11.880  18.963  0.00  0.00    +0.000 A 
ATOM     14  N   UNL     1       0.128  10.657  18.387  0.00  0.00    +0.000 N 
ATOM     15  N   UNL     1      -0.051  13.056  18.409  0.00  0.00    +0.000 NA
ATOM     16  C   UNL     1       0.024  13.980  19.438  0.00  0.00    +0.000 A 
ATOM     17  H   UNL     1       0.394  11.226  20.950  0.00  0.00    +0.000 HD
ATOM     18  H   UNL     1      -0.158  10.639  17.412  0.00  0.00    +0.000 HD
BRANCH   7  20
ATOM     19  C   UNL     1      -0.889  17.310  18.308  0.00  0.00    +0.000 C 
ATOM     20  O   UNL     1      -0.255  16.037  18.230  0.00  0.00    +0.000 OA
ENDBRANCH   7  20
ENDBRANCH   1  14
BRANCH   4  21
ATOM     21  O   UNL     1       3.395   6.210  19.463  0.00  0.00    +0.000 OA
BRANCH  21  22
ATOM     22  C   UNL     1       2.942   5.010  18.923  0.00  0.00    +0.000 A 
ATOM     23  N   UNL     1       1.761   4.520  19.379  0.00  0.00    +0.000 NA
ATOM     24  C   UNL     1       1.301   3.382  18.828  0.00  0.00    +0.000 A 
ATOM     25  C   UNL     1       1.975   2.684  17.848  0.00  0.00    +0.000 A 
ATOM     26  C   UNL     1       3.207   3.173  17.426  0.00  0.00    +0.000 A 
ATOM     27  C   UNL     1       3.730   4.360  17.964  0.00  0.00    +0.000 A 
BRANCH  27  28
ATOM     28  C   UNL     1       5.074   4.889  17.493  0.00  0.00    +0.000 C 
ATOM     29  C   UNL     1       5.450   4.351  16.100  0.00  0.00    +0.000 C 
ATOM     30  C   UNL     1       6.836   4.836  15.698  0.00  0.00    +0.000 C 
ATOM     31  O   UNL     1       7.804   4.445  16.669  0.00  0.00    +0.000 OA
ATOM     32  C   UNL     1       7.551   5.026  17.947  0.00  0.00    +0.000 C 
ATOM     33  C   UNL     1       6.203   4.568  18.491  0.00  0.00    +0.000 C 
ENDBRANCH  27  28
ENDBRANCH  21  22
ENDBRANCH   4  21
TORSDOF 5
ENDMDL
MODEL 9
REMARK VINA RESULT:      -8.7      2.666      3.490
REMARK  Name = 
REMARK  6 active torsions:
REMARK  status: ('A' for Active; 'I' for Inactive)
REMARK    1  A    between atoms: C_1  and  O_2
REMARK    2  A    between atoms: O_2  and  C_3
REMARK    3  A    between atoms: N_10  and  C_11
REMARK    4  A    between atoms: C_14  and  O_15
REMARK    5  A    between atoms: O_15  and  C_16
REMARK    6  A    between atoms: C_21  and  C_22
REMARK                            x       y       z     vdW  Elec       q    Type
REMARK                         _______ _______ _______ _____ _____    ______ ____
ROOT
ATOM      1  C   UNL     1       1.273   9.494  18.727  0.00  0.00    +0.000 A 
ATOM      2  C   UNL     1       1.196   8.850  19.971  0.00  0.00    +0.000 A 
ATOM      3  C   UNL     1       1.900   7.661  20.215  0.00  0.00    +0.000 A 
ATOM      4  C   UNL     1       2.677   7.082  19.209  0.00  0.00    +0.000 A 
ATOM      5  C   UNL     1       2.762   7.717  17.968  0.00  0.00    +0.000 A 
ATOM      6  C   UNL     1       2.053   8.899  17.727  0.00  0.00    +0.000 A 
ENDROOT
BRANCH   1  14
ATOM      7  C   UNL     1      -0.385  14.617  21.269  0.00  0.00    +0.000 A 
ATOM      8  C   UNL     1      -0.939  14.713  22.559  0.00  0.00    +0.000 A 
ATOM      9  C   UNL     1      -1.288  13.575  23.293  0.00  0.00    +0.000 A 
ATOM     10  C   UNL     1      -1.098  12.294  22.777  0.00  0.00    +0.000 A 
ATOM     11  C   UNL     1      -0.559  12.214  21.493  0.00  0.00    +0.000 A 
ATOM     12  N   UNL     1      -0.257  11.144  20.700  0.00  0.00    +0.000 N 
ATOM     13  C   UNL     1       0.261  11.598  19.516  0.00  0.00    +0.000 A 
ATOM     14  N   UNL     1       0.602  10.725  18.541  0.00  0.00    +0.000 N 
ATOM     15  N   UNL     1       0.264  12.911  19.485  0.00  0.00    +0.000 NA
ATOM     16  C   UNL     1      -0.213  13.322  20.719  0.00  0.00    +0.000 A 
ATOM     17  H   UNL     1      -0.394  10.171  20.921  0.00  0.00    +0.000 HD
ATOM     18  H   UNL     1       0.803  11.141  17.635  0.00  0.00    +0.000 HD
BRANCH   7  20
ATOM     19  C   UNL     1      -0.418  16.975  21.039  0.00  0.00    +0.000 C 
ATOM     20  O   UNL     1      -0.045  15.709  20.505  0.00  0.00    +0.000 OA
ENDBRANCH   7  20
ENDBRANCH   1  14
BRANCH   4  21
ATOM     21  O   UNL     1       3.388   5.943  19.533  0.00  0.00    +0.000 OA
BRANCH  21  22
ATOM     22  C   UNL     1       2.975   4.735  18.980  0.00  0.00    +0.000 A 
ATOM     23  N   UNL     1       1.831   4.182  19.458  0.00  0.00    +0.000 NA
ATOM     24  C   UNL     1       1.407   3.036  18.895  0.00  0.00    +0.000 A 
ATOM     25  C   UNL     1       2.084   2.389  17.883  0.00  0.00    +0.000 A 
ATOM     26  C   UNL     1       3.280   2.943  17.437  0.00  0.00    +0.000 A 
ATOM     27  C   UNL     1       3.764   4.142  17.986  0.00  0.00    +0.000 A 
BRANCH  27  28
ATOM     28  C   UNL     1       5.067   4.742  17.489  0.00  0.00    +0.000 C 
ATOM     29  C   UNL     1       5.486   4.165  16.124  0.00  0.00    +0.000 C 
ATOM     30  C   UNL     1       6.835   4.728  15.698  0.00  0.00    +0.000 C 
ATOM     31  O   UNL     1       7.825   4.454  16.687  0.00  0.00    +0.000 OA
ATOM     32  C   UNL     1       7.528   5.077  17.935  0.00  0.00    +0.000 C 
ATOM     33  C   UNL     1       6.214   4.551  18.501  0.00  0.00    +0.000 C 
ENDBRANCH  27  28
ENDBRANCH  21  22
ENDBRANCH   4  21
TORSDOF 5
ENDMDL
