MODEL 1
REMARK VINA RESULT:      -8.0      0.000      0.000
REMARK  Name = 
REMARK  6 active torsions:
REMARK  status: ('A' for Active; 'I' for Inactive)
REMARK    1  A    between atoms: C_1  and  O_2
REMARK    2  A    between atoms: O_2  and  C_3
REMARK    3  A    between atoms: C_8  and  C_9
REMARK    4  A    between atoms: C_11  and  C_12
REMARK    5  A    between atoms: N_14  and  C_15
REMARK    6  A    between atoms: C_15  and  C_16
REMARK                            x       y       z     vdW  Elec       q    Type
REMARK                         _______ _______ _______ _____ _____    ______ ____
ROOT
ATOM      1  C   UNL     1       4.535   4.979  18.996  0.00  0.00    +0.000 A 
ATOM      2  C   UNL     1       4.896   6.069  18.262  0.00  0.00    +0.000 A 
ATOM      3  C   UNL     1       6.316   6.043  18.237  0.00  0.00    +0.000 A 
ATOM      4  N   UNL     1       6.786   5.048  19.003  0.00  0.00    +0.000 NA
ATOM      5  O   UNL     1       5.666   4.387  19.484  0.00  0.00    +0.000 OA
ENDROOT
BRANCH   1  11
ATOM      6  C   UNL     1       2.832   3.132  18.770  0.00  0.00    +0.000 A 
ATOM      7  C   UNL     1       1.587   2.616  19.128  0.00  0.00    +0.000 A 
ATOM      8  C   UNL     1       0.754   3.286  19.997  0.00  0.00    +0.000 A 
ATOM      9  C   UNL     1       1.169   4.470  20.588  0.00  0.00    +0.000 A 
ATOM     10  C   UNL     1       2.430   4.989  20.276  0.00  0.00    +0.000 A 
ATOM     11  C   UNL     1       3.269   4.345  19.349  0.00  0.00    +0.000 A 
BRANCH   6  13
ATOM     12  C   UNL     1       3.967   1.153  18.225  0.00  0.00    +0.000 C 
ATOM     13  O   UNL     1       3.607   2.484  17.836  0.00  0.00    +0.000 OA
ENDBRANCH   6  13
ENDBRANCH   1  11
BRANCH   3  14
ATOM     14  C   UNL     1       7.195   6.914  17.459  0.00  0.00    +0.000 C 
ATOM     15  O   UNL     1       7.609   6.584  16.350  0.00  0.00    +0.000 OA
ATOM     16  N   UNL     1       7.549   8.101  18.067  0.00  0.00    +0.000 N 
ATOM     17  H   UNL     1       7.164   8.303  18.986  0.00  0.00    +0.000 HD
BRANCH  16  18
ATOM     18  C   UNL     1       8.408   9.047  17.407  0.00  0.00    +0.000 C 
BRANCH  18  19
ATOM     19  C   UNL     1       8.800  10.177  18.325  0.00  0.00    +0.000 A 
ATOM     20  C   UNL     1       8.857  11.496  17.852  0.00  0.00    +0.000 A 
ATOM     21  C   UNL     1       9.287  12.530  18.687  0.00  0.00    +0.000 A 
ATOM     22  C   UNL     1       9.663  12.251  20.000  0.00  0.00    +0.000 A 
ATOM     23 CL   UNL     1      10.237  13.519  21.012  0.00  0.00    +0.000 Cl
ATOM     24  C   UNL     1       9.591  10.952  20.493  0.00  0.00    +0.000 A 
ATOM     25  C   UNL     1       9.162   9.918  19.656  0.00  0.00    +0.000 A 
ENDBRANCH  18  19
ENDBRANCH  16  18
ENDBRANCH   3  14
TORSDOF 5
ENDMDL
MODEL 2
REMARK VINA RESULT:      -7.7      5.580      7.887
REMARK  Name = 
REMARK  6 active torsions:
REMARK  status: ('A' for Active; 'I' for Inactive)
REMARK    1  A    between atoms: C_1  and  O_2
REMARK    2  A    between atoms: O_2  and  C_3
REMARK    3  A    between atoms: C_8  and  C_9
REMARK    4  A    between atoms: C_11  and  C_12
REMARK    5  A    between atoms: N_14  and  C_15
REMARK    6  A    between atoms: C_15  and  C_16
REMARK                            x       y       z     vdW  Elec       q    Type
REMARK                         _______ _______ _______ _____ _____    ______ ____
ROOT
ATOM      1  C   UNL     1       3.964   5.823  18.161  0.00  0.00    +0.000 A 
ATOM      2  C   UNL     1       3.370   7.043  18.299  0.00  0.00    +0.000 A 
ATOM      3  C   UNL     1       2.472   6.894  19.388  0.00  0.00    +0.000 A 
ATOM      4  N   UNL     1       2.451   5.624  19.817  0.00  0.00    +0.000 NA
ATOM      5  O   UNL     1       3.383   4.953  19.040  0.00  0.00    +0.000 OA
ENDROOT
BRANCH   1  11
ATOM      6  C   UNL     1       6.301   4.933  17.832  0.00  0.00    +0.000 A 
ATOM      7  C   UNL     1       7.281   4.466  16.956  0.00  0.00    +0.000 A 
ATOM      8  C   UNL     1       7.052   4.382  15.600  0.00  0.00    +0.000 A 
ATOM      9  C   UNL     1       5.807   4.706  15.082  0.00  0.00    +0.000 A 
ATOM     10  C   UNL     1       4.794   5.139  15.944  0.00  0.00    +0.000 A 
ATOM     11  C   UNL     1       5.030   5.283  17.323  0.00  0.00    +0.000 A 
BRANCH   6  13
ATOM     12  C   UNL     1       7.819   5.773  19.411  0.00  0.00    +0.000 C 
ATOM     13  O   UNL     1       6.585   5.086  19.170  0.00  0.00    +0.000 OA
ENDBRANCH   6  13
ENDBRANCH   1  11
BRANCH   3  14
ATOM     14  C   UNL     1       1.696   7.951  20.035  0.00  0.00    +0.000 C 
ATOM     15  O   UNL     1       1.249   7.816  21.171  0.00  0.00    +0.000 OA
ATOM     16  N   UNL     1       1.477   9.081  19.274  0.00  0.00    +0.000 N 
ATOM     17  H   UNL     1       1.882   9.117  18.341  0.00  0.00    +0.000 HD
BRANCH  16  18
ATOM     18  C   UNL     1       0.730  10.195  19.793  0.00  0.00    +0.000 C 
BRANCH  18  19
ATOM     19  C   UNL     1      -0.529  10.439  19.000  0.00  0.00    +0.000 A 
ATOM     20  C   UNL     1      -0.768   9.744  17.807  0.00  0.00    +0.000 A 
ATOM     21  C   UNL     1      -1.903  10.023  17.040  0.00  0.00    +0.000 A 
ATOM     22  C   UNL     1      -2.803  10.999  17.463  0.00  0.00    +0.000 A 
ATOM     23 CL   UNL     1      -4.175  11.374  16.494  0.00  0.00    +0.000 Cl
ATOM     24  C   UNL     1      -2.593  11.683  18.657  0.00  0.00    +0.000 A 
ATOM     25  C   UNL     1      -1.457  11.404  19.422  0.00  0.00    +0.000 A 
ENDBRANCH  18  19
ENDBRANCH  16  18
ENDBRANCH   3  14
TORSDOF 5
ENDMDL
MODEL 3
REMARK VINA RESULT:      -7.6      1.004      2.133
REMARK  Name = 
REMARK  6 active torsions:
REMARK  status: ('A' for Active; 'I' for Inactive)
REMARK    1  A    between atoms: C_1  and  O_2
REMARK    2  A    between atoms: O_2  and  C_3
REMARK    3  A    between atoms: C_8  and  C_9
REMARK    4  A    between atoms: C_11  and  C_12
REMARK    5  A    between atoms: N_14  and  C_15
REMARK    6  A    between atoms: C_15  and  C_16
REMARK                            x       y       z     vdW  Elec       q    Type
REMARK                         _______ _______ _______ _____ _____    ______ ____
ROOT
ATOM      1  C   UNL     1       4.923   4.801  18.799  0.00  0.00    +0.000 A 
ATOM      2  C   UNL     1       5.231   5.769  17.889  0.00  0.00    +0.000 A 
ATOM      3  C   UNL     1       6.552   6.174  18.215  0.00  0.00    +0.000 A 
ATOM      4  N   UNL     1       6.978   5.556  19.326  0.00  0.00    +0.000 NA
ATOM      5  O   UNL     1       5.951   4.701  19.694  0.00  0.00    +0.000 OA
ENDROOT
BRANCH   1  11
ATOM      6  C   UNL     1       2.738   4.186  19.899  0.00  0.00    +0.000 A 
ATOM      7  C   UNL     1       1.719   3.250  20.072  0.00  0.00    +0.000 A 
ATOM      8  C   UNL     1       1.743   2.033  19.427  0.00  0.00    +0.000 A 
ATOM      9  C   UNL     1       2.763   1.737  18.534  0.00  0.00    +0.000 A 
ATOM     10  C   UNL     1       3.776   2.676  18.311  0.00  0.00    +0.000 A 
ATOM     11  C   UNL     1       3.794   3.899  19.005  0.00  0.00    +0.000 A 
BRANCH   6  13
ATOM     12  C   UNL     1       2.072   6.435  19.943  0.00  0.00    +0.000 C 
ATOM     13  O   UNL     1       2.731   5.358  20.620  0.00  0.00    +0.000 OA
ENDBRANCH   6  13
ENDBRANCH   1  11
BRANCH   3  14
ATOM     14  C   UNL     1       7.403   7.087  17.453  0.00  0.00    +0.000 C 
ATOM     15  O   UNL     1       7.847   6.781  16.350  0.00  0.00    +0.000 OA
ATOM     16  N   UNL     1       7.692   8.287  18.070  0.00  0.00    +0.000 N 
ATOM     17  H   UNL     1       7.285   8.468  18.984  0.00  0.00    +0.000 HD
BRANCH  16  18
ATOM     18  C   UNL     1       8.516   9.275  17.427  0.00  0.00    +0.000 C 
BRANCH  18  19
ATOM     19  C   UNL     1       8.906  10.379  18.376  0.00  0.00    +0.000 A 
ATOM     20  C   UNL     1       9.256  10.091  19.702  0.00  0.00    +0.000 A 
ATOM     21  C   UNL     1       9.550  11.124  20.597  0.00  0.00    +0.000 A 
ATOM     22  C   UNL     1       9.497  12.449  20.170  0.00  0.00    +0.000 A 
ATOM     23 CL   UNL     1       9.814  13.720  21.286  0.00  0.00    +0.000 Cl
ATOM     24  C   UNL     1       9.174  12.752  18.850  0.00  0.00    +0.000 A 
ATOM     25  C   UNL     1       8.879  11.719  17.956  0.00  0.00    +0.000 A 
ENDBRANCH  18  19
ENDBRANCH  16  18
ENDBRANCH   3  14
TORSDOF 5
ENDMDL
MODEL 4
REMARK VINA RESULT:      -7.6      0.964      1.871
REMARK  Name = 
REMARK  6 active torsions:
REMARK  status: ('A' for Active; 'I' for Inactive)
REMARK    1  A    between atoms: C_1  and  O_2
REMARK    2  A    between atoms: O_2  and  C_3
REMARK    3  A    between atoms: C_8  and  C_9
REMARK    4  A    between atoms: C_11  and  C_12
REMARK    5  A    between atoms: N_14  and  C_15
REMARK    6  A    between atoms: C_15  and  C_16
REMARK                            x       y       z     vdW  Elec       q    Type
REMARK                         _______ _______ _______ _____ _____    ______ ____
ROOT
ATOM      1  C   UNL     1       4.892   4.758  18.727  0.00  0.00    +0.000 A 
ATOM      2  C   UNL     1       5.204   5.762  17.860  0.00  0.00    +0.000 A 
ATOM      3  C   UNL     1       6.552   6.097  18.154  0.00  0.00    +0.000 A 
ATOM      4  N   UNL     1       6.995   5.403  19.212  0.00  0.00    +0.000 NA
ATOM      5  O   UNL     1       5.948   4.568  19.574  0.00  0.00    +0.000 OA
ENDROOT
BRANCH   1  11
ATOM      6  C   UNL     1       2.523   4.349  19.490  0.00  0.00    +0.000 A 
ATOM      7  C   UNL     1       1.481   3.445  19.692  0.00  0.00    +0.000 A 
ATOM      8  C   UNL     1       1.624   2.106  19.402  0.00  0.00    +0.000 A 
ATOM      9  C   UNL     1       2.801   1.637  18.838  0.00  0.00    +0.000 A 
ATOM     10  C   UNL     1       3.848   2.531  18.587  0.00  0.00    +0.000 A 
ATOM     11  C   UNL     1       3.736   3.890  18.930  0.00  0.00    +0.000 A 
BRANCH   6  13
ATOM     12  C   UNL     1       1.414   5.853  20.909  0.00  0.00    +0.000 C 
ATOM     13  O   UNL     1       2.380   5.665  19.868  0.00  0.00    +0.000 OA
ENDBRANCH   6  13
ENDBRANCH   1  11
BRANCH   3  14
ATOM     14  C   UNL     1       7.409   7.018  17.408  0.00  0.00    +0.000 C 
ATOM     15  O   UNL     1       7.861   6.724  16.305  0.00  0.00    +0.000 OA
ATOM     16  N   UNL     1       7.696   8.210  18.041  0.00  0.00    +0.000 N 
ATOM     17  H   UNL     1       7.283   8.381  18.955  0.00  0.00    +0.000 HD
BRANCH  16  18
ATOM     18  C   UNL     1       8.527   9.204  17.415  0.00  0.00    +0.000 C 
BRANCH  18  19
ATOM     19  C   UNL     1       8.849  10.335  18.358  0.00  0.00    +0.000 A 
ATOM     20  C   UNL     1       8.759  11.668  17.932  0.00  0.00    +0.000 A 
ATOM     21  C   UNL     1       9.124  12.710  18.788  0.00  0.00    +0.000 A 
ATOM     22  C   UNL     1       9.580  12.426  20.074  0.00  0.00    +0.000 A 
ATOM     23 CL   UNL     1      10.073  13.709  21.109  0.00  0.00    +0.000 Cl
ATOM     24  C   UNL     1       9.653  11.110  20.521  0.00  0.00    +0.000 A 
ATOM     25  C   UNL     1       9.289  10.068  19.664  0.00  0.00    +0.000 A 
ENDBRANCH  18  19
ENDBRANCH  16  18
ENDBRANCH   3  14
TORSDOF 5
ENDMDL
MODEL 5
REMARK VINA RESULT:      -7.5      3.514      9.087
REMARK  Name = 
REMARK  6 active torsions:
REMARK  status: ('A' for Active; 'I' for Inactive)
REMARK    1  A    between atoms: C_1  and  O_2
REMARK    2  A    between atoms: O_2  and  C_3
REMARK    3  A    between atoms: C_8  and  C_9
REMARK    4  A    between atoms: C_11  and  C_12
REMARK    5  A    between atoms: N_14  and  C_15
REMARK    6  A    between atoms: C_15  and  C_16
REMARK                            x       y       z     vdW  Elec       q    Type
REMARK                         _______ _______ _______ _____ _____    ______ ____
ROOT
ATOM      1  C   UNL     1       8.917   9.886  18.535  0.00  0.00    +0.000 A 
ATOM      2  C   UNL     1       8.760   8.537  18.649  0.00  0.00    +0.000 A 
ATOM      3  C   UNL     1       7.692   8.215  17.770  0.00  0.00    +0.000 A 
ATOM      4  N   UNL     1       7.167   9.326  17.235  0.00  0.00    +0.000 NA
ATOM      5  O   UNL     1       7.933  10.373  17.722  0.00  0.00    +0.000 OA
ENDROOT
BRANCH   1  11
ATOM      6  C   UNL     1       9.813  11.332  20.398  0.00  0.00    +0.000 A 
ATOM      7  C   UNL     1      10.726  12.302  20.813  0.00  0.00    +0.000 A 
ATOM      8  C   UNL     1      11.644  12.846  19.942  0.00  0.00    +0.000 A 
ATOM      9  C   UNL     1      11.719  12.389  18.634  0.00  0.00    +0.000 A 
ATOM     10  C   UNL     1      10.841  11.389  18.203  0.00  0.00    +0.000 A 
ATOM     11  C   UNL     1       9.863  10.863  19.066  0.00  0.00    +0.000 A 
BRANCH   6  13
ATOM     12  C   UNL     1       8.436  11.849  22.225  0.00  0.00    +0.000 C 
ATOM     13  O   UNL     1       8.853  10.868  21.268  0.00  0.00    +0.000 OA
ENDBRANCH   6  13
ENDBRANCH   1  11
BRANCH   3  14
ATOM     14  C   UNL     1       7.223   6.877  17.413  0.00  0.00    +0.000 C 
ATOM     15  O   UNL     1       7.780   5.867  17.835  0.00  0.00    +0.000 OA
ATOM     16  N   UNL     1       6.146   6.833  16.553  0.00  0.00    +0.000 N 
ATOM     17  H   UNL     1       5.738   7.713  16.247  0.00  0.00    +0.000 HD
BRANCH  16  18
ATOM     18  C   UNL     1       5.586   5.579  16.124  0.00  0.00    +0.000 C 
BRANCH  18  19
ATOM     19  C   UNL     1       4.401   5.181  16.966  0.00  0.00    +0.000 A 
ATOM     20  C   UNL     1       3.717   6.134  17.734  0.00  0.00    +0.000 A 
ATOM     21  C   UNL     1       2.662   5.749  18.566  0.00  0.00    +0.000 A 
ATOM     22  C   UNL     1       2.285   4.409  18.633  0.00  0.00    +0.000 A 
ATOM     23 CL   UNL     1       1.017   3.930  19.694  0.00  0.00    +0.000 Cl
ATOM     24  C   UNL     1       2.938   3.453  17.861  0.00  0.00    +0.000 A 
ATOM     25  C   UNL     1       3.994   3.839  17.030  0.00  0.00    +0.000 A 
ENDBRANCH  18  19
ENDBRANCH  16  18
ENDBRANCH   3  14
TORSDOF 5
ENDMDL
MODEL 6
REMARK VINA RESULT:      -7.5      4.499      7.082
REMARK  Name = 
REMARK  6 active torsions:
REMARK  status: ('A' for Active; 'I' for Inactive)
REMARK    1  A    between atoms: C_1  and  O_2
REMARK    2  A    between atoms: O_2  and  C_3
REMARK    3  A    between atoms: C_8  and  C_9
REMARK    4  A    between atoms: C_11  and  C_12
REMARK    5  A    between atoms: N_14  and  C_15
REMARK    6  A    between atoms: C_15  and  C_16
REMARK                            x       y       z     vdW  Elec       q    Type
REMARK                         _______ _______ _______ _____ _____    ______ ____
ROOT
ATOM      1  C   UNL     1       4.494   4.815  17.660  0.00  0.00    +0.000 A 
ATOM      2  C   UNL     1       3.443   5.609  18.011  0.00  0.00    +0.000 A 
ATOM      3  C   UNL     1       3.080   5.185  19.316  0.00  0.00    +0.000 A 
ATOM      4  N   UNL     1       3.807   4.123  19.690  0.00  0.00    +0.000 NA
ATOM      5  O   UNL     1       4.688   3.888  18.646  0.00  0.00    +0.000 OA
ENDROOT
BRANCH   1  11
ATOM      6  C   UNL     1       6.717   5.275  16.560  0.00  0.00    +0.000 A 
ATOM      7  C   UNL     1       7.508   5.214  15.414  0.00  0.00    +0.000 A 
ATOM      8  C   UNL     1       7.025   4.697  14.232  0.00  0.00    +0.000 A 
ATOM      9  C   UNL     1       5.745   4.164  14.177  0.00  0.00    +0.000 A 
ATOM     10  C   UNL     1       4.945   4.176  15.324  0.00  0.00    +0.000 A 
ATOM     11  C   UNL     1       5.405   4.751  16.522  0.00  0.00    +0.000 A 
BRANCH   6  13
ATOM     12  C   UNL     1       7.482   7.268  17.533  0.00  0.00    +0.000 C 
ATOM     13  O   UNL     1       7.198   5.874  17.703  0.00  0.00    +0.000 OA
ENDBRANCH   6  13
ENDBRANCH   1  11
BRANCH   3  14
ATOM     14  C   UNL     1       2.100   5.814  20.202  0.00  0.00    +0.000 C 
ATOM     15  O   UNL     1       1.244   5.154  20.784  0.00  0.00    +0.000 OA
ATOM     16  N   UNL     1       2.187   7.187  20.306  0.00  0.00    +0.000 N 
ATOM     17  H   UNL     1       2.925   7.663  19.792  0.00  0.00    +0.000 HD
BRANCH  16  18
ATOM     18  C   UNL     1       1.283   7.927  21.145  0.00  0.00    +0.000 C 
BRANCH  18  19
ATOM     19  C   UNL     1       0.799   9.185  20.470  0.00  0.00    +0.000 A 
ATOM     20  C   UNL     1      -0.034  10.085  21.148  0.00  0.00    +0.000 A 
ATOM     21  C   UNL     1      -0.536  11.215  20.496  0.00  0.00    +0.000 A 
ATOM     22  C   UNL     1      -0.206  11.450  19.162  0.00  0.00    +0.000 A 
ATOM     23 CL   UNL     1      -0.863  12.817  18.348  0.00  0.00    +0.000 Cl
ATOM     24  C   UNL     1       0.638  10.579  18.480  0.00  0.00    +0.000 A 
ATOM     25  C   UNL     1       1.139   9.449  19.133  0.00  0.00    +0.000 A 
ENDBRANCH  18  19
ENDBRANCH  16  18
ENDBRANCH   3  14
TORSDOF 5
ENDMDL
MODEL 7
REMARK VINA RESULT:      -7.4      4.512      7.092
REMARK  Name = 
REMARK  6 active torsions:
REMARK  status: ('A' for Active; 'I' for Inactive)
REMARK    1  A    between atoms: C_1  and  O_2
REMARK    2  A    between atoms: O_2  and  C_3
REMARK    3  A    between atoms: C_8  and  C_9
REMARK    4  A    between atoms: C_11  and  C_12
REMARK    5  A    between atoms: N_14  and  C_15
REMARK    6  A    between atoms: C_15  and  C_16
REMARK                            x       y       z     vdW  Elec       q    Type
REMARK                         _______ _______ _______ _____ _____    ______ ____
ROOT
ATOM      1  C   UNL     1       4.408   4.741  17.559  0.00  0.00    +0.000 A 
ATOM      2  C   UNL     1       3.538   5.680  18.026  0.00  0.00    +0.000 A 
ATOM      3  C   UNL     1       2.989   5.117  19.208  0.00  0.00    +0.000 A 
ATOM      4  N   UNL     1       3.428   3.863  19.386  0.00  0.00    +0.000 NA
ATOM      5  O   UNL     1       4.313   3.628  18.346  0.00  0.00    +0.000 OA
ENDROOT
BRANCH   1  11
ATOM      6  C   UNL     1       6.688   5.171  16.567  0.00  0.00    +0.000 A 
ATOM      7  C   UNL     1       7.528   5.114  15.456  0.00  0.00    +0.000 A 
ATOM      8  C   UNL     1       7.086   4.631  14.244  0.00  0.00    +0.000 A 
ATOM      9  C   UNL     1       5.799   4.129  14.121  0.00  0.00    +0.000 A 
ATOM     10  C   UNL     1       4.948   4.137  15.232  0.00  0.00    +0.000 A 
ATOM     11  C   UNL     1       5.368   4.678  16.460  0.00  0.00    +0.000 A 
BRANCH   6  13
ATOM     12  C   UNL     1       7.470   7.121  17.610  0.00  0.00    +0.000 C 
ATOM     13  O   UNL     1       7.131   5.735  17.742  0.00  0.00    +0.000 OA
ENDBRANCH   6  13
ENDBRANCH   1  11
BRANCH   3  14
ATOM     14  C   UNL     1       2.109   5.782  20.169  0.00  0.00    +0.000 C 
ATOM     15  O   UNL     1       1.309   5.149  20.853  0.00  0.00    +0.000 OA
ATOM     16  N   UNL     1       2.219   7.156  20.225  0.00  0.00    +0.000 N 
ATOM     17  H   UNL     1       2.907   7.609  19.627  0.00  0.00    +0.000 HD
BRANCH  16  18
ATOM     18  C   UNL     1       1.412   7.931  21.130  0.00  0.00    +0.000 C 
BRANCH  18  19
ATOM     19  C   UNL     1       0.768   9.104  20.436  0.00  0.00    +0.000 A 
ATOM     20  C   UNL     1       1.164   9.477  19.144  0.00  0.00    +0.000 A 
ATOM     21  C   UNL     1       0.613  10.606  18.532  0.00  0.00    +0.000 A 
ATOM     22  C   UNL     1      -0.338  11.367  19.209  0.00  0.00    +0.000 A 
ATOM     23 CL   UNL     1      -0.980  12.784  18.472  0.00  0.00    +0.000 Cl
ATOM     24  C   UNL     1      -0.760  10.999  20.483  0.00  0.00    +0.000 A 
ATOM     25  C   UNL     1      -0.207   9.870  21.094  0.00  0.00    +0.000 A 
ENDBRANCH  18  19
ENDBRANCH  16  18
ENDBRANCH   3  14
TORSDOF 5
ENDMDL
MODEL 8
REMARK VINA RESULT:      -7.4      5.642      8.018
REMARK  Name = 
REMARK  6 active torsions:
REMARK  status: ('A' for Active; 'I' for Inactive)
REMARK    1  A    between atoms: C_1  and  O_2
REMARK    2  A    between atoms: O_2  and  C_3
REMARK    3  A    between atoms: C_8  and  C_9
REMARK    4  A    between atoms: C_11  and  C_12
REMARK    5  A    between atoms: N_14  and  C_15
REMARK    6  A    between atoms: C_15  and  C_16
REMARK                            x       y       z     vdW  Elec       q    Type
REMARK                         _______ _______ _______ _____ _____    ______ ____
ROOT
ATOM      1  C   UNL     1       3.995   5.917  17.618  0.00  0.00    +0.000 A 
ATOM      2  C   UNL     1       3.444   7.135  17.885  0.00  0.00    +0.000 A 
ATOM      3  C   UNL     1       2.558   6.909  18.972  0.00  0.00    +0.000 A 
ATOM      4  N   UNL     1       2.501   5.605  19.275  0.00  0.00    +0.000 NA
ATOM      5  O   UNL     1       3.398   4.984  18.419  0.00  0.00    +0.000 OA
ENDROOT
BRANCH   1  11
ATOM      6  C   UNL     1       6.403   5.698  16.902  0.00  0.00    +0.000 A 
ATOM      7  C   UNL     1       7.324   5.231  15.964  0.00  0.00    +0.000 A 
ATOM      8  C   UNL     1       6.921   4.554  14.834  0.00  0.00    +0.000 A 
ATOM      9  C   UNL     1       5.578   4.266  14.637  0.00  0.00    +0.000 A 
ATOM     10  C   UNL     1       4.638   4.687  15.582  0.00  0.00    +0.000 A 
ATOM     11  C   UNL     1       5.029   5.428  16.712  0.00  0.00    +0.000 A 
BRANCH   6  13
ATOM     12  C   UNL     1       7.576   7.605  17.599  0.00  0.00    +0.000 C 
ATOM     13  O   UNL     1       6.828   6.444  17.977  0.00  0.00    +0.000 OA
ENDBRANCH   6  13
ENDBRANCH   1  11
BRANCH   3  14
ATOM     14  C   UNL     1       1.828   7.922  19.733  0.00  0.00    +0.000 C 
ATOM     15  O   UNL     1       1.530   7.749  20.911  0.00  0.00    +0.000 OA
ATOM     16  N   UNL     1       1.475   9.056  19.030  0.00  0.00    +0.000 N 
ATOM     17  H   UNL     1       1.760   9.126  18.056  0.00  0.00    +0.000 HD
BRANCH  16  18
ATOM     18  C   UNL     1       0.756  10.129  19.662  0.00  0.00    +0.000 C 
BRANCH  18  19
ATOM     19  C   UNL     1      -0.489  10.493  18.895  0.00  0.00    +0.000 A 
ATOM     20  C   UNL     1      -1.342  11.506  19.355  0.00  0.00    +0.000 A 
ATOM     21  C   UNL     1      -2.531  11.794  18.678  0.00  0.00    +0.000 A 
ATOM     22  C   UNL     1      -2.871  11.071  17.537  0.00  0.00    +0.000 A 
ATOM     23 CL   UNL     1      -4.357  11.395  16.731  0.00  0.00    +0.000 Cl
ATOM     24  C   UNL     1      -2.025  10.077  17.052  0.00  0.00    +0.000 A 
ATOM     25  C   UNL     1      -0.837   9.790  17.731  0.00  0.00    +0.000 A 
ENDBRANCH  18  19
ENDBRANCH  16  18
ENDBRANCH   3  14
TORSDOF 5
ENDMDL
MODEL 9
REMARK VINA RESULT:      -7.4      5.811      7.912
REMARK  Name = 
REMARK  6 active torsions:
REMARK  status: ('A' for Active; 'I' for Inactive)
REMARK    1  A    between atoms: C_1  and  O_2
REMARK    2  A    between atoms: O_2  and  C_3
REMARK    3  A    between atoms: C_8  and  C_9
REMARK    4  A    between atoms: C_11  and  C_12
REMARK    5  A    between atoms: N_14  and  C_15
REMARK    6  A    between atoms: C_15  and  C_16
REMARK                            x       y       z     vdW  Elec       q    Type
REMARK                         _______ _______ _______ _____ _____    ______ ____
ROOT
ATOM      1  C   UNL     1       3.598   6.165  18.407  0.00  0.00    +0.000 A 
ATOM      2  C   UNL     1       2.906   7.338  18.468  0.00  0.00    +0.000 A 
ATOM      3  C   UNL     1       2.206   7.288  19.702  0.00  0.00    +0.000 A 
ATOM      4  N   UNL     1       2.386   6.104  20.304  0.00  0.00    +0.000 NA
ATOM      5  O   UNL     1       3.255   5.399  19.485  0.00  0.00    +0.000 OA
ENDROOT
BRANCH   1  11
ATOM      6  C   UNL     1       4.402   4.326  16.878  0.00  0.00    +0.000 A 
ATOM      7  C   UNL     1       5.405   3.828  16.047  0.00  0.00    +0.000 A 
ATOM      8  C   UNL     1       6.580   4.517  15.845  0.00  0.00    +0.000 A 
ATOM      9  C   UNL     1       6.764   5.766  16.421  0.00  0.00    +0.000 A 
ATOM     10  C   UNL     1       5.757   6.307  17.227  0.00  0.00    +0.000 A 
ATOM     11  C   UNL     1       4.575   5.590  17.488  0.00  0.00    +0.000 A 
BRANCH   6  13
ATOM     12  C   UNL     1       3.551   2.357  17.826  0.00  0.00    +0.000 C 
ATOM     13  O   UNL     1       3.275   3.577  17.129  0.00  0.00    +0.000 OA
ENDBRANCH   6  13
ENDBRANCH   1  11
BRANCH   3  14
ATOM     14  C   UNL     1       1.429   8.367  20.313  0.00  0.00    +0.000 C 
ATOM     15  O   UNL     1       1.079   8.319  21.489  0.00  0.00    +0.000 OA
ATOM     16  N   UNL     1       1.096   9.410  19.475  0.00  0.00    +0.000 N 
ATOM     17  H   UNL     1       1.425   9.377  18.513  0.00  0.00    +0.000 HD
BRANCH  16  18
ATOM     18  C   UNL     1       0.336  10.534  19.951  0.00  0.00    +0.000 C 
BRANCH  18  19
ATOM     19  C   UNL     1      -0.880  10.788  19.097  0.00  0.00    +0.000 A 
ATOM     20  C   UNL     1      -1.876  11.679  19.517  0.00  0.00    +0.000 A 
ATOM     21  C   UNL     1      -3.034  11.859  18.755  0.00  0.00    +0.000 A 
ATOM     22  C   UNL     1      -3.199  11.150  17.567  0.00  0.00    +0.000 A 
ATOM     23 CL   UNL     1      -4.646  11.338  16.654  0.00  0.00    +0.000 Cl
ATOM     24  C   UNL     1      -2.210  10.277  17.123  0.00  0.00    +0.000 A 
ATOM     25  C   UNL     1      -1.054  10.097  17.887  0.00  0.00    +0.000 A 
ENDBRANCH  18  19
ENDBRANCH  16  18
ENDBRANCH   3  14
TORSDOF 5
ENDMDL
