MODEL 1
REMARK VINA RESULT:      -8.5      0.000      0.000
REMARK  Name = 
REMARK  8 active torsions:
REMARK  status: ('A' for Active; 'I' for Inactive)
REMARK    1  A    between atoms: C_1  and  O_2
REMARK    2  A    between atoms: O_2  and  C_3
REMARK    3  A    between atoms: N_16  and  C_17
REMARK    4  A    between atoms: C_17  and  C_18
REMARK    5  A    between atoms: C_18  and  C_19
REMARK    6  A    between atoms: C_20  and  C_21
REMARK    7  A    between atoms: C_23  and  C_24
REMARK    8  A    between atoms: C_26  and  C_27
REMARK                            x       y       z     vdW  Elec       q    Type
REMARK                         _______ _______ _______ _____ _____    ______ ____
ROOT
ATOM      1  C   UNL     1       6.974   5.081  15.174  0.00  0.00    +0.000 A 
ATOM      2  C   UNL     1       5.767   4.667  14.613  0.00  0.00    +0.000 A 
ATOM      3  C   UNL     1       4.646   4.478  15.418  0.00  0.00    +0.000 A 
ATOM      4  C   UNL     1       4.718   4.718  16.795  0.00  0.00    +0.000 A 
ATOM      5  C   UNL     1       5.913   5.165  17.372  0.00  0.00    +0.000 A 
ATOM      6  C   UNL     1       7.045   5.338  16.549  0.00  0.00    +0.000 A 
ATOM      7  C   UNL     1       6.025   5.417  18.858  0.00  0.00    +0.000 C 
ATOM      8  C   UNL     1       4.663   5.472  19.574  0.00  0.00    +0.000 C 
ATOM      9  C   UNL     1       3.709   4.320  19.150  0.00  0.00    +0.000 C 
ATOM     10  C   UNL     1       4.422   2.966  19.456  0.00  0.00    +0.000 C 
ATOM     11  C   UNL     1       3.570   1.752  19.119  0.00  0.00    +0.000 C 
ATOM     12  C   UNL     1       2.269   1.825  19.882  0.00  0.00    +0.000 C 
ATOM     13  C   UNL     1       1.562   3.155  19.657  0.00  0.00    +0.000 C 
ATOM     14  N   UNL     1       2.402   4.348  19.919  0.00  0.00    +0.000 NA
ATOM     15  C   UNL     1       3.509   4.452  17.620  0.00  0.00    +0.000 C 
ATOM     16  O   UNL     1       2.438   4.296  17.031  0.00  0.00    +0.000 OA
ENDROOT
BRANCH   1  18
ATOM     17  C   UNL     1       7.652   5.060  12.910  0.00  0.00    +0.000 C 
ATOM     18  O   UNL     1       7.992   5.242  14.278  0.00  0.00    +0.000 OA
ENDBRANCH   1  18
BRANCH  14  19
ATOM     19  C   UNL     1       1.586   5.580  19.724  0.00  0.00    +0.000 C 
BRANCH  19  20
ATOM     20  C   UNL     1       2.206   6.846  20.371  0.00  0.00    +0.000 C 
BRANCH  20  21
ATOM     21  C   UNL     1       1.603   8.157  19.890  0.00  0.00    +0.000 A 
ATOM     22  C   UNL     1       1.917   8.669  18.605  0.00  0.00    +0.000 A 
ATOM     23  C   UNL     1       2.892   8.010  17.666  0.00  0.00    +0.000 C 
ATOM     24  C   UNL     1       1.261   9.822  18.137  0.00  0.00    +0.000 A 
ATOM     25  C   UNL     1       0.344  10.509  18.932  0.00  0.00    +0.000 A 
ATOM     26  C   UNL     1      -0.323  11.758  18.439  0.00  0.00    +0.000 C 
ATOM     27  C   UNL     1       0.075  10.029  20.216  0.00  0.00    +0.000 A 
ATOM     28  C   UNL     1       0.691   8.866  20.707  0.00  0.00    +0.000 A 
ATOM     29  C   UNL     1       0.352   8.414  22.103  0.00  0.00    +0.000 C 
ENDBRANCH  20  21
ENDBRANCH  19  20
ENDBRANCH  14  19
TORSDOF 4
ENDMDL
MODEL 2
REMARK VINA RESULT:      -8.5      2.448      6.499
REMARK  Name = 
REMARK  8 active torsions:
REMARK  status: ('A' for Active; 'I' for Inactive)
REMARK    1  A    between atoms: C_1  and  O_2
REMARK    2  A    between atoms: O_2  and  C_3
REMARK    3  A    between atoms: N_16  and  C_17
REMARK    4  A    between atoms: C_17  and  C_18
REMARK    5  A    between atoms: C_18  and  C_19
REMARK    6  A    between atoms: C_20  and  C_21
REMARK    7  A    between atoms: C_23  and  C_24
REMARK    8  A    between atoms: C_26  and  C_27
REMARK                            x       y       z     vdW  Elec       q    Type
REMARK                         _______ _______ _______ _____ _____    ______ ____
ROOT
ATOM      1  C   UNL     1       0.773   9.378  20.290  0.00  0.00    +0.000 A 
ATOM      2  C   UNL     1       0.793   8.437  21.318  0.00  0.00    +0.000 A 
ATOM      3  C   UNL     1       1.455   7.223  21.146  0.00  0.00    +0.000 A 
ATOM      4  C   UNL     1       2.119   6.946  19.945  0.00  0.00    +0.000 A 
ATOM      5  C   UNL     1       2.137   7.892  18.914  0.00  0.00    +0.000 A 
ATOM      6  C   UNL     1       1.451   9.111  19.093  0.00  0.00    +0.000 A 
ATOM      7  C   UNL     1       2.832   7.615  17.601  0.00  0.00    +0.000 C 
ATOM      8  C   UNL     1       3.771   6.394  17.652  0.00  0.00    +0.000 C 
ATOM      9  C   UNL     1       3.128   5.165  18.354  0.00  0.00    +0.000 C 
ATOM     10  C   UNL     1       1.817   4.802  17.589  0.00  0.00    +0.000 C 
ATOM     11  C   UNL     1       1.110   3.584  18.159  0.00  0.00    +0.000 C 
ATOM     12  C   UNL     1       2.051   2.403  18.141  0.00  0.00    +0.000 C 
ATOM     13  C   UNL     1       3.369   2.729  18.831  0.00  0.00    +0.000 C 
ATOM     14  N   UNL     1       4.038   3.952  18.329  0.00  0.00    +0.000 NA
ATOM     15  C   UNL     1       2.767   5.616  19.791  0.00  0.00    +0.000 C 
ATOM     16  O   UNL     1       2.922   4.934  20.805  0.00  0.00    +0.000 OA
ENDROOT
BRANCH   1  18
ATOM     17  C   UNL     1       0.861  11.731  20.508  0.00  0.00    +0.000 C 
ATOM     18  O   UNL     1       0.102  10.531  20.587  0.00  0.00    +0.000 OA
ENDBRANCH   1  18
BRANCH  14  19
ATOM     19  C   UNL     1       5.340   4.129  19.035  0.00  0.00    +0.000 C 
BRANCH  19  20
ATOM     20  C   UNL     1       6.552   4.263  18.078  0.00  0.00    +0.000 C 
BRANCH  20  21
ATOM     21  C   UNL     1       7.157   5.658  18.021  0.00  0.00    +0.000 A 
ATOM     22  C   UNL     1       6.925   6.503  16.906  0.00  0.00    +0.000 A 
ATOM     23  C   UNL     1       6.137   6.077  15.694  0.00  0.00    +0.000 C 
ATOM     24  C   UNL     1       7.398   7.827  16.925  0.00  0.00    +0.000 A 
ATOM     25  C   UNL     1       8.141   8.316  17.998  0.00  0.00    +0.000 A 
ATOM     26  C   UNL     1       8.673   9.718  17.995  0.00  0.00    +0.000 C 
ATOM     27  C   UNL     1       8.410   7.466  19.073  0.00  0.00    +0.000 A 
ATOM     28  C   UNL     1       7.931   6.145  19.101  0.00  0.00    +0.000 A 
ATOM     29  C   UNL     1       8.266   5.289  20.293  0.00  0.00    +0.000 C 
ENDBRANCH  20  21
ENDBRANCH  19  20
ENDBRANCH  14  19
TORSDOF 4
ENDMDL
MODEL 3
REMARK VINA RESULT:      -8.4      0.209      1.632
REMARK  Name = 
REMARK  8 active torsions:
REMARK  status: ('A' for Active; 'I' for Inactive)
REMARK    1  A    between atoms: C_1  and  O_2
REMARK    2  A    between atoms: O_2  and  C_3
REMARK    3  A    between atoms: N_16  and  C_17
REMARK    4  A    between atoms: C_17  and  C_18
REMARK    5  A    between atoms: C_18  and  C_19
REMARK    6  A    between atoms: C_20  and  C_21
REMARK    7  A    between atoms: C_23  and  C_24
REMARK    8  A    between atoms: C_26  and  C_27
REMARK                            x       y       z     vdW  Elec       q    Type
REMARK                         _______ _______ _______ _____ _____    ______ ____
ROOT
ATOM      1  C   UNL     1       7.032   5.107  15.120  0.00  0.00    +0.000 A 
ATOM      2  C   UNL     1       5.836   4.645  14.574  0.00  0.00    +0.000 A 
ATOM      3  C   UNL     1       4.716   4.467  15.383  0.00  0.00    +0.000 A 
ATOM      4  C   UNL     1       4.779   4.767  16.749  0.00  0.00    +0.000 A 
ATOM      5  C   UNL     1       5.962   5.263  17.310  0.00  0.00    +0.000 A 
ATOM      6  C   UNL     1       7.093   5.424  16.483  0.00  0.00    +0.000 A 
ATOM      7  C   UNL     1       6.064   5.580  18.783  0.00  0.00    +0.000 C 
ATOM      8  C   UNL     1       4.698   5.637  19.493  0.00  0.00    +0.000 C 
ATOM      9  C   UNL     1       3.769   4.450  19.116  0.00  0.00    +0.000 C 
ATOM     10  C   UNL     1       4.508   3.124  19.481  0.00  0.00    +0.000 C 
ATOM     11  C   UNL     1       3.683   1.881  19.194  0.00  0.00    +0.000 C 
ATOM     12  C   UNL     1       2.377   1.959  19.949  0.00  0.00    +0.000 C 
ATOM     13  C   UNL     1       1.645   3.263  19.665  0.00  0.00    +0.000 C 
ATOM     14  N   UNL     1       2.459   4.484  19.879  0.00  0.00    +0.000 NA
ATOM     15  C   UNL     1       3.572   4.512  17.581  0.00  0.00    +0.000 C 
ATOM     16  O   UNL     1       2.507   4.310  16.996  0.00  0.00    +0.000 OA
ENDROOT
BRANCH   1  18
ATOM     17  C   UNL     1       7.686   5.172  12.849  0.00  0.00    +0.000 C 
ATOM     18  O   UNL     1       8.051   5.251  14.221  0.00  0.00    +0.000 OA
ENDBRANCH   1  18
BRANCH  14  19
ATOM     19  C   UNL     1       1.619   5.690  19.629  0.00  0.00    +0.000 C 
BRANCH  19  20
ATOM     20  C   UNL     1       2.042   6.926  20.464  0.00  0.00    +0.000 C 
BRANCH  20  21
ATOM     21  C   UNL     1       1.476   8.246  19.963  0.00  0.00    +0.000 A 
ATOM     22  C   UNL     1       0.552   8.982  20.749  0.00  0.00    +0.000 A 
ATOM     23  C   UNL     1       0.025   8.500  22.075  0.00  0.00    +0.000 C 
ATOM     24  C   UNL     1       0.129  10.252  20.318  0.00  0.00    +0.000 A 
ATOM     25  C   UNL     1       0.556  10.785  19.103  0.00  0.00    +0.000 A 
ATOM     26  C   UNL     1       0.071  12.125  18.634  0.00  0.00    +0.000 C 
ATOM     27  C   UNL     1       1.426  10.036  18.308  0.00  0.00    +0.000 A 
ATOM     28  C   UNL     1       1.891   8.775  18.718  0.00  0.00    +0.000 A 
ATOM     29  C   UNL     1       2.825   8.026  17.804  0.00  0.00    +0.000 C 
ENDBRANCH  20  21
ENDBRANCH  19  20
ENDBRANCH  14  19
TORSDOF 4
ENDMDL
MODEL 4
REMARK VINA RESULT:      -8.1      2.486      6.687
REMARK  Name = 
REMARK  8 active torsions:
REMARK  status: ('A' for Active; 'I' for Inactive)
REMARK    1  A    between atoms: C_1  and  O_2
REMARK    2  A    between atoms: O_2  and  C_3
REMARK    3  A    between atoms: N_16  and  C_17
REMARK    4  A    between atoms: C_17  and  C_18
REMARK    5  A    between atoms: C_18  and  C_19
REMARK    6  A    between atoms: C_20  and  C_21
REMARK    7  A    between atoms: C_23  and  C_24
REMARK    8  A    between atoms: C_26  and  C_27
REMARK                            x       y       z     vdW  Elec       q    Type
REMARK                         _______ _______ _______ _____ _____    ______ ____
ROOT
ATOM      1  C   UNL     1       0.669   9.379  20.401  0.00  0.00    +0.000 A 
ATOM      2  C   UNL     1       0.722   8.432  21.423  0.00  0.00    +0.000 A 
ATOM      3  C   UNL     1       1.390   7.225  21.229  0.00  0.00    +0.000 A 
ATOM      4  C   UNL     1       2.028   6.960  20.012  0.00  0.00    +0.000 A 
ATOM      5  C   UNL     1       2.012   7.911  18.984  0.00  0.00    +0.000 A 
ATOM      6  C   UNL     1       1.320   9.123  19.187  0.00  0.00    +0.000 A 
ATOM      7  C   UNL     1       2.678   7.646  17.654  0.00  0.00    +0.000 C 
ATOM      8  C   UNL     1       3.628   6.434  17.676  0.00  0.00    +0.000 C 
ATOM      9  C   UNL     1       3.014   5.196  18.387  0.00  0.00    +0.000 C 
ATOM     10  C   UNL     1       1.688   4.825  17.653  0.00  0.00    +0.000 C 
ATOM     11  C   UNL     1       1.005   3.598  18.233  0.00  0.00    +0.000 C 
ATOM     12  C   UNL     1       1.957   2.426  18.187  0.00  0.00    +0.000 C 
ATOM     13  C   UNL     1       3.288   2.760  18.846  0.00  0.00    +0.000 C 
ATOM     14  N   UNL     1       3.934   3.992  18.334  0.00  0.00    +0.000 NA
ATOM     15  C   UNL     1       2.683   5.637  19.835  0.00  0.00    +0.000 C 
ATOM     16  O   UNL     1       2.869   4.952  20.842  0.00  0.00    +0.000 OA
ENDROOT
BRANCH   1  18
ATOM     17  C   UNL     1      -0.498  10.606  22.051  0.00  0.00    +0.000 C 
ATOM     18  O   UNL     1      -0.005  10.523  20.720  0.00  0.00    +0.000 OA
ENDBRANCH   1  18
BRANCH  14  19
ATOM     19  C   UNL     1       5.250   4.177  19.009  0.00  0.00    +0.000 C 
BRANCH  19  20
ATOM     20  C   UNL     1       6.426   4.410  18.025  0.00  0.00    +0.000 C 
BRANCH  20  21
ATOM     21  C   UNL     1       6.998   5.819  18.052  0.00  0.00    +0.000 A 
ATOM     22  C   UNL     1       7.857   6.231  19.103  0.00  0.00    +0.000 A 
ATOM     23  C   UNL     1       8.213   5.354  20.275  0.00  0.00    +0.000 C 
ATOM     24  C   UNL     1       8.464   7.499  19.048  0.00  0.00    +0.000 A 
ATOM     25  C   UNL     1       8.197   8.387  18.007  0.00  0.00    +0.000 A 
ATOM     26  C   UNL     1       8.820   9.751  17.976  0.00  0.00    +0.000 C 
ATOM     27  C   UNL     1       7.311   7.997  17.001  0.00  0.00    +0.000 A 
ATOM     28  C   UNL     1       6.707   6.728  17.008  0.00  0.00    +0.000 A 
ATOM     29  C   UNL     1       5.759   6.382  15.889  0.00  0.00    +0.000 C 
ENDBRANCH  20  21
ENDBRANCH  19  20
ENDBRANCH  14  19
TORSDOF 4
ENDMDL
MODEL 5
REMARK VINA RESULT:      -7.9      3.735      7.295
REMARK  Name = 
REMARK  8 active torsions:
REMARK  status: ('A' for Active; 'I' for Inactive)
REMARK    1  A    between atoms: C_1  and  O_2
REMARK    2  A    between atoms: O_2  and  C_3
REMARK    3  A    between atoms: N_16  and  C_17
REMARK    4  A    between atoms: C_17  and  C_18
REMARK    5  A    between atoms: C_18  and  C_19
REMARK    6  A    between atoms: C_20  and  C_21
REMARK    7  A    between atoms: C_23  and  C_24
REMARK    8  A    between atoms: C_26  and  C_27
REMARK                            x       y       z     vdW  Elec       q    Type
REMARK                         _______ _______ _______ _____ _____    ______ ____
ROOT
ATOM      1  C   UNL     1       2.436   5.800  19.456  0.00  0.00    +0.000 A 
ATOM      2  C   UNL     1       2.668   6.371  18.206  0.00  0.00    +0.000 A 
ATOM      3  C   UNL     1       2.362   7.711  17.977  0.00  0.00    +0.000 A 
ATOM      4  C   UNL     1       1.834   8.499  19.007  0.00  0.00    +0.000 A 
ATOM      5  C   UNL     1       1.625   7.951  20.278  0.00  0.00    +0.000 A 
ATOM      6  C   UNL     1       1.924   6.590  20.493  0.00  0.00    +0.000 A 
ATOM      7  C   UNL     1       1.042   8.773  21.404  0.00  0.00    +0.000 C 
ATOM      8  C   UNL     1       1.040  10.287  21.119  0.00  0.00    +0.000 C 
ATOM      9  C   UNL     1       0.533  10.634  19.692  0.00  0.00    +0.000 C 
ATOM     10  C   UNL     1      -0.909  10.057  19.537  0.00  0.00    +0.000 C 
ATOM     11  C   UNL     1      -1.535  10.365  18.187  0.00  0.00    +0.000 C 
ATOM     12  C   UNL     1      -1.560  11.861  17.976  0.00  0.00    +0.000 C 
ATOM     13  C   UNL     1      -0.182  12.476  18.170  0.00  0.00    +0.000 C 
ATOM     14  N   UNL     1       0.469  12.131  19.456  0.00  0.00    +0.000 NA
ATOM     15  C   UNL     1       1.476   9.909  18.700  0.00  0.00    +0.000 C 
ATOM     16  O   UNL     1       1.903  10.392  17.650  0.00  0.00    +0.000 OA
ENDROOT
BRANCH   1  18
ATOM     17  C   UNL     1       3.812   4.045  18.670  0.00  0.00    +0.000 C 
ATOM     18  O   UNL     1       2.789   4.484  19.555  0.00  0.00    +0.000 OA
ENDBRANCH   1  18
BRANCH  14  19
ATOM     19  C   UNL     1       1.778  12.838  19.554  0.00  0.00    +0.000 C 
BRANCH  19  20
ATOM     20  C   UNL     1       1.694  14.200  20.290  0.00  0.00    +0.000 C 
BRANCH  20  21
ATOM     21  C   UNL     1       1.465  15.395  19.376  0.00  0.00    +0.000 A 
ATOM     22  C   UNL     1       2.531  15.940  18.617  0.00  0.00    +0.000 A 
ATOM     23  C   UNL     1       3.949  15.436  18.698  0.00  0.00    +0.000 C 
ATOM     24  C   UNL     1       2.273  16.970  17.694  0.00  0.00    +0.000 A 
ATOM     25  C   UNL     1       0.996  17.508  17.546  0.00  0.00    +0.000 A 
ATOM     26  C   UNL     1       0.736  18.631  16.587  0.00  0.00    +0.000 C 
ATOM     27  C   UNL     1      -0.043  17.003  18.332  0.00  0.00    +0.000 A 
ATOM     28  C   UNL     1       0.172  15.956  19.245  0.00  0.00    +0.000 A 
ATOM     29  C   UNL     1      -0.997  15.467  20.059  0.00  0.00    +0.000 C 
ENDBRANCH  20  21
ENDBRANCH  19  20
ENDBRANCH  14  19
TORSDOF 4
ENDMDL
MODEL 6
REMARK VINA RESULT:      -7.5      3.677      7.409
REMARK  Name = 
REMARK  8 active torsions:
REMARK  status: ('A' for Active; 'I' for Inactive)
REMARK    1  A    between atoms: C_1  and  O_2
REMARK    2  A    between atoms: O_2  and  C_3
REMARK    3  A    between atoms: N_16  and  C_17
REMARK    4  A    between atoms: C_17  and  C_18
REMARK    5  A    between atoms: C_18  and  C_19
REMARK    6  A    between atoms: C_20  and  C_21
REMARK    7  A    between atoms: C_23  and  C_24
REMARK    8  A    between atoms: C_26  and  C_27
REMARK                            x       y       z     vdW  Elec       q    Type
REMARK                         _______ _______ _______ _____ _____    ______ ____
ROOT
ATOM      1  C   UNL     1       2.368   5.732  19.308  0.00  0.00    +0.000 A 
ATOM      2  C   UNL     1       2.640   6.361  18.094  0.00  0.00    +0.000 A 
ATOM      3  C   UNL     1       2.365   7.716  17.928  0.00  0.00    +0.000 A 
ATOM      4  C   UNL     1       1.830   8.462  18.985  0.00  0.00    +0.000 A 
ATOM      5  C   UNL     1       1.581   7.855  20.222  0.00  0.00    +0.000 A 
ATOM      6  C   UNL     1       1.848   6.479  20.373  0.00  0.00    +0.000 A 
ATOM      7  C   UNL     1       0.989   8.631  21.376  0.00  0.00    +0.000 C 
ATOM      8  C   UNL     1       1.024  10.157  21.168  0.00  0.00    +0.000 C 
ATOM      9  C   UNL     1       0.556  10.587  19.750  0.00  0.00    +0.000 C 
ATOM     10  C   UNL     1      -0.893  10.049  19.535  0.00  0.00    +0.000 C 
ATOM     11  C   UNL     1      -1.482  10.438  18.189  0.00  0.00    +0.000 C 
ATOM     12  C   UNL     1      -1.473  11.942  18.054  0.00  0.00    +0.000 C 
ATOM     13  C   UNL     1      -0.087  12.518  18.309  0.00  0.00    +0.000 C 
ATOM     14  N   UNL     1       0.527  12.094  19.590  0.00  0.00    +0.000 NA
ATOM     15  C   UNL     1       1.507   9.893  18.742  0.00  0.00    +0.000 C 
ATOM     16  O   UNL     1       1.967  10.420  17.728  0.00  0.00    +0.000 OA
ENDROOT
BRANCH   1  18
ATOM     17  C   UNL     1       3.955   4.090  19.922  0.00  0.00    +0.000 C 
ATOM     18  O   UNL     1       2.693   4.406  19.348  0.00  0.00    +0.000 OA
ENDBRANCH   1  18
BRANCH  14  19
ATOM     19  C   UNL     1       1.847  12.768  19.752  0.00  0.00    +0.000 C 
BRANCH  19  20
ATOM     20  C   UNL     1       1.751  14.176  20.396  0.00  0.00    +0.000 C 
BRANCH  20  21
ATOM     21  C   UNL     1       1.390  15.288  19.423  0.00  0.00    +0.000 A 
ATOM     22  C   UNL     1       0.071  15.807  19.376  0.00  0.00    +0.000 A 
ATOM     23  C   UNL     1      -1.061  15.273  20.214  0.00  0.00    +0.000 C 
ATOM     24  C   UNL     1      -0.213  16.911  18.551  0.00  0.00    +0.000 A 
ATOM     25  C   UNL     1       0.765  17.476  17.733  0.00  0.00    +0.000 A 
ATOM     26  C   UNL     1       0.445  18.629  16.829  0.00  0.00    +0.000 C 
ATOM     27  C   UNL     1       2.050  16.930  17.746  0.00  0.00    +0.000 A 
ATOM     28  C   UNL     1       2.377  15.845  18.577  0.00  0.00    +0.000 A 
ATOM     29  C   UNL     1       3.784  15.309  18.531  0.00  0.00    +0.000 C 
ENDBRANCH  20  21
ENDBRANCH  19  20
ENDBRANCH  14  19
TORSDOF 4
ENDMDL
MODEL 7
REMARK VINA RESULT:      -7.2      3.560      7.136
REMARK  Name = 
REMARK  8 active torsions:
REMARK  status: ('A' for Active; 'I' for Inactive)
REMARK    1  A    between atoms: C_1  and  O_2
REMARK    2  A    between atoms: O_2  and  C_3
REMARK    3  A    between atoms: N_16  and  C_17
REMARK    4  A    between atoms: C_17  and  C_18
REMARK    5  A    between atoms: C_18  and  C_19
REMARK    6  A    between atoms: C_20  and  C_21
REMARK    7  A    between atoms: C_23  and  C_24
REMARK    8  A    between atoms: C_26  and  C_27
REMARK                            x       y       z     vdW  Elec       q    Type
REMARK                         _______ _______ _______ _____ _____    ______ ____
ROOT
ATOM      1  C   UNL     1       2.943   6.054  19.042  0.00  0.00    +0.000 A 
ATOM      2  C   UNL     1       3.264   6.863  17.953  0.00  0.00    +0.000 A 
ATOM      3  C   UNL     1       2.790   8.171  17.885  0.00  0.00    +0.000 A 
ATOM      4  C   UNL     1       2.001   8.689  18.919  0.00  0.00    +0.000 A 
ATOM      5  C   UNL     1       1.695   7.902  20.036  0.00  0.00    +0.000 A 
ATOM      6  C   UNL     1       2.168   6.575  20.086  0.00  0.00    +0.000 A 
ATOM      7  C   UNL     1       0.833   8.429  21.160  0.00  0.00    +0.000 C 
ATOM      8  C   UNL     1       0.638   9.957  21.116  0.00  0.00    +0.000 C 
ATOM      9  C   UNL     1       0.298  10.484  19.694  0.00  0.00    +0.000 C 
ATOM     10  C   UNL     1      -0.999   9.763  19.208  0.00  0.00    +0.000 C 
ATOM     11  C   UNL     1      -1.460  10.223  17.835  0.00  0.00    +0.000 C 
ATOM     12  C   UNL     1      -1.687  11.716  17.856  0.00  0.00    +0.000 C 
ATOM     13  C   UNL     1      -0.464  12.459  18.376  0.00  0.00    +0.000 C 
ATOM     14  N   UNL     1       0.037  11.977  19.685  0.00  0.00    +0.000 NA
ATOM     15  C   UNL     1       1.477  10.074  18.777  0.00  0.00    +0.000 C 
ATOM     16  O   UNL     1       1.973  10.786  17.903  0.00  0.00    +0.000 OA
ENDROOT
BRANCH   1  18
ATOM     17  C   UNL     1       4.897   4.723  19.059  0.00  0.00    +0.000 C 
ATOM     18  O   UNL     1       3.478   4.798  18.995  0.00  0.00    +0.000 OA
ENDBRANCH   1  18
BRANCH  14  19
ATOM     19  C   UNL     1       1.191  12.819  20.113  0.00  0.00    +0.000 C 
BRANCH  19  20
ATOM     20  C   UNL     1       0.883  13.719  21.338  0.00  0.00    +0.000 C 
BRANCH  20  21
ATOM     21  C   UNL     1      -0.534  14.272  21.371  0.00  0.00    +0.000 A 
ATOM     22  C   UNL     1      -1.527  13.666  22.182  0.00  0.00    +0.000 A 
ATOM     23  C   UNL     1      -1.285  12.427  23.004  0.00  0.00    +0.000 C 
ATOM     24  C   UNL     1      -2.798  14.260  22.285  0.00  0.00    +0.000 A 
ATOM     25  C   UNL     1      -3.124  15.407  21.562  0.00  0.00    +0.000 A 
ATOM     26  C   UNL     1      -4.492  16.013  21.649  0.00  0.00    +0.000 C 
ATOM     27  C   UNL     1      -2.158  15.972  20.725  0.00  0.00    +0.000 A 
ATOM     28  C   UNL     1      -0.869  15.421  20.618  0.00  0.00    +0.000 A 
ATOM     29  C   UNL     1       0.116  16.085  19.692  0.00  0.00    +0.000 C 
ENDBRANCH  20  21
ENDBRANCH  19  20
ENDBRANCH  14  19
TORSDOF 4
ENDMDL
MODEL 8
REMARK VINA RESULT:      -7.1      3.554      7.083
REMARK  Name = 
REMARK  8 active torsions:
REMARK  status: ('A' for Active; 'I' for Inactive)
REMARK    1  A    between atoms: C_1  and  O_2
REMARK    2  A    between atoms: O_2  and  C_3
REMARK    3  A    between atoms: N_16  and  C_17
REMARK    4  A    between atoms: C_17  and  C_18
REMARK    5  A    between atoms: C_18  and  C_19
REMARK    6  A    between atoms: C_20  and  C_21
REMARK    7  A    between atoms: C_23  and  C_24
REMARK    8  A    between atoms: C_26  and  C_27
REMARK                            x       y       z     vdW  Elec       q    Type
REMARK                         _______ _______ _______ _____ _____    ______ ____
ROOT
ATOM      1  C   UNL     1       2.864   6.111  19.005  0.00  0.00    +0.000 A 
ATOM      2  C   UNL     1       3.160   6.902  17.896  0.00  0.00    +0.000 A 
ATOM      3  C   UNL     1       2.699   8.215  17.825  0.00  0.00    +0.000 A 
ATOM      4  C   UNL     1       1.949   8.756  18.876  0.00  0.00    +0.000 A 
ATOM      5  C   UNL     1       1.669   7.988  20.012  0.00  0.00    +0.000 A 
ATOM      6  C   UNL     1       2.128   6.656  20.066  0.00  0.00    +0.000 A 
ATOM      7  C   UNL     1       0.849   8.541  21.155  0.00  0.00    +0.000 C 
ATOM      8  C   UNL     1       0.670  10.070  21.096  0.00  0.00    +0.000 C 
ATOM      9  C   UNL     1       0.292  10.581  19.678  0.00  0.00    +0.000 C 
ATOM     10  C   UNL     1      -1.027   9.870  19.244  0.00  0.00    +0.000 C 
ATOM     11  C   UNL     1      -1.526  10.317  17.880  0.00  0.00    +0.000 C 
ATOM     12  C   UNL     1      -1.734  11.813  17.887  0.00  0.00    +0.000 C 
ATOM     13  C   UNL     1      -0.487  12.548  18.357  0.00  0.00    +0.000 C 
ATOM     14  N   UNL     1       0.049  12.078  19.657  0.00  0.00    +0.000 NA
ATOM     15  C   UNL     1       1.437  10.145  18.731  0.00  0.00    +0.000 C 
ATOM     16  O   UNL     1       1.914  10.840  17.832  0.00  0.00    +0.000 OA
ENDROOT
BRANCH   1  18
ATOM     17  C   UNL     1       2.827   3.983  17.977  0.00  0.00    +0.000 C 
ATOM     18  O   UNL     1       3.382   4.848  18.959  0.00  0.00    +0.000 OA
ENDBRANCH   1  18
BRANCH  14  19
ATOM     19  C   UNL     1       1.226  12.911  20.037  0.00  0.00    +0.000 C 
BRANCH  19  20
ATOM     20  C   UNL     1       0.964  13.839  21.251  0.00  0.00    +0.000 C 
BRANCH  20  21
ATOM     21  C   UNL     1      -0.430  14.449  21.287  0.00  0.00    +0.000 A 
ATOM     22  C   UNL     1      -0.745  15.578  20.488  0.00  0.00    +0.000 A 
ATOM     23  C   UNL     1       0.260  16.281  19.614  0.00  0.00    +0.000 C 
ATOM     24  C   UNL     1      -2.068  16.055  20.450  0.00  0.00    +0.000 A 
ATOM     25  C   UNL     1      -3.071  15.475  21.226  0.00  0.00    +0.000 A 
ATOM     26  C   UNL     1      -4.470  16.013  21.207  0.00  0.00    +0.000 C 
ATOM     27  C   UNL     1      -2.745  14.395  22.049  0.00  0.00    +0.000 A 
ATOM     28  C   UNL     1      -1.440  13.874  22.093  0.00  0.00    +0.000 A 
ATOM     29  C   UNL     1      -1.166  12.711  23.009  0.00  0.00    +0.000 C 
ENDBRANCH  20  21
ENDBRANCH  19  20
ENDBRANCH  14  19
TORSDOF 4
ENDMDL
MODEL 9
REMARK VINA RESULT:      -7.1      4.215      7.599
REMARK  Name = 
REMARK  8 active torsions:
REMARK  status: ('A' for Active; 'I' for Inactive)
REMARK    1  A    between atoms: C_1  and  O_2
REMARK    2  A    between atoms: O_2  and  C_3
REMARK    3  A    between atoms: N_16  and  C_17
REMARK    4  A    between atoms: C_17  and  C_18
REMARK    5  A    between atoms: C_18  and  C_19
REMARK    6  A    between atoms: C_20  and  C_21
REMARK    7  A    between atoms: C_23  and  C_24
REMARK    8  A    between atoms: C_26  and  C_27
REMARK                            x       y       z     vdW  Elec       q    Type
REMARK                         _______ _______ _______ _____ _____    ______ ____
ROOT
ATOM      1  C   UNL     1       2.615   6.012  19.226  0.00  0.00    +0.000 A 
ATOM      2  C   UNL     1       2.888   6.671  18.029  0.00  0.00    +0.000 A 
ATOM      3  C   UNL     1       2.528   8.006  17.863  0.00  0.00    +0.000 A 
ATOM      4  C   UNL     1       1.904   8.702  18.905  0.00  0.00    +0.000 A 
ATOM      5  C   UNL     1       1.650   8.066  20.127  0.00  0.00    +0.000 A 
ATOM      6  C   UNL     1       2.005   6.710  20.277  0.00  0.00    +0.000 A 
ATOM      7  C   UNL     1       0.963   8.788  21.263  0.00  0.00    +0.000 C 
ATOM      8  C   UNL     1       0.901  10.315  21.070  0.00  0.00    +0.000 C 
ATOM      9  C   UNL     1       0.459  10.727  19.638  0.00  0.00    +0.000 C 
ATOM     10  C   UNL     1      -0.940  10.094  19.363  0.00  0.00    +0.000 C 
ATOM     11  C   UNL     1      -1.504  10.456  18.000  0.00  0.00    +0.000 C 
ATOM     12  C   UNL     1      -1.593  11.959  17.877  0.00  0.00    +0.000 C 
ATOM     13  C   UNL     1      -0.260  12.626  18.190  0.00  0.00    +0.000 C 
ATOM     14  N   UNL     1       0.333  12.230  19.490  0.00  0.00    +0.000 NA
ATOM     15  C   UNL     1       1.493  10.111  18.662  0.00  0.00    +0.000 C 
ATOM     16  O   UNL     1       1.954  10.679  17.671  0.00  0.00    +0.000 OA
ENDROOT
BRANCH   1  18
ATOM     17  C   UNL     1       4.435   4.503  19.259  0.00  0.00    +0.000 C 
ATOM     18  O   UNL     1       3.028   4.710  19.267  0.00  0.00    +0.000 OA
ENDBRANCH   1  18
BRANCH  14  19
ATOM     19  C   UNL     1       1.597  12.991  19.708  0.00  0.00    +0.000 C 
BRANCH  19  20
ATOM     20  C   UNL     1       1.808  14.148  18.698  0.00  0.00    +0.000 C 
BRANCH  20  21
ATOM     21  C   UNL     1       2.565  15.343  19.260  0.00  0.00    +0.000 A 
ATOM     22  C   UNL     1       1.905  16.300  20.072  0.00  0.00    +0.000 A 
ATOM     23  C   UNL     1       0.431  16.249  20.382  0.00  0.00    +0.000 C 
ATOM     24  C   UNL     1       2.647  17.333  20.673  0.00  0.00    +0.000 A 
ATOM     25  C   UNL     1       4.016  17.470  20.446  0.00  0.00    +0.000 A 
ATOM     26  C   UNL     1       4.793  18.594  21.062  0.00  0.00    +0.000 C 
ATOM     27  C   UNL     1       4.653  16.553  19.606  0.00  0.00    +0.000 A 
ATOM     28  C   UNL     1       3.949  15.494  19.009  0.00  0.00    +0.000 A 
ATOM     29  C   UNL     1       4.705  14.549  18.113  0.00  0.00    +0.000 C 
ENDBRANCH  20  21
ENDBRANCH  19  20
ENDBRANCH  14  19
TORSDOF 4
ENDMDL
