MODEL 1
REMARK VINA RESULT:      -7.4      0.000      0.000
REMARK  Name = 
REMARK  3 active torsions:
REMARK  status: ('A' for Active; 'I' for Inactive)
REMARK    1  A    between atoms: C_5  and  C_6
REMARK    2  A    between atoms: N_8  and  C_9
REMARK    3  A    between atoms: C_14  and  O_15
REMARK                            x       y       z     vdW  Elec       q    Type
REMARK                         _______ _______ _______ _____ _____    ______ ____
ROOT
ATOM      1  C   UNL     1       5.925   4.493  17.192  0.00  0.00    +0.000 C 
ATOM      2  O   UNL     1       5.708   3.919  16.123  0.00  0.00    +0.000 OA
ATOM      3  N   UNL     1       5.058   4.534  18.271  0.00  0.00    +0.000 N 
ATOM      4  H   UNL     1       5.248   5.157  19.050  0.00  0.00    +0.000 HD
ENDROOT
BRANCH   1   9
ATOM      5  O   UNL     1       7.669   8.680  17.224  0.00  0.00    +0.000 OA
ATOM      6  C   UNL     1       7.698   7.502  17.528  0.00  0.00    +0.000 C 
ATOM      7  C   UNL     1       8.241   6.919  18.802  0.00  0.00    +0.000 C 
ATOM      8  C   UNL     1       7.550   5.560  18.874  0.00  0.00    +0.000 C 
ATOM      9  C   UNL     1       7.277   5.187  17.425  0.00  0.00    +0.000 C 
ATOM     10  N   UNL     1       7.277   6.460  16.741  0.00  0.00    +0.000 N 
ATOM     11  H   UNL     1       6.723   6.633  15.908  0.00  0.00    +0.000 HD
ENDBRANCH   1   9
BRANCH   3  12
ATOM     12  C   UNL     1       3.793   3.904  18.338  0.00  0.00    +0.000 A 
ATOM     13  C   UNL     1       2.632   4.456  17.795  0.00  0.00    +0.000 A 
ATOM     14  C   UNL     1       1.408   3.799  17.910  0.00  0.00    +0.000 A 
ATOM     15  C   UNL     1       1.329   2.575  18.569  0.00  0.00    +0.000 A 
ATOM     16  C   UNL     1       2.481   1.996  19.101  0.00  0.00    +0.000 A 
ATOM     17  C   UNL     1       3.707   2.654  18.975  0.00  0.00    +0.000 A 
BRANCH  17  18
ATOM     18  O   UNL     1       4.849   2.095  19.489  0.00  0.00    +0.000 OA
ATOM     19  H   UNL     1       4.759   2.063  20.458  0.00  0.00    +0.000 HD
ENDBRANCH  17  18
ENDBRANCH   3  12
TORSDOF 3
ENDMDL
MODEL 2
REMARK VINA RESULT:      -7.1      2.385      5.844
REMARK  Name = 
REMARK  3 active torsions:
REMARK  status: ('A' for Active; 'I' for Inactive)
REMARK    1  A    between atoms: C_5  and  C_6
REMARK    2  A    between atoms: N_8  and  C_9
REMARK    3  A    between atoms: C_14  and  O_15
REMARK                            x       y       z     vdW  Elec       q    Type
REMARK                         _______ _______ _______ _____ _____    ______ ____
ROOT
ATOM      1  C   UNL     1       3.227   2.786  17.998  0.00  0.00    +0.000 C 
ATOM      2  O   UNL     1       3.720   1.704  17.671  0.00  0.00    +0.000 OA
ATOM      3  N   UNL     1       3.768   4.030  17.720  0.00  0.00    +0.000 N 
ATOM      4  H   UNL     1       3.382   4.860  18.159  0.00  0.00    +0.000 HD
ENDROOT
BRANCH   1   9
ATOM      5  O   UNL     1       1.593   2.511  22.220  0.00  0.00    +0.000 OA
ATOM      6  C   UNL     1       1.496   2.827  21.050  0.00  0.00    +0.000 C 
ATOM      7  C   UNL     1       0.770   4.024  20.503  0.00  0.00    +0.000 C 
ATOM      8  C   UNL     1       1.413   4.212  19.131  0.00  0.00    +0.000 C 
ATOM      9  C   UNL     1       1.873   2.821  18.724  0.00  0.00    +0.000 C 
ATOM     10  N   UNL     1       1.995   2.123  19.984  0.00  0.00    +0.000 N 
ATOM     11  H   UNL     1       2.663   1.371  20.130  0.00  0.00    +0.000 HD
ENDBRANCH   1   9
BRANCH   3  12
ATOM     12  C   UNL     1       4.958   4.270  16.993  0.00  0.00    +0.000 A 
ATOM     13  C   UNL     1       5.001   4.342  15.600  0.00  0.00    +0.000 A 
ATOM     14  C   UNL     1       6.206   4.560  14.933  0.00  0.00    +0.000 A 
ATOM     15  C   UNL     1       7.387   4.712  15.654  0.00  0.00    +0.000 A 
ATOM     16  C   UNL     1       7.363   4.663  17.048  0.00  0.00    +0.000 A 
ATOM     17  C   UNL     1       6.151   4.454  17.711  0.00  0.00    +0.000 A 
BRANCH  17  18
ATOM     18  O   UNL     1       6.110   4.408  19.081  0.00  0.00    +0.000 OA
ATOM     19  H   UNL     1       5.297   3.940  19.342  0.00  0.00    +0.000 HD
ENDBRANCH  17  18
ENDBRANCH   3  12
TORSDOF 3
ENDMDL
MODEL 3
REMARK VINA RESULT:      -7.1      2.055      2.853
REMARK  Name = 
REMARK  3 active torsions:
REMARK  status: ('A' for Active; 'I' for Inactive)
REMARK    1  A    between atoms: C_5  and  C_6
REMARK    2  A    between atoms: N_8  and  C_9
REMARK    3  A    between atoms: C_14  and  O_15
REMARK                            x       y       z     vdW  Elec       q    Type
REMARK                         _______ _______ _______ _____ _____    ______ ____
ROOT
ATOM      1  C   UNL     1       5.631   4.455  18.449  0.00  0.00    +0.000 C 
ATOM      2  O   UNL     1       5.721   5.354  19.287  0.00  0.00    +0.000 OA
ATOM      3  N   UNL     1       4.625   3.505  18.397  0.00  0.00    +0.000 N 
ATOM      4  H   UNL     1       4.712   2.710  17.771  0.00  0.00    +0.000 HD
ENDROOT
BRANCH   1   9
ATOM      5  O   UNL     1       5.740   3.716  13.976  0.00  0.00    +0.000 OA
ATOM      6  C   UNL     1       6.229   4.138  15.006  0.00  0.00    +0.000 C 
ATOM      7  C   UNL     1       7.104   5.351  15.151  0.00  0.00    +0.000 C 
ATOM      8  C   UNL     1       6.963   5.694  16.633  0.00  0.00    +0.000 C 
ATOM      9  C   UNL     1       6.661   4.367  17.311  0.00  0.00    +0.000 C 
ATOM     10  N   UNL     1       6.116   3.558  16.244  0.00  0.00    +0.000 N 
ATOM     11  H   UNL     1       5.435   2.823  16.409  0.00  0.00    +0.000 HD
ENDBRANCH   1   9
BRANCH   3  12
ATOM     12  C   UNL     1       3.519   3.424  19.275  0.00  0.00    +0.000 A 
ATOM     13  C   UNL     1       2.310   4.082  19.045  0.00  0.00    +0.000 A 
ATOM     14  C   UNL     1       1.259   3.984  19.956  0.00  0.00    +0.000 A 
ATOM     15  C   UNL     1       1.404   3.219  21.111  0.00  0.00    +0.000 A 
ATOM     16  C   UNL     1       2.597   2.537  21.350  0.00  0.00    +0.000 A 
ATOM     17  C   UNL     1       3.643   2.632  20.429  0.00  0.00    +0.000 A 
BRANCH  17  18
ATOM     18  O   UNL     1       4.820   1.963  20.647  0.00  0.00    +0.000 OA
ATOM     19  H   UNL     1       5.250   2.357  21.428  0.00  0.00    +0.000 HD
ENDBRANCH  17  18
ENDBRANCH   3  12
TORSDOF 3
ENDMDL
MODEL 4
REMARK VINA RESULT:      -7.1      2.231      2.901
REMARK  Name = 
REMARK  3 active torsions:
REMARK  status: ('A' for Active; 'I' for Inactive)
REMARK    1  A    between atoms: C_5  and  C_6
REMARK    2  A    between atoms: N_8  and  C_9
REMARK    3  A    between atoms: C_14  and  O_15
REMARK                            x       y       z     vdW  Elec       q    Type
REMARK                         _______ _______ _______ _____ _____    ______ ____
ROOT
ATOM      1  C   UNL     1       4.110   5.958  17.699  0.00  0.00    +0.000 C 
ATOM      2  O   UNL     1       3.260   6.847  17.779  0.00  0.00    +0.000 OA
ATOM      3  N   UNL     1       4.002   4.693  18.251  0.00  0.00    +0.000 N 
ATOM      4  H   UNL     1       4.810   4.078  18.272  0.00  0.00    +0.000 HD
ENDROOT
BRANCH   1   9
ATOM      5  O   UNL     1       8.250   4.169  17.214  0.00  0.00    +0.000 OA
ATOM      6  C   UNL     1       7.320   4.845  16.818  0.00  0.00    +0.000 C 
ATOM      7  C   UNL     1       6.872   5.005  15.393  0.00  0.00    +0.000 C 
ATOM      8  C   UNL     1       5.427   5.475  15.544  0.00  0.00    +0.000 C 
ATOM      9  C   UNL     1       5.391   6.196  16.882  0.00  0.00    +0.000 C 
ATOM     10  N   UNL     1       6.517   5.639  17.598  0.00  0.00    +0.000 N 
ATOM     11  H   UNL     1       6.534   5.555  18.610  0.00  0.00    +0.000 HD
ENDBRANCH   1   9
BRANCH   3  12
ATOM     12  C   UNL     1       2.890   4.199  18.973  0.00  0.00    +0.000 A 
ATOM     13  C   UNL     1       2.651   4.504  20.314  0.00  0.00    +0.000 A 
ATOM     14  C   UNL     1       1.548   3.971  20.981  0.00  0.00    +0.000 A 
ATOM     15  C   UNL     1       0.665   3.128  20.312  0.00  0.00    +0.000 A 
ATOM     16  C   UNL     1       0.875   2.827  18.966  0.00  0.00    +0.000 A 
ATOM     17  C   UNL     1       1.976   3.370  18.300  0.00  0.00    +0.000 A 
BRANCH  17  18
ATOM     18  O   UNL     1       2.192   3.088  16.976  0.00  0.00    +0.000 OA
ATOM     19  H   UNL     1       1.968   2.151  16.827  0.00  0.00    +0.000 HD
ENDBRANCH  17  18
ENDBRANCH   3  12
TORSDOF 3
ENDMDL
MODEL 5
REMARK VINA RESULT:      -7.0      2.334      3.163
REMARK  Name = 
REMARK  3 active torsions:
REMARK  status: ('A' for Active; 'I' for Inactive)
REMARK    1  A    between atoms: C_5  and  C_6
REMARK    2  A    between atoms: N_8  and  C_9
REMARK    3  A    between atoms: C_14  and  O_15
REMARK                            x       y       z     vdW  Elec       q    Type
REMARK                         _______ _______ _______ _____ _____    ______ ____
ROOT
ATOM      1  C   UNL     1       5.329   4.270  17.009  0.00  0.00    +0.000 C 
ATOM      2  O   UNL     1       5.084   5.394  17.451  0.00  0.00    +0.000 OA
ATOM      3  N   UNL     1       4.630   3.115  17.319  0.00  0.00    +0.000 N 
ATOM      4  H   UNL     1       4.994   2.211  17.035  0.00  0.00    +0.000 HD
ENDROOT
BRANCH   1   9
ATOM      5  O   UNL     1       5.822   3.445  12.576  0.00  0.00    +0.000 OA
ATOM      6  C   UNL     1       6.239   3.847  13.646  0.00  0.00    +0.000 C 
ATOM      7  C   UNL     1       7.186   4.992  13.866  0.00  0.00    +0.000 C 
ATOM      8  C   UNL     1       6.927   5.371  15.322  0.00  0.00    +0.000 C 
ATOM      9  C   UNL     1       6.456   4.083  15.980  0.00  0.00    +0.000 C 
ATOM     10  N   UNL     1       5.958   3.299  14.873  0.00  0.00    +0.000 N 
ATOM     11  H   UNL     1       5.209   2.621  14.976  0.00  0.00    +0.000 HD
ENDBRANCH   1   9
BRANCH   3  12
ATOM     12  C   UNL     1       3.503   3.036  18.170  0.00  0.00    +0.000 A 
ATOM     13  C   UNL     1       2.205   3.330  17.749  0.00  0.00    +0.000 A 
ATOM     14  C   UNL     1       1.132   3.256  18.637  0.00  0.00    +0.000 A 
ATOM     15  C   UNL     1       1.345   2.881  19.961  0.00  0.00    +0.000 A 
ATOM     16  C   UNL     1       2.631   2.564  20.397  0.00  0.00    +0.000 A 
ATOM     17  C   UNL     1       3.701   2.632  19.501  0.00  0.00    +0.000 A 
BRANCH  17  18
ATOM     18  O   UNL     1       4.971   2.318  19.913  0.00  0.00    +0.000 OA
ATOM     19  H   UNL     1       5.424   3.147  20.147  0.00  0.00    +0.000 HD
ENDBRANCH  17  18
ENDBRANCH   3  12
TORSDOF 3
ENDMDL
MODEL 6
REMARK VINA RESULT:      -7.0      1.994      6.001
REMARK  Name = 
REMARK  3 active torsions:
REMARK  status: ('A' for Active; 'I' for Inactive)
REMARK    1  A    between atoms: C_5  and  C_6
REMARK    2  A    between atoms: N_8  and  C_9
REMARK    3  A    between atoms: C_14  and  O_15
REMARK                            x       y       z     vdW  Elec       q    Type
REMARK                         _______ _______ _______ _____ _____    ______ ____
ROOT
ATOM      1  C   UNL     1       3.972   3.632  18.257  0.00  0.00    +0.000 C 
ATOM      2  O   UNL     1       4.432   3.218  17.192  0.00  0.00    +0.000 OA
ATOM      3  N   UNL     1       4.487   4.683  18.999  0.00  0.00    +0.000 N 
ATOM      4  H   UNL     1       4.142   4.857  19.938  0.00  0.00    +0.000 HD
ENDROOT
BRANCH   1   9
ATOM      5  O   UNL     1       1.993   2.944  22.280  0.00  0.00    +0.000 OA
ATOM      6  C   UNL     1       1.956   3.042  21.068  0.00  0.00    +0.000 C 
ATOM      7  C   UNL     1       0.829   3.604  20.249  0.00  0.00    +0.000 C 
ATOM      8  C   UNL     1       1.515   3.971  18.935  0.00  0.00    +0.000 C 
ATOM      9  C   UNL     1       2.689   3.009  18.830  0.00  0.00    +0.000 C 
ATOM     10  N   UNL     1       2.927   2.613  20.199  0.00  0.00    +0.000 N 
ATOM     11  H   UNL     1       3.847   2.353  20.541  0.00  0.00    +0.000 HD
ENDBRANCH   1   9
BRANCH   3  12
ATOM     12  C   UNL     1       5.606   5.473  18.645  0.00  0.00    +0.000 A 
ATOM     13  C   UNL     1       6.835   5.395  19.301  0.00  0.00    +0.000 A 
ATOM     14  C   UNL     1       7.899   6.214  18.923  0.00  0.00    +0.000 A 
ATOM     15  C   UNL     1       7.747   7.122  17.878  0.00  0.00    +0.000 A 
ATOM     16  C   UNL     1       6.532   7.201  17.196  0.00  0.00    +0.000 A 
ATOM     17  C   UNL     1       5.473   6.372  17.573  0.00  0.00    +0.000 A 
BRANCH  17  18
ATOM     18  O   UNL     1       4.274   6.434  16.909  0.00  0.00    +0.000 OA
ATOM     19  H   UNL     1       4.369   7.068  16.176  0.00  0.00    +0.000 HD
ENDBRANCH  17  18
ENDBRANCH   3  12
TORSDOF 3
ENDMDL
MODEL 7
REMARK VINA RESULT:      -6.9      2.347      3.042
REMARK  Name = 
REMARK  3 active torsions:
REMARK  status: ('A' for Active; 'I' for Inactive)
REMARK    1  A    between atoms: C_5  and  C_6
REMARK    2  A    between atoms: N_8  and  C_9
REMARK    3  A    between atoms: C_14  and  O_15
REMARK                            x       y       z     vdW  Elec       q    Type
REMARK                         _______ _______ _______ _____ _____    ______ ____
ROOT
ATOM      1  C   UNL     1       5.219   4.203  18.210  0.00  0.00    +0.000 C 
ATOM      2  O   UNL     1       5.667   3.852  19.303  0.00  0.00    +0.000 OA
ATOM      3  N   UNL     1       3.877   4.258  17.873  0.00  0.00    +0.000 N 
ATOM      4  H   UNL     1       3.602   4.407  16.907  0.00  0.00    +0.000 HD
ENDROOT
BRANCH   1   9
ATOM      5  O   UNL     1       6.031   3.473  13.807  0.00  0.00    +0.000 OA
ATOM      6  C   UNL     1       6.114   4.146  14.817  0.00  0.00    +0.000 C 
ATOM      7  C   UNL     1       6.105   5.646  14.896  0.00  0.00    +0.000 C 
ATOM      8  C   UNL     1       5.695   5.906  16.344  0.00  0.00    +0.000 C 
ATOM      9  C   UNL     1       6.179   4.684  17.109  0.00  0.00    +0.000 C 
ATOM     10  N   UNL     1       6.279   3.664  16.091  0.00  0.00    +0.000 N 
ATOM     11  H   UNL     1       6.144   2.677  16.291  0.00  0.00    +0.000 HD
ENDBRANCH   1   9
BRANCH   3  12
ATOM     12  C   UNL     1       2.797   3.950  18.733  0.00  0.00    +0.000 A 
ATOM     13  C   UNL     1       2.323   4.827  19.711  0.00  0.00    +0.000 A 
ATOM     14  C   UNL     1       1.267   4.463  20.546  0.00  0.00    +0.000 A 
ATOM     15  C   UNL     1       0.667   3.213  20.411  0.00  0.00    +0.000 A 
ATOM     16  C   UNL     1       1.112   2.330  19.427  0.00  0.00    +0.000 A 
ATOM     17  C   UNL     1       2.164   2.704  18.587  0.00  0.00    +0.000 A 
BRANCH  17  18
ATOM     18  O   UNL     1       2.609   1.848  17.612  0.00  0.00    +0.000 OA
ATOM     19  H   UNL     1       3.190   1.189  18.033  0.00  0.00    +0.000 HD
ENDBRANCH  17  18
ENDBRANCH   3  12
TORSDOF 3
ENDMDL
MODEL 8
REMARK VINA RESULT:      -6.9      2.247      2.884
REMARK  Name = 
REMARK  3 active torsions:
REMARK  status: ('A' for Active; 'I' for Inactive)
REMARK    1  A    between atoms: C_5  and  C_6
REMARK    2  A    between atoms: N_8  and  C_9
REMARK    3  A    between atoms: C_14  and  O_15
REMARK                            x       y       z     vdW  Elec       q    Type
REMARK                         _______ _______ _______ _____ _____    ______ ____
ROOT
ATOM      1  C   UNL     1       4.016   5.857  17.498  0.00  0.00    +0.000 C 
ATOM      2  O   UNL     1       3.154   6.735  17.567  0.00  0.00    +0.000 OA
ATOM      3  N   UNL     1       3.900   4.576  18.010  0.00  0.00    +0.000 N 
ATOM      4  H   UNL     1       4.713   3.969  18.045  0.00  0.00    +0.000 HD
ENDROOT
BRANCH   1   9
ATOM      5  O   UNL     1       8.222   4.184  17.207  0.00  0.00    +0.000 OA
ATOM      6  C   UNL     1       7.293   4.834  16.768  0.00  0.00    +0.000 C 
ATOM      7  C   UNL     1       6.907   4.982  15.323  0.00  0.00    +0.000 C 
ATOM      8  C   UNL     1       5.444   5.412  15.406  0.00  0.00    +0.000 C 
ATOM      9  C   UNL     1       5.327   6.132  16.741  0.00  0.00    +0.000 C 
ATOM     10  N   UNL     1       6.433   5.605  17.508  0.00  0.00    +0.000 N 
ATOM     11  H   UNL     1       6.406   5.521  18.520  0.00  0.00    +0.000 HD
ENDBRANCH   1   9
BRANCH   3  12
ATOM     12  C   UNL     1       2.765   4.051  18.670  0.00  0.00    +0.000 A 
ATOM     13  C   UNL     1       1.974   3.030  18.140  0.00  0.00    +0.000 A 
ATOM     14  C   UNL     1       0.853   2.566  18.827  0.00  0.00    +0.000 A 
ATOM     15  C   UNL     1       0.509   3.116  20.059  0.00  0.00    +0.000 A 
ATOM     16  C   UNL     1       1.297   4.123  20.616  0.00  0.00    +0.000 A 
ATOM     17  C   UNL     1       2.424   4.579  19.928  0.00  0.00    +0.000 A 
BRANCH  17  18
ATOM     18  O   UNL     1       3.212   5.565  20.465  0.00  0.00    +0.000 OA
ATOM     19  H   UNL     1       2.653   6.349  20.613  0.00  0.00    +0.000 HD
ENDBRANCH  17  18
ENDBRANCH   3  12
TORSDOF 3
ENDMDL
MODEL 9
REMARK VINA RESULT:      -6.9      2.287      3.220
REMARK  Name = 
REMARK  3 active torsions:
REMARK  status: ('A' for Active; 'I' for Inactive)
REMARK    1  A    between atoms: C_5  and  C_6
REMARK    2  A    between atoms: N_8  and  C_9
REMARK    3  A    between atoms: C_14  and  O_15
REMARK                            x       y       z     vdW  Elec       q    Type
REMARK                         _______ _______ _______ _____ _____    ______ ____
ROOT
ATOM      1  C   UNL     1       5.298   4.362  17.991  0.00  0.00    +0.000 C 
ATOM      2  O   UNL     1       5.061   5.457  18.504  0.00  0.00    +0.000 OA
ATOM      3  N   UNL     1       4.577   3.200  18.211  0.00  0.00    +0.000 N 
ATOM      4  H   UNL     1       4.932   2.311  17.872  0.00  0.00    +0.000 HD
ENDROOT
BRANCH   1   9
ATOM      5  O   UNL     1       5.862   3.586  13.558  0.00  0.00    +0.000 OA
ATOM      6  C   UNL     1       6.253   3.997  14.634  0.00  0.00    +0.000 C 
ATOM      7  C   UNL     1       7.151   5.179  14.869  0.00  0.00    +0.000 C 
ATOM      8  C   UNL     1       6.864   5.538  16.325  0.00  0.00    +0.000 C 
ATOM      9  C   UNL     1       6.440   4.227  16.971  0.00  0.00    +0.000 C 
ATOM     10  N   UNL     1       5.984   3.431  15.855  0.00  0.00    +0.000 N 
ATOM     11  H   UNL     1       5.262   2.723  15.947  0.00  0.00    +0.000 HD
ENDBRANCH   1   9
BRANCH   3  12
ATOM     12  C   UNL     1       3.433   3.082  19.035  0.00  0.00    +0.000 A 
ATOM     13  C   UNL     1       3.500   2.939  20.422  0.00  0.00    +0.000 A 
ATOM     14  C   UNL     1       2.340   2.805  21.183  0.00  0.00    +0.000 A 
ATOM     15  C   UNL     1       1.092   2.816  20.564  0.00  0.00    +0.000 A 
ATOM     16  C   UNL     1       1.002   2.977  19.181  0.00  0.00    +0.000 A 
ATOM     17  C   UNL     1       2.168   3.120  18.425  0.00  0.00    +0.000 A 
BRANCH  17  18
ATOM     18  O   UNL     1       2.095   3.284  17.065  0.00  0.00    +0.000 OA
ATOM     19  H   UNL     1       1.482   4.019  16.884  0.00  0.00    +0.000 HD
ENDBRANCH  17  18
ENDBRANCH   3  12
TORSDOF 3
ENDMDL
