MODEL 1
REMARK VINA RESULT:      -8.2      0.000      0.000
REMARK  Name = 
REMARK  4 active torsions:
REMARK  status: ('A' for Active; 'I' for Inactive)
REMARK    1  A    between atoms: C_1  and  C_2
REMARK    2  A    between atoms: C_4  and  C_5
REMARK    3  A    between atoms: N_7  and  C_8
REMARK    4  A    between atoms: C_17  and  O_18
REMARK                            x       y       z     vdW  Elec       q    Type
REMARK                         _______ _______ _______ _____ _____    ______ ____
ROOT
ATOM      1  C   UNL     1       3.861   7.020  17.699  0.00  0.00    +0.000 A 
ATOM      2  N   UNL     1       3.356   8.260  17.431  0.00  0.00    +0.000 NA
ATOM      3  C   UNL     1       2.360   8.752  18.189  0.00  0.00    +0.000 A 
ATOM      4  N   UNL     1       1.748   8.171  19.233  0.00  0.00    +0.000 NA
ATOM      5  C   UNL     1       2.219   6.933  19.436  0.00  0.00    +0.000 A 
ATOM      6  N   UNL     1       1.816   6.124  20.461  0.00  0.00    +0.000 N 
ATOM      7  C   UNL     1       2.502   4.934  20.432  0.00  0.00    +0.000 A 
ATOM      8  C   UNL     1       2.508   3.859  21.332  0.00  0.00    +0.000 A 
ATOM      9  C   UNL     1       3.340   2.771  21.043  0.00  0.00    +0.000 A 
ATOM     10  C   UNL     1       4.046   2.726  19.854  0.00  0.00    +0.000 A 
ATOM     11  C   UNL     1       3.963   3.762  18.932  0.00  0.00    +0.000 A 
ATOM     12  C   UNL     1       3.273   4.946  19.268  0.00  0.00    +0.000 A 
ATOM     13  C   UNL     1       3.200   6.271  18.711  0.00  0.00    +0.000 A 
ATOM     14  H   UNL     1       1.140   6.400  21.158  0.00  0.00    +0.000 HD
ENDROOT
BRANCH   1  21
ATOM     15  C   UNL     1       7.104   5.378  18.958  0.00  0.00    +0.000 C 
ATOM     16  C   UNL     1       7.352   6.110  17.634  0.00  0.00    +0.000 C 
ATOM     17  C   UNL     1       7.386   5.132  16.444  0.00  0.00    +0.000 C 
ATOM     18  C   UNL     1       6.001   4.537  16.177  0.00  0.00    +0.000 C 
ATOM     19  C   UNL     1       5.998   3.605  14.963  0.00  0.00    +0.000 C 
ATOM     20  C   UNL     1       4.991   5.661  15.956  0.00  0.00    +0.000 C 
ATOM     21  N   UNL     1       5.014   6.636  17.035  0.00  0.00    +0.000 N 
ATOM     22  C   UNL     1       6.301   7.211  17.409  0.00  0.00    +0.000 C 
ENDBRANCH   1  21
BRANCH  10  23
ATOM     23  O   UNL     1       4.886   1.696  19.547  0.00  0.00    +0.000 OA
ATOM     24  H   UNL     1       5.516   2.004  18.876  0.00  0.00    +0.000 HD
ENDBRANCH  10  23
TORSDOF 2
ENDMDL
MODEL 2
REMARK VINA RESULT:      -6.7      1.651      4.732
REMARK  Name = 
REMARK  4 active torsions:
REMARK  status: ('A' for Active; 'I' for Inactive)
REMARK    1  A    between atoms: C_1  and  C_2
REMARK    2  A    between atoms: C_4  and  C_5
REMARK    3  A    between atoms: N_7  and  C_8
REMARK    4  A    between atoms: C_17  and  O_18
REMARK                            x       y       z     vdW  Elec       q    Type
REMARK                         _______ _______ _______ _____ _____    ______ ____
ROOT
ATOM      1  C   UNL     1       2.317   5.617  19.917  0.00  0.00    +0.000 A 
ATOM      2  N   UNL     1       1.542   6.412  20.712  0.00  0.00    +0.000 NA
ATOM      3  C   UNL     1       1.416   7.720  20.426  0.00  0.00    +0.000 A 
ATOM      4  N   UNL     1       1.973   8.405  19.414  0.00  0.00    +0.000 NA
ATOM      5  C   UNL     1       2.776   7.616  18.687  0.00  0.00    +0.000 A 
ATOM      6  N   UNL     1       3.437   8.031  17.565  0.00  0.00    +0.000 N 
ATOM      7  C   UNL     1       4.148   6.992  17.015  0.00  0.00    +0.000 A 
ATOM      8  C   UNL     1       4.876   6.913  15.820  0.00  0.00    +0.000 A 
ATOM      9  C   UNL     1       5.489   5.693  15.508  0.00  0.00    +0.000 A 
ATOM     10  C   UNL     1       5.457   4.644  16.410  0.00  0.00    +0.000 A 
ATOM     11  C   UNL     1       4.805   4.767  17.630  0.00  0.00    +0.000 A 
ATOM     12  C   UNL     1       4.033   5.917  17.899  0.00  0.00    +0.000 A 
ATOM     13  C   UNL     1       3.047   6.270  18.887  0.00  0.00    +0.000 A 
ATOM     14  H   UNL     1       3.361   8.962  17.184  0.00  0.00    +0.000 HD
ENDROOT
BRANCH   1  21
ATOM     15  C   UNL     1       2.054   2.680  17.448  0.00  0.00    +0.000 C 
ATOM     16  C   UNL     1       1.552   2.262  18.834  0.00  0.00    +0.000 C 
ATOM     17  C   UNL     1       2.612   1.449  19.600  0.00  0.00    +0.000 C 
ATOM     18  C   UNL     1       3.805   2.325  19.990  0.00  0.00    +0.000 C 
ATOM     19  C   UNL     1       4.847   1.552  20.802  0.00  0.00    +0.000 C 
ATOM     20  C   UNL     1       3.320   3.526  20.800  0.00  0.00    +0.000 C 
ATOM     21  N   UNL     1       2.257   4.249  20.121  0.00  0.00    +0.000 N 
ATOM     22  C   UNL     1       1.105   3.488  19.650  0.00  0.00    +0.000 C 
ENDBRANCH   1  21
BRANCH  10  23
ATOM     23  O   UNL     1       6.021   3.433  16.134  0.00  0.00    +0.000 OA
ATOM     24  H   UNL     1       5.887   2.851  16.900  0.00  0.00    +0.000 HD
ENDBRANCH  10  23
TORSDOF 2
ENDMDL
MODEL 3
REMARK VINA RESULT:      -6.7      2.522      5.718
REMARK  Name = 
REMARK  4 active torsions:
REMARK  status: ('A' for Active; 'I' for Inactive)
REMARK    1  A    between atoms: C_1  and  C_2
REMARK    2  A    between atoms: C_4  and  C_5
REMARK    3  A    between atoms: N_7  and  C_8
REMARK    4  A    between atoms: C_17  and  O_18
REMARK                            x       y       z     vdW  Elec       q    Type
REMARK                         _______ _______ _______ _____ _____    ______ ____
ROOT
ATOM      1  C   UNL     1       2.464   5.958  18.171  0.00  0.00    +0.000 A 
ATOM      2  N   UNL     1       1.327   5.203  18.223  0.00  0.00    +0.000 NA
ATOM      3  C   UNL     1       1.381   3.896  17.913  0.00  0.00    +0.000 A 
ATOM      4  N   UNL     1       2.450   3.177  17.535  0.00  0.00    +0.000 NA
ATOM      5  C   UNL     1       3.537   3.953  17.433  0.00  0.00    +0.000 A 
ATOM      6  N   UNL     1       4.780   3.482  17.114  0.00  0.00    +0.000 N 
ATOM      7  C   UNL     1       5.698   4.505  17.125  0.00  0.00    +0.000 A 
ATOM      8  C   UNL     1       7.091   4.486  16.973  0.00  0.00    +0.000 A 
ATOM      9  C   UNL     1       7.773   5.706  17.052  0.00  0.00    +0.000 A 
ATOM     10  C   UNL     1       7.072   6.893  17.170  0.00  0.00    +0.000 A 
ATOM     11  C   UNL     1       5.684   6.902  17.233  0.00  0.00    +0.000 A 
ATOM     12  C   UNL     1       4.979   5.684  17.330  0.00  0.00    +0.000 A 
ATOM     13  C   UNL     1       3.628   5.318  17.666  0.00  0.00    +0.000 A 
ATOM     14  H   UNL     1       4.983   2.508  16.945  0.00  0.00    +0.000 HD
ENDROOT
BRANCH   1  21
ATOM     15  C   UNL     1       0.127   8.920  17.420  0.00  0.00    +0.000 C 
ATOM     16  C   UNL     1       1.440   9.415  18.036  0.00  0.00    +0.000 C 
ATOM     17  C   UNL     1       1.278   9.740  19.532  0.00  0.00    +0.000 C 
ATOM     18  C   UNL     1       1.049   8.468  20.353  0.00  0.00    +0.000 C 
ATOM     19  C   UNL     1       0.940   8.760  21.851  0.00  0.00    +0.000 C 
ATOM     20  C   UNL     1       2.192   7.485  20.109  0.00  0.00    +0.000 C 
ATOM     21  N   UNL     1       2.410   7.240  18.692  0.00  0.00    +0.000 N 
ATOM     22  C   UNL     1       2.570   8.395  17.816  0.00  0.00    +0.000 C 
ENDBRANCH   1  21
BRANCH  10  23
ATOM     23  O   UNL     1       7.700   8.099  17.275  0.00  0.00    +0.000 OA
ATOM     24  H   UNL     1       8.268   8.217  16.496  0.00  0.00    +0.000 HD
ENDBRANCH  10  23
TORSDOF 2
ENDMDL
MODEL 4
REMARK VINA RESULT:      -6.3      8.369      9.865
REMARK  Name = 
REMARK  4 active torsions:
REMARK  status: ('A' for Active; 'I' for Inactive)
REMARK    1  A    between atoms: C_1  and  C_2
REMARK    2  A    between atoms: C_4  and  C_5
REMARK    3  A    between atoms: N_7  and  C_8
REMARK    4  A    between atoms: C_17  and  O_18
REMARK                            x       y       z     vdW  Elec       q    Type
REMARK                         _______ _______ _______ _____ _____    ______ ____
ROOT
ATOM      1  C   UNL     1       8.874  14.758  18.682  0.00  0.00    +0.000 A 
ATOM      2  N   UNL     1       8.749  15.839  17.858  0.00  0.00    +0.000 NA
ATOM      3  C   UNL     1       8.355  17.020  18.364  0.00  0.00    +0.000 A 
ATOM      4  N   UNL     1       8.045  17.315  19.636  0.00  0.00    +0.000 NA
ATOM      5  C   UNL     1       8.117  16.225  20.412  0.00  0.00    +0.000 A 
ATOM      6  N   UNL     1       7.903  16.236  21.762  0.00  0.00    +0.000 N 
ATOM      7  C   UNL     1       8.086  14.980  22.287  0.00  0.00    +0.000 A 
ATOM      8  C   UNL     1       8.086  14.534  23.616  0.00  0.00    +0.000 A 
ATOM      9  C   UNL     1       8.324  13.174  23.849  0.00  0.00    +0.000 A 
ATOM     10  C   UNL     1       8.450  12.294  22.788  0.00  0.00    +0.000 A 
ATOM     11  C   UNL     1       8.362  12.738  21.475  0.00  0.00    +0.000 A 
ATOM     12  C   UNL     1       8.295  14.121  21.206  0.00  0.00    +0.000 A 
ATOM     13  C   UNL     1       8.455  14.935  20.028  0.00  0.00    +0.000 A 
ATOM     14  H   UNL     1       7.689  17.071  22.287  0.00  0.00    +0.000 HD
ENDROOT
BRANCH   1  21
ATOM     15  C   UNL     1      11.710  12.537  20.033  0.00  0.00    +0.000 C 
ATOM     16  C   UNL     1      11.583  12.380  18.514  0.00  0.00    +0.000 C 
ATOM     17  C   UNL     1      10.829  11.091  18.139  0.00  0.00    +0.000 C 
ATOM     18  C   UNL     1       9.352  11.178  18.533  0.00  0.00    +0.000 C 
ATOM     19  C   UNL     1       8.570   9.930  18.119  0.00  0.00    +0.000 C 
ATOM     20  C   UNL     1       8.720  12.410  17.889  0.00  0.00    +0.000 C 
ATOM     21  N   UNL     1       9.476  13.622  18.167  0.00  0.00    +0.000 N 
ATOM     22  C   UNL     1      10.907  13.612  17.888  0.00  0.00    +0.000 C 
ENDBRANCH   1  21
BRANCH  10  23
ATOM     23  O   UNL     1       8.708  10.968  22.974  0.00  0.00    +0.000 OA
ATOM     24  H   UNL     1       8.031  10.605  23.568  0.00  0.00    +0.000 HD
ENDBRANCH  10  23
TORSDOF 2
ENDMDL
MODEL 5
REMARK VINA RESULT:      -6.2      2.777      6.026
REMARK  Name = 
REMARK  4 active torsions:
REMARK  status: ('A' for Active; 'I' for Inactive)
REMARK    1  A    between atoms: C_1  and  C_2
REMARK    2  A    between atoms: C_4  and  C_5
REMARK    3  A    between atoms: N_7  and  C_8
REMARK    4  A    between atoms: C_17  and  O_18
REMARK                            x       y       z     vdW  Elec       q    Type
REMARK                         _______ _______ _______ _____ _____    ______ ____
ROOT
ATOM      1  C   UNL     1       5.137   4.673  18.043  0.00  0.00    +0.000 A 
ATOM      2  N   UNL     1       5.581   5.073  19.270  0.00  0.00    +0.000 NA
ATOM      3  C   UNL     1       6.784   5.663  19.384  0.00  0.00    +0.000 A 
ATOM      4  N   UNL     1       7.669   5.934  18.413  0.00  0.00    +0.000 NA
ATOM      5  C   UNL     1       7.237   5.478  17.229  0.00  0.00    +0.000 A 
ATOM      6  N   UNL     1       7.909   5.655  16.053  0.00  0.00    +0.000 N 
ATOM      7  C   UNL     1       7.201   5.113  15.008  0.00  0.00    +0.000 A 
ATOM      8  C   UNL     1       7.436   5.151  13.627  0.00  0.00    +0.000 A 
ATOM      9  C   UNL     1       6.512   4.512  12.790  0.00  0.00    +0.000 A 
ATOM     10  C   UNL     1       5.466   3.784  13.330  0.00  0.00    +0.000 A 
ATOM     11  C   UNL     1       5.296   3.685  14.705  0.00  0.00    +0.000 A 
ATOM     12  C   UNL     1       6.105   4.455  15.568  0.00  0.00    +0.000 A 
ATOM     13  C   UNL     1       6.051   4.807  16.963  0.00  0.00    +0.000 A 
ATOM     14  H   UNL     1       8.781   6.160  15.979  0.00  0.00    +0.000 HD
ENDROOT
BRANCH   1  21
ATOM     15  C   UNL     1       3.494   1.230  18.531  0.00  0.00    +0.000 C 
ATOM     16  C   UNL     1       2.613   2.125  17.652  0.00  0.00    +0.000 C 
ATOM     17  C   UNL     1       1.445   2.732  18.452  0.00  0.00    +0.000 C 
ATOM     18  C   UNL     1       1.947   3.755  19.474  0.00  0.00    +0.000 C 
ATOM     19  C   UNL     1       0.800   4.414  20.242  0.00  0.00    +0.000 C 
ATOM     20  C   UNL     1       2.767   4.831  18.765  0.00  0.00    +0.000 C 
ATOM     21  N   UNL     1       3.819   4.262  17.937  0.00  0.00    +0.000 N 
ATOM     22  C   UNL     1       3.448   3.227  16.978  0.00  0.00    +0.000 C 
ENDBRANCH   1  21
BRANCH  10  23
ATOM     23  O   UNL     1       4.532   3.170  12.549  0.00  0.00    +0.000 OA
ATOM     24  H   UNL     1       4.946   2.400  12.125  0.00  0.00    +0.000 HD
ENDBRANCH  10  23
TORSDOF 2
ENDMDL
MODEL 6
REMARK VINA RESULT:      -6.2      3.078      5.974
REMARK  Name = 
REMARK  4 active torsions:
REMARK  status: ('A' for Active; 'I' for Inactive)
REMARK    1  A    between atoms: C_1  and  C_2
REMARK    2  A    between atoms: C_4  and  C_5
REMARK    3  A    between atoms: N_7  and  C_8
REMARK    4  A    between atoms: C_17  and  O_18
REMARK                            x       y       z     vdW  Elec       q    Type
REMARK                         _______ _______ _______ _____ _____    ______ ____
ROOT
ATOM      1  C   UNL     1       5.457   4.212  18.065  0.00  0.00    +0.000 A 
ATOM      2  N   UNL     1       5.771   4.682  19.308  0.00  0.00    +0.000 NA
ATOM      3  C   UNL     1       6.770   5.572  19.450  0.00  0.00    +0.000 A 
ATOM      4  N   UNL     1       7.553   6.099  18.496  0.00  0.00    +0.000 NA
ATOM      5  C   UNL     1       7.265   5.575  17.296  0.00  0.00    +0.000 A 
ATOM      6  N   UNL     1       7.870   5.960  16.133  0.00  0.00    +0.000 N 
ATOM      7  C   UNL     1       7.339   5.276  15.067  0.00  0.00    +0.000 A 
ATOM      8  C   UNL     1       7.560   5.413  13.689  0.00  0.00    +0.000 A 
ATOM      9  C   UNL     1       6.847   4.572  12.826  0.00  0.00    +0.000 A 
ATOM     10  C   UNL     1       6.034   3.574  13.336  0.00  0.00    +0.000 A 
ATOM     11  C   UNL     1       5.892   3.395  14.705  0.00  0.00    +0.000 A 
ATOM     12  C   UNL     1       6.458   4.331  15.597  0.00  0.00    +0.000 A 
ATOM     13  C   UNL     1       6.306   4.617  17.000  0.00  0.00    +0.000 A 
ATOM     14  H   UNL     1       8.572   6.683  16.081  0.00  0.00    +0.000 HD
ENDROOT
BRANCH   1  21
ATOM     15  C   UNL     1       3.026   2.794  20.688  0.00  0.00    +0.000 C 
ATOM     16  C   UNL     1       2.919   2.008  19.377  0.00  0.00    +0.000 C 
ATOM     17  C   UNL     1       1.690   2.441  18.555  0.00  0.00    +0.000 C 
ATOM     18  C   UNL     1       1.860   3.863  18.013  0.00  0.00    +0.000 C 
ATOM     19  C   UNL     1       0.676   4.295  17.146  0.00  0.00    +0.000 C 
ATOM     20  C   UNL     1       3.146   3.952  17.195  0.00  0.00    +0.000 C 
ATOM     21  N   UNL     1       4.300   3.463  17.935  0.00  0.00    +0.000 N 
ATOM     22  C   UNL     1       4.208   2.143  18.548  0.00  0.00    +0.000 C 
ENDBRANCH   1  21
BRANCH  10  23
ATOM     23  O   UNL     1       5.304   2.752  12.529  0.00  0.00    +0.000 OA
ATOM     24  H   UNL     1       4.824   3.300  11.887  0.00  0.00    +0.000 HD
ENDBRANCH  10  23
TORSDOF 2
ENDMDL
MODEL 7
REMARK VINA RESULT:      -6.1      7.401     10.365
REMARK  Name = 
REMARK  4 active torsions:
REMARK  status: ('A' for Active; 'I' for Inactive)
REMARK    1  A    between atoms: C_1  and  C_2
REMARK    2  A    between atoms: C_4  and  C_5
REMARK    3  A    between atoms: N_7  and  C_8
REMARK    4  A    between atoms: C_17  and  O_18
REMARK                            x       y       z     vdW  Elec       q    Type
REMARK                         _______ _______ _______ _____ _____    ______ ____
ROOT
ATOM      1  C   UNL     1      -2.325  11.058  17.734  0.00  0.00    +0.000 A 
ATOM      2  N   UNL     1      -1.938  10.340  16.639  0.00  0.00    +0.000 NA
ATOM      3  C   UNL     1      -2.809  10.133  15.636  0.00  0.00    +0.000 A 
ATOM      4  N   UNL     1      -4.082  10.551  15.545  0.00  0.00    +0.000 NA
ATOM      5  C   UNL     1      -4.456  11.198  16.657  0.00  0.00    +0.000 A 
ATOM      6  N   UNL     1      -5.682  11.777  16.826  0.00  0.00    +0.000 N 
ATOM      7  C   UNL     1      -5.756  12.398  18.048  0.00  0.00    +0.000 A 
ATOM      8  C   UNL     1      -6.758  13.204  18.606  0.00  0.00    +0.000 A 
ATOM      9  C   UNL     1      -6.540  13.723  19.889  0.00  0.00    +0.000 A 
ATOM     10  C   UNL     1      -5.417  13.357  20.609  0.00  0.00    +0.000 A 
ATOM     11  C   UNL     1      -4.474  12.488  20.076  0.00  0.00    +0.000 A 
ATOM     12  C   UNL     1      -4.576  12.086  18.727  0.00  0.00    +0.000 A 
ATOM     13  C   UNL     1      -3.692  11.443  17.790  0.00  0.00    +0.000 A 
ATOM     14  H   UNL     1      -6.402  11.776  16.118  0.00  0.00    +0.000 HD
ENDROOT
BRANCH   1  21
ATOM     15  C   UNL     1       1.276   9.805  18.246  0.00  0.00    +0.000 C 
ATOM     16  C   UNL     1       0.745  10.452  19.530  0.00  0.00    +0.000 C 
ATOM     17  C   UNL     1       1.279  11.886  19.705  0.00  0.00    +0.000 C 
ATOM     18  C   UNL     1       0.688  12.829  18.654  0.00  0.00    +0.000 C 
ATOM     19  C   UNL     1       1.161  14.272  18.842  0.00  0.00    +0.000 C 
ATOM     20  C   UNL     1      -0.837  12.782  18.721  0.00  0.00    +0.000 C 
ATOM     21  N   UNL     1      -1.347  11.422  18.644  0.00  0.00    +0.000 N 
ATOM     22  C   UNL     1      -0.793  10.433  19.561  0.00  0.00    +0.000 C 
ENDBRANCH   1  21
BRANCH  10  23
ATOM     23  O   UNL     1      -5.156  13.860  21.851  0.00  0.00    +0.000 OA
ATOM     24  H   UNL     1      -4.247  14.199  21.858  0.00  0.00    +0.000 HD
ENDBRANCH  10  23
TORSDOF 2
ENDMDL
MODEL 8
REMARK VINA RESULT:      -6.1      7.791     10.973
REMARK  Name = 
REMARK  4 active torsions:
REMARK  status: ('A' for Active; 'I' for Inactive)
REMARK    1  A    between atoms: C_1  and  C_2
REMARK    2  A    between atoms: C_4  and  C_5
REMARK    3  A    between atoms: N_7  and  C_8
REMARK    4  A    between atoms: C_17  and  O_18
REMARK                            x       y       z     vdW  Elec       q    Type
REMARK                         _______ _______ _______ _____ _____    ______ ____
ROOT
ATOM      1  C   UNL     1      -1.463  12.043  20.476  0.00  0.00    +0.000 A 
ATOM      2  N   UNL     1      -0.331  11.844  21.213  0.00  0.00    +0.000 NA
ATOM      3  C   UNL     1       0.654  11.070  20.725  0.00  0.00    +0.000 A 
ATOM      4  N   UNL     1       0.694  10.421  19.550  0.00  0.00    +0.000 NA
ATOM      5  C   UNL     1      -0.452  10.583  18.875  0.00  0.00    +0.000 A 
ATOM      6  N   UNL     1      -0.677  10.077  17.625  0.00  0.00    +0.000 N 
ATOM      7  C   UNL     1      -1.924  10.440  17.177  0.00  0.00    +0.000 A 
ATOM      8  C   UNL     1      -2.539  10.252  15.932  0.00  0.00    +0.000 A 
ATOM      9  C   UNL     1      -3.833  10.758  15.760  0.00  0.00    +0.000 A 
ATOM     10  C   UNL     1      -4.508  11.329  16.825  0.00  0.00    +0.000 A 
ATOM     11  C   UNL     1      -3.916  11.431  18.077  0.00  0.00    +0.000 A 
ATOM     12  C   UNL     1      -2.556  11.089  18.239  0.00  0.00    +0.000 A 
ATOM     13  C   UNL     1      -1.571  11.304  19.267  0.00  0.00    +0.000 A 
ATOM     14  H   UNL     1       0.010   9.553  17.103  0.00  0.00    +0.000 HD
ENDROOT
BRANCH   1  21
ATOM     15  C   UNL     1      -3.351  12.435  23.805  0.00  0.00    +0.000 C 
ATOM     16  C   UNL     1      -4.069  13.199  22.687  0.00  0.00    +0.000 C 
ATOM     17  C   UNL     1      -3.765  14.708  22.747  0.00  0.00    +0.000 C 
ATOM     18  C   UNL     1      -2.306  14.994  22.385  0.00  0.00    +0.000 C 
ATOM     19  C   UNL     1      -1.995  16.492  22.384  0.00  0.00    +0.000 C 
ATOM     20  C   UNL     1      -1.993  14.409  21.010  0.00  0.00    +0.000 C 
ATOM     21  N   UNL     1      -2.358  13.004  20.917  0.00  0.00    +0.000 N 
ATOM     22  C   UNL     1      -3.710  12.623  21.307  0.00  0.00    +0.000 C 
ENDBRANCH   1  21
BRANCH  10  23
ATOM     23  O   UNL     1      -5.759  11.856  16.692  0.00  0.00    +0.000 OA
ATOM     24  H   UNL     1      -5.775  12.721  17.133  0.00  0.00    +0.000 HD
ENDBRANCH  10  23
TORSDOF 2
ENDMDL
MODEL 9
REMARK VINA RESULT:      -5.9      5.194      8.215
REMARK  Name = 
REMARK  4 active torsions:
REMARK  status: ('A' for Active; 'I' for Inactive)
REMARK    1  A    between atoms: C_1  and  C_2
REMARK    2  A    between atoms: C_4  and  C_5
REMARK    3  A    between atoms: N_7  and  C_8
REMARK    4  A    between atoms: C_17  and  O_18
REMARK                            x       y       z     vdW  Elec       q    Type
REMARK                         _______ _______ _______ _____ _____    ______ ____
ROOT
ATOM      1  C   UNL     1      -0.079  12.228  20.907  0.00  0.00    +0.000 A 
ATOM      2  N   UNL     1      -0.803  12.818  21.903  0.00  0.00    +0.000 NA
ATOM      3  C   UNL     1      -1.166  12.099  22.979  0.00  0.00    +0.000 A 
ATOM      4  N   UNL     1      -0.911  10.806  23.236  0.00  0.00    +0.000 NA
ATOM      5  C   UNL     1      -0.254  10.235  22.218  0.00  0.00    +0.000 A 
ATOM      6  N   UNL     1       0.181   8.940  22.223  0.00  0.00    +0.000 N 
ATOM      7  C   UNL     1       0.853   8.654  21.060  0.00  0.00    +0.000 A 
ATOM      8  C   UNL     1       1.562   7.509  20.670  0.00  0.00    +0.000 A 
ATOM      9  C   UNL     1       2.171   7.516  19.409  0.00  0.00    +0.000 A 
ATOM     10  C   UNL     1       1.982   8.583  18.547  0.00  0.00    +0.000 A 
ATOM     11  C   UNL     1       1.205   9.673  18.915  0.00  0.00    +0.000 A 
ATOM     12  C   UNL     1       0.722   9.775  20.237  0.00  0.00    +0.000 A 
ATOM     13  C   UNL     1       0.141  10.829  21.027  0.00  0.00    +0.000 A 
ATOM     14  H   UNL     1       0.056   8.312  23.003  0.00  0.00    +0.000 HD
ENDROOT
BRANCH   1  21
ATOM     15  C   UNL     1      -0.689  15.933  20.073  0.00  0.00    +0.000 C 
ATOM     16  C   UNL     1      -0.145  15.190  18.848  0.00  0.00    +0.000 C 
ATOM     17  C   UNL     1       1.360  15.451  18.648  0.00  0.00    +0.000 C 
ATOM     18  C   UNL     1       2.187  14.798  19.759  0.00  0.00    +0.000 C 
ATOM     19  C   UNL     1       3.690  14.997  19.551  0.00  0.00    +0.000 C 
ATOM     20  C   UNL     1       1.876  13.305  19.822  0.00  0.00    +0.000 C 
ATOM     21  N   UNL     1       0.448  13.046  19.923  0.00  0.00    +0.000 N 
ATOM     22  C   UNL     1      -0.431  13.681  18.948  0.00  0.00    +0.000 C 
ENDBRANCH   1  21
BRANCH  10  23
ATOM     23  O   UNL     1       2.578   8.638  17.321  0.00  0.00    +0.000 OA
ATOM     24  H   UNL     1       2.762   7.731  17.029  0.00  0.00    +0.000 HD
ENDBRANCH  10  23
TORSDOF 2
ENDMDL
