MODEL 1
REMARK VINA RESULT:      -7.3      0.000      0.000
REMARK  Name = 
REMARK  4 active torsions:
REMARK  status: ('A' for Active; 'I' for Inactive)
REMARK    1  A    between atoms: C_2  and  C_4
REMARK    2  A    between atoms: N_6  and  C_7
REMARK    3  A    between atoms: C_14  and  C_15
REMARK    4  A    between atoms: C_19  and  C_20
REMARK                            x       y       z     vdW  Elec       q    Type
REMARK                         _______ _______ _______ _____ _____    ______ ____
ROOT
ATOM      1  C   UNL     1       2.276   6.628  19.754  0.00  0.00    +0.000 A 
ATOM      2  C   UNL     1       1.434   5.900  20.620  0.00  0.00    +0.000 A 
ATOM      3  C   UNL     1       1.690   4.564  20.933  0.00  0.00    +0.000 A 
ATOM      4  C   UNL     1       2.809   3.989  20.379  0.00  0.00    +0.000 A 
ATOM      5  C   UNL     1       3.684   4.692  19.544  0.00  0.00    +0.000 A 
ATOM      6  C   UNL     1       3.403   6.006  19.193  0.00  0.00    +0.000 A 
ATOM      7  C   UNL     1       4.761   3.746  19.223  0.00  0.00    +0.000 C 
ATOM      8  C   UNL     1       5.956   3.873  18.628  0.00  0.00    +0.000 C 
ATOM      9  C   UNL     1       4.391   2.423  19.842  0.00  0.00    +0.000 C 
ATOM     10  O   UNL     1       5.005   1.375  19.775  0.00  0.00    +0.000 OA
ATOM     11  N   UNL     1       3.221   2.670  20.538  0.00  0.00    +0.000 N 
ATOM     12  H   UNL     1       2.741   1.963  21.075  0.00  0.00    +0.000 HD
ENDROOT
BRANCH   8  13
ATOM     13  C   UNL     1       6.472   5.121  18.189  0.00  0.00    +0.000 A 
ATOM     14  S   UNL     1       7.590   5.980  19.173  0.00  0.00    +0.000 S 
ATOM     15  C   UNL     1       7.756   7.224  18.019  0.00  0.00    +0.000 A 
ATOM     16  C   UNL     1       6.931   7.035  16.937  0.00  0.00    +0.000 A 
ATOM     17  C   UNL     1       6.161   5.829  17.034  0.00  0.00    +0.000 A 
ATOM     18  C   UNL     1       5.159   5.403  16.005  0.00  0.00    +0.000 C 
ENDBRANCH   8  13
BRANCH   1  21
ATOM     19  C   UNL     1       1.294   8.880  20.154  0.00  0.00    +0.000 C 
ATOM     20  O   UNL     1       0.805   8.655  21.260  0.00  0.00    +0.000 OA
ATOM     21  N   UNL     1       2.029   7.978  19.411  0.00  0.00    +0.000 N 
ATOM     22  H   UNL     1       2.498   8.335  18.584  0.00  0.00    +0.000 HD
BRANCH  19  24
ATOM     23  C   UNL     1       1.512  10.407  18.258  0.00  0.00    +0.000 C 
ATOM     24  C   UNL     1       1.151  10.252  19.541  0.00  0.00    +0.000 C 
ATOM     25 BR   UNL     1       0.503  11.685  20.551  0.00  0.00    +0.000 Br
ENDBRANCH  19  24
ENDBRANCH   1  21
TORSDOF 3
ENDMDL
MODEL 2
REMARK VINA RESULT:      -7.2      1.034      1.043
REMARK  Name = 
REMARK  4 active torsions:
REMARK  status: ('A' for Active; 'I' for Inactive)
REMARK    1  A    between atoms: C_2  and  C_4
REMARK    2  A    between atoms: N_6  and  C_7
REMARK    3  A    between atoms: C_14  and  C_15
REMARK    4  A    between atoms: C_19  and  C_20
REMARK                            x       y       z     vdW  Elec       q    Type
REMARK                         _______ _______ _______ _____ _____    ______ ____
ROOT
ATOM      1  C   UNL     1       2.154   6.710  19.820  0.00  0.00    +0.000 A 
ATOM      2  C   UNL     1       1.214   5.927  20.522  0.00  0.00    +0.000 A 
ATOM      3  C   UNL     1       1.306   4.535  20.558  0.00  0.00    +0.000 A 
ATOM      4  C   UNL     1       2.361   3.955  19.896  0.00  0.00    +0.000 A 
ATOM      5  C   UNL     1       3.330   4.702  19.218  0.00  0.00    +0.000 A 
ATOM      6  C   UNL     1       3.212   6.084  19.142  0.00  0.00    +0.000 A 
ATOM      7  C   UNL     1       4.297   3.720  18.711  0.00  0.00    +0.000 C 
ATOM      8  C   UNL     1       5.511   3.821  18.150  0.00  0.00    +0.000 C 
ATOM      9  C   UNL     1       3.761   2.352  19.050  0.00  0.00    +0.000 C 
ATOM     10  O   UNL     1       4.250   1.274  18.770  0.00  0.00    +0.000 OA
ATOM     11  N   UNL     1       2.613   2.591  19.784  0.00  0.00    +0.000 N 
ATOM     12  H   UNL     1       2.043   1.853  20.168  0.00  0.00    +0.000 HD
ENDROOT
BRANCH   8  13
ATOM     13  C   UNL     1       6.177   5.062  17.971  0.00  0.00    +0.000 A 
ATOM     14  S   UNL     1       7.254   5.638  19.182  0.00  0.00    +0.000 S 
ATOM     15  C   UNL     1       7.651   7.021  18.269  0.00  0.00    +0.000 A 
ATOM     16  C   UNL     1       6.935   7.088  17.099  0.00  0.00    +0.000 A 
ATOM     17  C   UNL     1       6.056   5.968  16.925  0.00  0.00    +0.000 A 
ATOM     18  C   UNL     1       5.138   5.812  15.752  0.00  0.00    +0.000 C 
ENDBRANCH   8  13
BRANCH   1  21
ATOM     19  C   UNL     1       1.668   8.861  18.666  0.00  0.00    +0.000 C 
ATOM     20  O   UNL     1       1.250   8.392  17.608  0.00  0.00    +0.000 OA
ATOM     21  N   UNL     1       2.073   8.121  19.758  0.00  0.00    +0.000 N 
ATOM     22  H   UNL     1       2.257   8.629  20.617  0.00  0.00    +0.000 HD
BRANCH  19  24
ATOM     23  C   UNL     1       2.380  11.084  17.943  0.00  0.00    +0.000 C 
ATOM     24  C   UNL     1       1.710  10.358  18.852  0.00  0.00    +0.000 C 
ATOM     25 BR   UNL     1       0.865  11.162  20.311  0.00  0.00    +0.000 Br
ENDBRANCH  19  24
ENDBRANCH   1  21
TORSDOF 3
ENDMDL
MODEL 3
REMARK VINA RESULT:      -7.1      0.903      1.345
REMARK  Name = 
REMARK  4 active torsions:
REMARK  status: ('A' for Active; 'I' for Inactive)
REMARK    1  A    between atoms: C_2  and  C_4
REMARK    2  A    between atoms: N_6  and  C_7
REMARK    3  A    between atoms: C_14  and  C_15
REMARK    4  A    between atoms: C_19  and  C_20
REMARK                            x       y       z     vdW  Elec       q    Type
REMARK                         _______ _______ _______ _____ _____    ______ ____
ROOT
ATOM      1  C   UNL     1       2.180   6.564  19.826  0.00  0.00    +0.000 A 
ATOM      2  C   UNL     1       1.421   5.841  20.769  0.00  0.00    +0.000 A 
ATOM      3  C   UNL     1       1.730   4.520  21.095  0.00  0.00    +0.000 A 
ATOM      4  C   UNL     1       2.818   3.953  20.473  0.00  0.00    +0.000 A 
ATOM      5  C   UNL     1       3.612   4.653  19.559  0.00  0.00    +0.000 A 
ATOM      6  C   UNL     1       3.277   5.951  19.198  0.00  0.00    +0.000 A 
ATOM      7  C   UNL     1       4.685   3.722  19.182  0.00  0.00    +0.000 C 
ATOM      8  C   UNL     1       5.829   3.858  18.497  0.00  0.00    +0.000 C 
ATOM      9  C   UNL     1       4.392   2.408  19.859  0.00  0.00    +0.000 C 
ATOM     10  O   UNL     1       5.022   1.371  19.772  0.00  0.00    +0.000 OA
ATOM     11  N   UNL     1       3.271   2.648  20.634  0.00  0.00    +0.000 N 
ATOM     12  H   UNL     1       2.848   1.946  21.222  0.00  0.00    +0.000 HD
ENDROOT
BRANCH   8  13
ATOM     13  C   UNL     1       6.282   5.105  17.990  0.00  0.00    +0.000 A 
ATOM     14  S   UNL     1       5.656   5.704  16.505  0.00  0.00    +0.000 S 
ATOM     15  C   UNL     1       6.570   7.138  16.619  0.00  0.00    +0.000 A 
ATOM     16  C   UNL     1       7.388   7.141  17.723  0.00  0.00    +0.000 A 
ATOM     17  C   UNL     1       7.249   5.954  18.515  0.00  0.00    +0.000 A 
ATOM     18  C   UNL     1       8.049   5.688  19.753  0.00  0.00    +0.000 C 
ENDBRANCH   8  13
BRANCH   1  21
ATOM     19  C   UNL     1       1.342   8.858  20.305  0.00  0.00    +0.000 C 
ATOM     20  O   UNL     1       1.115   8.705  21.505  0.00  0.00    +0.000 OA
ATOM     21  N   UNL     1       1.878   7.899  19.469  0.00  0.00    +0.000 N 
ATOM     22  H   UNL     1       2.150   8.198  18.538  0.00  0.00    +0.000 HD
BRANCH  19  24
ATOM     23  C   UNL     1       1.252  10.301  18.335  0.00  0.00    +0.000 C 
ATOM     24  C   UNL     1       1.079  10.198  19.662  0.00  0.00    +0.000 C 
ATOM     25 BR   UNL     1       0.544  11.662  20.692  0.00  0.00    +0.000 Br
ENDBRANCH  19  24
ENDBRANCH   1  21
TORSDOF 3
ENDMDL
MODEL 4
REMARK VINA RESULT:      -6.9      2.571      4.311
REMARK  Name = 
REMARK  4 active torsions:
REMARK  status: ('A' for Active; 'I' for Inactive)
REMARK    1  A    between atoms: C_2  and  C_4
REMARK    2  A    between atoms: N_6  and  C_7
REMARK    3  A    between atoms: C_14  and  C_15
REMARK    4  A    between atoms: C_19  and  C_20
REMARK                            x       y       z     vdW  Elec       q    Type
REMARK                         _______ _______ _______ _____ _____    ______ ____
ROOT
ATOM      1  C   UNL     1       2.372   7.645  19.177  0.00  0.00    +0.000 A 
ATOM      2  C   UNL     1       2.794   8.424  18.080  0.00  0.00    +0.000 A 
ATOM      3  C   UNL     1       3.619   7.896  17.085  0.00  0.00    +0.000 A 
ATOM      4  C   UNL     1       3.990   6.577  17.207  0.00  0.00    +0.000 A 
ATOM      5  C   UNL     1       3.561   5.767  18.264  0.00  0.00    +0.000 A 
ATOM      6  C   UNL     1       2.781   6.305  19.278  0.00  0.00    +0.000 A 
ATOM      7  C   UNL     1       4.123   4.438  17.989  0.00  0.00    +0.000 C 
ATOM      8  C   UNL     1       3.929   3.224  18.524  0.00  0.00    +0.000 C 
ATOM      9  C   UNL     1       4.990   4.566  16.763  0.00  0.00    +0.000 C 
ATOM     10  O   UNL     1       5.659   3.699  16.234  0.00  0.00    +0.000 OA
ATOM     11  N   UNL     1       4.827   5.875  16.346  0.00  0.00    +0.000 N 
ATOM     12  H   UNL     1       5.279   6.251  15.526  0.00  0.00    +0.000 HD
ENDROOT
BRANCH   8  13
ATOM     13  C   UNL     1       2.984   2.975  19.554  0.00  0.00    +0.000 A 
ATOM     14  S   UNL     1       3.526   2.542  21.127  0.00  0.00    +0.000 S 
ATOM     15  C   UNL     1       1.934   2.484  21.735  0.00  0.00    +0.000 A 
ATOM     16  C   UNL     1       1.001   2.720  20.755  0.00  0.00    +0.000 A 
ATOM     17  C   UNL     1       1.596   2.983  19.477  0.00  0.00    +0.000 A 
ATOM     18  C   UNL     1       0.803   3.237  18.232  0.00  0.00    +0.000 C 
ENDBRANCH   8  13
BRANCH   1  21
ATOM     19  C   UNL     1       0.721   9.263  20.101  0.00  0.00    +0.000 C 
ATOM     20  O   UNL     1       0.530   9.911  19.072  0.00  0.00    +0.000 OA
ATOM     21  N   UNL     1       1.547   8.162  20.204  0.00  0.00    +0.000 N 
ATOM     22  H   UNL     1       1.504   7.632  21.068  0.00  0.00    +0.000 HD
BRANCH  19  24
ATOM     23  C   UNL     1      -0.433   8.629  22.159  0.00  0.00    +0.000 C 
ATOM     24  C   UNL     1      -0.025   9.628  21.361  0.00  0.00    +0.000 C 
ATOM     25 BR   UNL     1      -0.375  11.415  21.778  0.00  0.00    +0.000 Br
ENDBRANCH  19  24
ENDBRANCH   1  21
TORSDOF 3
ENDMDL
MODEL 5
REMARK VINA RESULT:      -6.9      6.599      9.182
REMARK  Name = 
REMARK  4 active torsions:
REMARK  status: ('A' for Active; 'I' for Inactive)
REMARK    1  A    between atoms: C_2  and  C_4
REMARK    2  A    between atoms: N_6  and  C_7
REMARK    3  A    between atoms: C_14  and  C_15
REMARK    4  A    between atoms: C_19  and  C_20
REMARK                            x       y       z     vdW  Elec       q    Type
REMARK                         _______ _______ _______ _____ _____    ______ ____
ROOT
ATOM      1  C   UNL     1      -3.633  11.541  18.117  0.00  0.00    +0.000 A 
ATOM      2  C   UNL     1      -3.587  10.591  17.076  0.00  0.00    +0.000 A 
ATOM      3  C   UNL     1      -2.422   9.878  16.790  0.00  0.00    +0.000 A 
ATOM      4  C   UNL     1      -1.321  10.126  17.576  0.00  0.00    +0.000 A 
ATOM      5  C   UNL     1      -1.342  11.037  18.638  0.00  0.00    +0.000 A 
ATOM      6  C   UNL     1      -2.487  11.781  18.892  0.00  0.00    +0.000 A 
ATOM      7  C   UNL     1      -0.007  10.958  19.245  0.00  0.00    +0.000 C 
ATOM      8  C   UNL     1       0.523  11.441  20.378  0.00  0.00    +0.000 C 
ATOM      9  C   UNL     1       0.814  10.022  18.397  0.00  0.00    +0.000 C 
ATOM     10  O   UNL     1       1.983   9.719  18.543  0.00  0.00    +0.000 OA
ATOM     11  N   UNL     1      -0.063   9.550  17.436  0.00  0.00    +0.000 N 
ATOM     12  H   UNL     1       0.204   8.882  16.729  0.00  0.00    +0.000 HD
ENDROOT
BRANCH   8  13
ATOM     13  C   UNL     1      -0.232  12.170  21.335  0.00  0.00    +0.000 A 
ATOM     14  S   UNL     1      -0.404  13.873  21.173  0.00  0.00    +0.000 S 
ATOM     15  C   UNL     1      -1.405  13.972  22.549  0.00  0.00    +0.000 A 
ATOM     16  C   UNL     1      -1.556  12.753  23.165  0.00  0.00    +0.000 A 
ATOM     17  C   UNL     1      -0.859  11.701  22.484  0.00  0.00    +0.000 A 
ATOM     18  C   UNL     1      -0.830  10.283  22.963  0.00  0.00    +0.000 C 
ENDBRANCH   8  13
BRANCH   1  21
ATOM     19  C   UNL     1      -6.002  11.764  18.850  0.00  0.00    +0.000 C 
ATOM     20  O   UNL     1      -6.209  10.579  19.108  0.00  0.00    +0.000 OA
ATOM     21  N   UNL     1      -4.799  12.285  18.416  0.00  0.00    +0.000 N 
ATOM     22  H   UNL     1      -4.720  13.296  18.380  0.00  0.00    +0.000 HD
BRANCH  19  24
ATOM     23  C   UNL     1      -7.698  13.289  17.974  0.00  0.00    +0.000 C 
ATOM     24  C   UNL     1      -7.102  12.776  19.061  0.00  0.00    +0.000 C 
ATOM     25 BR   UNL     1      -7.599  13.299  20.784  0.00  0.00    +0.000 Br
ENDBRANCH  19  24
ENDBRANCH   1  21
TORSDOF 3
ENDMDL
MODEL 6
REMARK VINA RESULT:      -6.9      8.142     11.972
REMARK  Name = 
REMARK  4 active torsions:
REMARK  status: ('A' for Active; 'I' for Inactive)
REMARK    1  A    between atoms: C_2  and  C_4
REMARK    2  A    between atoms: N_6  and  C_7
REMARK    3  A    between atoms: C_14  and  C_15
REMARK    4  A    between atoms: C_19  and  C_20
REMARK                            x       y       z     vdW  Elec       q    Type
REMARK                         _______ _______ _______ _____ _____    ______ ____
ROOT
ATOM      1  C   UNL     1      -2.662  12.606  21.675  0.00  0.00    +0.000 A 
ATOM      2  C   UNL     1      -2.262  12.654  23.027  0.00  0.00    +0.000 A 
ATOM      3  C   UNL     1      -3.194  12.777  24.059  0.00  0.00    +0.000 A 
ATOM      4  C   UNL     1      -4.522  12.831  23.707  0.00  0.00    +0.000 A 
ATOM      5  C   UNL     1      -4.955  12.751  22.379  0.00  0.00    +0.000 A 
ATOM      6  C   UNL     1      -4.026  12.677  21.350  0.00  0.00    +0.000 A 
ATOM      7  C   UNL     1      -6.422  12.784  22.445  0.00  0.00    +0.000 C 
ATOM      8  C   UNL     1      -7.393  12.567  21.545  0.00  0.00    +0.000 C 
ATOM      9  C   UNL     1      -6.799  12.996  23.888  0.00  0.00    +0.000 C 
ATOM     10  O   UNL     1      -7.916  13.117  24.354  0.00  0.00    +0.000 OA
ATOM     11  N   UNL     1      -5.598  12.984  24.576  0.00  0.00    +0.000 N 
ATOM     12  H   UNL     1      -5.537  13.087  25.577  0.00  0.00    +0.000 HD
ENDROOT
BRANCH   8  13
ATOM     13  C   UNL     1      -7.131  12.169  20.208  0.00  0.00    +0.000 A 
ATOM     14  S   UNL     1      -6.790  13.357  19.012  0.00  0.00    +0.000 S 
ATOM     15  C   UNL     1      -6.552  12.175  17.807  0.00  0.00    +0.000 A 
ATOM     16  C   UNL     1      -6.792  10.906  18.277  0.00  0.00    +0.000 A 
ATOM     17  C   UNL     1      -7.154  10.890  19.664  0.00  0.00    +0.000 A 
ATOM     18  C   UNL     1      -7.501   9.641  20.414  0.00  0.00    +0.000 C 
ENDBRANCH   8  13
BRANCH   1  21
ATOM     19  C   UNL     1      -0.900  11.421  20.375  0.00  0.00    +0.000 C 
ATOM     20  O   UNL     1      -0.895  10.373  21.018  0.00  0.00    +0.000 OA
ATOM     21  N   UNL     1      -1.735  12.495  20.612  0.00  0.00    +0.000 N 
ATOM     22  H   UNL     1      -1.739  13.238  19.921  0.00  0.00    +0.000 HD
BRANCH  19  24
ATOM     23  C   UNL     1       0.032  12.754  18.551  0.00  0.00    +0.000 C 
ATOM     24  C   UNL     1       0.023  11.573  19.190  0.00  0.00    +0.000 C 
ATOM     25 BR   UNL     1       1.102  10.154  18.634  0.00  0.00    +0.000 Br
ENDBRANCH  19  24
ENDBRANCH   1  21
TORSDOF 3
ENDMDL
MODEL 7
REMARK VINA RESULT:      -6.8      1.303      1.653
REMARK  Name = 
REMARK  4 active torsions:
REMARK  status: ('A' for Active; 'I' for Inactive)
REMARK    1  A    between atoms: C_2  and  C_4
REMARK    2  A    between atoms: N_6  and  C_7
REMARK    3  A    between atoms: C_14  and  C_15
REMARK    4  A    between atoms: C_19  and  C_20
REMARK                            x       y       z     vdW  Elec       q    Type
REMARK                         _______ _______ _______ _____ _____    ______ ____
ROOT
ATOM      1  C   UNL     1       2.196   6.831  19.932  0.00  0.00    +0.000 A 
ATOM      2  C   UNL     1       1.361   6.053  20.759  0.00  0.00    +0.000 A 
ATOM      3  C   UNL     1       1.548   4.676  20.897  0.00  0.00    +0.000 A 
ATOM      4  C   UNL     1       2.594   4.110  20.207  0.00  0.00    +0.000 A 
ATOM      5  C   UNL     1       3.462   4.858  19.405  0.00  0.00    +0.000 A 
ATOM      6  C   UNL     1       3.246   6.218  19.230  0.00  0.00    +0.000 A 
ATOM      7  C   UNL     1       4.456   3.898  18.906  0.00  0.00    +0.000 C 
ATOM      8  C   UNL     1       5.620   4.028  18.253  0.00  0.00    +0.000 C 
ATOM      9  C   UNL     1       4.038   2.533  19.388  0.00  0.00    +0.000 C 
ATOM     10  O   UNL     1       4.578   1.467  19.159  0.00  0.00    +0.000 OA
ATOM     11  N   UNL     1       2.929   2.760  20.183  0.00  0.00    +0.000 N 
ATOM     12  H   UNL     1       2.436   2.022  20.664  0.00  0.00    +0.000 HD
ENDROOT
BRANCH   8  13
ATOM     13  C   UNL     1       6.188   5.289  17.931  0.00  0.00    +0.000 A 
ATOM     14  S   UNL     1       5.647   6.141  16.539  0.00  0.00    +0.000 S 
ATOM     15  C   UNL     1       6.678   7.460  16.861  0.00  0.00    +0.000 A 
ATOM     16  C   UNL     1       7.469   7.237  17.962  0.00  0.00    +0.000 A 
ATOM     17  C   UNL     1       7.213   5.969  18.579  0.00  0.00    +0.000 A 
ATOM     18  C   UNL     1       7.961   5.464  19.773  0.00  0.00    +0.000 C 
ENDBRANCH   8  13
BRANCH   1  21
ATOM     19  C   UNL     1       1.702   8.866  18.586  0.00  0.00    +0.000 C 
ATOM     20  O   UNL     1       1.463   8.305  17.517  0.00  0.00    +0.000 OA
ATOM     21  N   UNL     1       2.017   8.225  19.767  0.00  0.00    +0.000 N 
ATOM     22  H   UNL     1       2.048   8.794  20.607  0.00  0.00    +0.000 HD
BRANCH  19  24
ATOM     23  C   UNL     1       2.374  11.097  17.851  0.00  0.00    +0.000 C 
ATOM     24  C   UNL     1       1.605  10.369  18.675  0.00  0.00    +0.000 C 
ATOM     25 BR   UNL     1       0.458  11.179  19.908  0.00  0.00    +0.000 Br
ENDBRANCH  19  24
ENDBRANCH   1  21
TORSDOF 3
ENDMDL
MODEL 8
REMARK VINA RESULT:      -6.4      9.051     11.294
REMARK  Name = 
REMARK  4 active torsions:
REMARK  status: ('A' for Active; 'I' for Inactive)
REMARK    1  A    between atoms: C_2  and  C_4
REMARK    2  A    between atoms: N_6  and  C_7
REMARK    3  A    between atoms: C_14  and  C_15
REMARK    4  A    between atoms: C_19  and  C_20
REMARK                            x       y       z     vdW  Elec       q    Type
REMARK                         _______ _______ _______ _____ _____    ______ ____
ROOT
ATOM      1  C   UNL     1      -2.276  12.501  20.464  0.00  0.00    +0.000 A 
ATOM      2  C   UNL     1      -0.997  12.595  19.877  0.00  0.00    +0.000 A 
ATOM      3  C   UNL     1      -0.783  12.267  18.537  0.00  0.00    +0.000 A 
ATOM      4  C   UNL     1      -1.874  11.865  17.804  0.00  0.00    +0.000 A 
ATOM      5  C   UNL     1      -3.162  11.793  18.345  0.00  0.00    +0.000 A 
ATOM      6  C   UNL     1      -3.366  12.073  19.690  0.00  0.00    +0.000 A 
ATOM      7  C   UNL     1      -4.030  11.387  17.232  0.00  0.00    +0.000 C 
ATOM      8  C   UNL     1      -5.360  11.321  17.074  0.00  0.00    +0.000 C 
ATOM      9  C   UNL     1      -3.140  11.127  16.044  0.00  0.00    +0.000 C 
ATOM     10  O   UNL     1      -3.470  10.737  14.941  0.00  0.00    +0.000 OA
ATOM     11  N   UNL     1      -1.869  11.467  16.471  0.00  0.00    +0.000 N 
ATOM     12  H   UNL     1      -1.056  11.412  15.876  0.00  0.00    +0.000 HD
ENDROOT
BRANCH   8  13
ATOM     13  C   UNL     1      -6.279  11.734  18.075  0.00  0.00    +0.000 A 
ATOM     14  S   UNL     1      -6.783  10.622  19.286  0.00  0.00    +0.000 S 
ATOM     15  C   UNL     1      -7.741  11.798  20.064  0.00  0.00    +0.000 A 
ATOM     16  C   UNL     1      -7.740  12.993  19.386  0.00  0.00    +0.000 A 
ATOM     17  C   UNL     1      -6.913  12.963  18.215  0.00  0.00    +0.000 A 
ATOM     18  C   UNL     1      -6.763  14.122  17.279  0.00  0.00    +0.000 C 
ENDBRANCH   8  13
BRANCH   1  21
ATOM     19  C   UNL     1      -3.730  12.735  22.471  0.00  0.00    +0.000 C 
ATOM     20  O   UNL     1      -4.771  12.310  21.972  0.00  0.00    +0.000 OA
ATOM     21  N   UNL     1      -2.514  12.815  21.823  0.00  0.00    +0.000 N 
ATOM     22  H   UNL     1      -1.703  13.046  22.389  0.00  0.00    +0.000 HD
BRANCH  19  24
ATOM     23  C   UNL     1      -4.436  12.444  24.792  0.00  0.00    +0.000 C 
ATOM     24  C   UNL     1      -3.717  13.166  23.917  0.00  0.00    +0.000 C 
ATOM     25 BR   UNL     1      -2.740  14.663  24.458  0.00  0.00    +0.000 Br
ENDBRANCH  19  24
ENDBRANCH   1  21
TORSDOF 3
ENDMDL
MODEL 9
REMARK VINA RESULT:      -6.4      8.914     11.174
REMARK  Name = 
REMARK  4 active torsions:
REMARK  status: ('A' for Active; 'I' for Inactive)
REMARK    1  A    between atoms: C_2  and  C_4
REMARK    2  A    between atoms: N_6  and  C_7
REMARK    3  A    between atoms: C_14  and  C_15
REMARK    4  A    between atoms: C_19  and  C_20
REMARK                            x       y       z     vdW  Elec       q    Type
REMARK                         _______ _______ _______ _____ _____    ______ ____
ROOT
ATOM      1  C   UNL     1      -2.559  13.078  20.573  0.00  0.00    +0.000 A 
ATOM      2  C   UNL     1      -1.188  12.890  20.299  0.00  0.00    +0.000 A 
ATOM      3  C   UNL     1      -0.761  12.143  19.200  0.00  0.00    +0.000 A 
ATOM      4  C   UNL     1      -1.730  11.612  18.382  0.00  0.00    +0.000 A 
ATOM      5  C   UNL     1      -3.097  11.808  18.606  0.00  0.00    +0.000 A 
ATOM      6  C   UNL     1      -3.523  12.510  19.726  0.00  0.00    +0.000 A 
ATOM      7  C   UNL     1      -3.775  11.137  17.489  0.00  0.00    +0.000 C 
ATOM      8  C   UNL     1      -5.043  11.122  17.052  0.00  0.00    +0.000 C 
ATOM      9  C   UNL     1      -2.712  10.452  16.669  0.00  0.00    +0.000 C 
ATOM     10  O   UNL     1      -2.868   9.761  15.680  0.00  0.00    +0.000 OA
ATOM     11  N   UNL     1      -1.516  10.815  17.262  0.00  0.00    +0.000 N 
ATOM     12  H   UNL     1      -0.617  10.517  16.914  0.00  0.00    +0.000 HD
ENDROOT
BRANCH   8  13
ATOM     13  C   UNL     1      -6.074  11.894  17.648  0.00  0.00    +0.000 A 
ATOM     14  S   UNL     1      -6.408  13.476  17.061  0.00  0.00    +0.000 S 
ATOM     15  C   UNL     1      -7.697  13.686  18.157  0.00  0.00    +0.000 A 
ATOM     16  C   UNL     1      -7.834  12.610  19.001  0.00  0.00    +0.000 A 
ATOM     17  C   UNL     1      -6.882  11.573  18.732  0.00  0.00    +0.000 A 
ATOM     18  C   UNL     1      -6.791  10.307  19.528  0.00  0.00    +0.000 C 
ENDBRANCH   8  13
BRANCH   1  21
ATOM     19  C   UNL     1      -3.513  13.292  22.863  0.00  0.00    +0.000 C 
ATOM     20  O   UNL     1      -3.564  12.093  23.134  0.00  0.00    +0.000 OA
ATOM     21  N   UNL     1      -3.015  13.820  21.688  0.00  0.00    +0.000 N 
ATOM     22  H   UNL     1      -2.896  14.827  21.650  0.00  0.00    +0.000 HD
BRANCH  19  24
ATOM     23  C   UNL     1      -3.158  14.556  24.924  0.00  0.00    +0.000 C 
ATOM     24  C   UNL     1      -3.968  14.307  23.883  0.00  0.00    +0.000 C 
ATOM     25 BR   UNL     1      -5.614  15.171  23.698  0.00  0.00    +0.000 Br
ENDBRANCH  19  24
ENDBRANCH   1  21
TORSDOF 3
ENDMDL
