MODEL 1
REMARK VINA RESULT:      -7.5      0.000      0.000
REMARK  Name = 
REMARK  9 active torsions:
REMARK  status: ('A' for Active; 'I' for Inactive)
REMARK    1  A    between atoms: C_1  and  C_2
REMARK    2  A    between atoms: C_2  and  O_3
REMARK    3  A    between atoms: O_3  and  C_4
REMARK    4  A    between atoms: C_7  and  N_8
REMARK    5  A    between atoms: N_9  and  C_10
REMARK    6  A    between atoms: C_14  and  C_16
REMARK    7  A    between atoms: C_16  and  C_17
REMARK    8  A    between atoms: N_19  and  C_20
REMARK    9  A    between atoms: C_27  and  C_28
REMARK                            x       y       z     vdW  Elec       q    Type
REMARK                         _______ _______ _______ _____ _____    ______ ____
ROOT
ATOM      1  C   UNL     1       2.307   6.572  18.892  0.00  0.00    +0.000 C 
ATOM      2  C   UNL     1       3.255   5.527  19.446  0.00  0.00    +0.000 C 
ATOM      3  O   UNL     1       2.946   4.626  20.210  0.00  0.00    +0.000 OA
ATOM      4  N   UNL     1       4.513   5.841  18.882  0.00  0.00    +0.000 N 
ATOM      5  C   UNL     1       5.709   5.154  19.072  0.00  0.00    +0.000 C 
ATOM      6  O   UNL     1       5.824   4.094  19.694  0.00  0.00    +0.000 OA
ATOM      7  N   UNL     1       4.469   6.939  18.040  0.00  0.00    +0.000 NA
ATOM      8  C   UNL     1       3.246   7.355  18.018  0.00  0.00    +0.000 C 
ATOM      9  C   UNL     1       2.792   8.497  17.178  0.00  0.00    +0.000 C 
ENDROOT
BRANCH   1  11
ATOM     10  N   UNL     1       0.840   8.110  19.664  0.00  0.00    +0.000 NA
ATOM     11  N   UNL     1       1.854   7.447  19.978  0.00  0.00    +0.000 NA
BRANCH  10  15
ATOM     12  C   UNL     1      -0.275  11.038  22.519  0.00  0.00    +0.000 A 
ATOM     13  C   UNL     1       0.037  11.386  21.206  0.00  0.00    +0.000 A 
ATOM     14  C   UNL     1       0.393  10.400  20.279  0.00  0.00    +0.000 A 
ATOM     15  C   UNL     1       0.475   9.052  20.652  0.00  0.00    +0.000 A 
ATOM     16  C   UNL     1       0.166   8.717  21.979  0.00  0.00    +0.000 A 
ATOM     17  C   UNL     1      -0.193   9.704  22.910  0.00  0.00    +0.000 A 
BRANCH  12  18
ATOM     18  O   UNL     1      -0.630  12.078  23.331  0.00  0.00    +0.000 OA
BRANCH  18  20
ATOM     19  C   UNL     1      -3.008  12.187  23.281  0.00  0.00    +0.000 C 
ATOM     20  C   UNL     1      -1.719  12.884  22.879  0.00  0.00    +0.000 C 
ENDBRANCH  18  20
ENDBRANCH  12  18
ENDBRANCH  10  15
ENDBRANCH   1  11
BRANCH   5  21
ATOM     21  C   UNL     1       6.924   5.749  18.405  0.00  0.00    +0.000 C 
BRANCH  21  22
ATOM     22  C   UNL     1       7.281   5.089  17.101  0.00  0.00    +0.000 C 
ATOM     23  O   UNL     1       8.108   4.178  17.096  0.00  0.00    +0.000 OA
ATOM     24  N   UNL     1       6.599   5.567  15.993  0.00  0.00    +0.000 N 
ATOM     25  H   UNL     1       6.079   6.436  16.091  0.00  0.00    +0.000 HD
BRANCH  24  26
ATOM     26  C   UNL     1       6.676   5.021  14.686  0.00  0.00    +0.000 A 
ATOM     27  C   UNL     1       7.620   5.442  13.745  0.00  0.00    +0.000 A 
ATOM     28  C   UNL     1       7.653   4.897  12.459  0.00  0.00    +0.000 A 
ATOM     29  C   UNL     1       6.742   3.912  12.097  0.00  0.00    +0.000 A 
ATOM     30  C   UNL     1       5.808   3.463  13.029  0.00  0.00    +0.000 A 
ATOM     31  C   UNL     1       5.781   4.006  14.322  0.00  0.00    +0.000 A 
ENDBRANCH  24  26
ENDBRANCH  21  22
ENDBRANCH   5  21
TORSDOF 7
ENDMDL
MODEL 2
REMARK VINA RESULT:      -7.4      1.749      2.657
REMARK  Name = 
REMARK  9 active torsions:
REMARK  status: ('A' for Active; 'I' for Inactive)
REMARK    1  A    between atoms: C_1  and  C_2
REMARK    2  A    between atoms: C_2  and  O_3
REMARK    3  A    between atoms: O_3  and  C_4
REMARK    4  A    between atoms: C_7  and  N_8
REMARK    5  A    between atoms: N_9  and  C_10
REMARK    6  A    between atoms: C_14  and  C_16
REMARK    7  A    between atoms: C_16  and  C_17
REMARK    8  A    between atoms: N_19  and  C_20
REMARK    9  A    between atoms: C_27  and  C_28
REMARK                            x       y       z     vdW  Elec       q    Type
REMARK                         _______ _______ _______ _____ _____    ______ ____
ROOT
ATOM      1  C   UNL     1       3.420   4.846  19.358  0.00  0.00    +0.000 C 
ATOM      2  C   UNL     1       4.828   5.307  19.043  0.00  0.00    +0.000 C 
ATOM      3  O   UNL     1       5.691   5.561  19.869  0.00  0.00    +0.000 OA
ATOM      4  N   UNL     1       4.886   5.362  17.631  0.00  0.00    +0.000 N 
ATOM      5  C   UNL     1       5.986   5.714  16.853  0.00  0.00    +0.000 C 
ATOM      6  O   UNL     1       7.118   5.939  17.289  0.00  0.00    +0.000 OA
ATOM      7  N   UNL     1       3.700   4.983  17.027  0.00  0.00    +0.000 NA
ATOM      8  C   UNL     1       2.872   4.677  17.969  0.00  0.00    +0.000 C 
ATOM      9  C   UNL     1       1.496   4.171  17.708  0.00  0.00    +0.000 C 
ENDROOT
BRANCH   1  11
ATOM     10  N   UNL     1       2.384   6.852  19.219  0.00  0.00    +0.000 NA
ATOM     11  N   UNL     1       2.684   5.932  20.013  0.00  0.00    +0.000 NA
BRANCH  10  15
ATOM     12  C   UNL     1       0.651  10.120  21.288  0.00  0.00    +0.000 A 
ATOM     13  C   UNL     1       1.022   8.953  21.954  0.00  0.00    +0.000 A 
ATOM     14  C   UNL     1       1.601   7.891  21.250  0.00  0.00    +0.000 A 
ATOM     15  C   UNL     1       1.793   7.961  19.864  0.00  0.00    +0.000 A 
ATOM     16  C   UNL     1       1.409   9.139  19.206  0.00  0.00    +0.000 A 
ATOM     17  C   UNL     1       0.830  10.206  19.910  0.00  0.00    +0.000 A 
BRANCH  12  18
ATOM     18  O   UNL     1       0.118  11.099  22.077  0.00  0.00    +0.000 OA
BRANCH  18  20
ATOM     19  C   UNL     1      -1.952  11.734  23.070  0.00  0.00    +0.000 C 
ATOM     20  C   UNL     1      -0.862  10.677  23.027  0.00  0.00    +0.000 C 
ENDBRANCH  18  20
ENDBRANCH  12  18
ENDBRANCH  10  15
ENDBRANCH   1  11
BRANCH   5  21
ATOM     21  C   UNL     1       5.752   5.759  15.363  0.00  0.00    +0.000 C 
BRANCH  21  22
ATOM     22  C   UNL     1       6.122   4.484  14.655  0.00  0.00    +0.000 C 
ATOM     23  O   UNL     1       6.391   3.484  15.321  0.00  0.00    +0.000 OA
ATOM     24  N   UNL     1       6.096   4.549  13.271  0.00  0.00    +0.000 N 
ATOM     25  H   UNL     1       6.037   5.469  12.838  0.00  0.00    +0.000 HD
BRANCH  24  26
ATOM     26  C   UNL     1       6.285   3.449  12.395  0.00  0.00    +0.000 A 
ATOM     27  C   UNL     1       7.541   3.084  11.901  0.00  0.00    +0.000 A 
ATOM     28  C   UNL     1       7.688   2.007  11.023  0.00  0.00    +0.000 A 
ATOM     29  C   UNL     1       6.576   1.272  10.632  0.00  0.00    +0.000 A 
ATOM     30  C   UNL     1       5.318   1.607  11.132  0.00  0.00    +0.000 A 
ATOM     31  C   UNL     1       5.174   2.683  12.019  0.00  0.00    +0.000 A 
ENDBRANCH  24  26
ENDBRANCH  21  22
ENDBRANCH   5  21
TORSDOF 7
ENDMDL
MODEL 3
REMARK VINA RESULT:      -7.4      2.838      4.990
REMARK  Name = 
REMARK  9 active torsions:
REMARK  status: ('A' for Active; 'I' for Inactive)
REMARK    1  A    between atoms: C_1  and  C_2
REMARK    2  A    between atoms: C_2  and  O_3
REMARK    3  A    between atoms: O_3  and  C_4
REMARK    4  A    between atoms: C_7  and  N_8
REMARK    5  A    between atoms: N_9  and  C_10
REMARK    6  A    between atoms: C_14  and  C_16
REMARK    7  A    between atoms: C_16  and  C_17
REMARK    8  A    between atoms: N_19  and  C_20
REMARK    9  A    between atoms: C_27  and  C_28
REMARK                            x       y       z     vdW  Elec       q    Type
REMARK                         _______ _______ _______ _____ _____    ______ ____
ROOT
ATOM      1  C   UNL     1       0.585  10.698  21.139  0.00  0.00    +0.000 C 
ATOM      2  C   UNL     1       1.163  10.248  19.813  0.00  0.00    +0.000 C 
ATOM      3  O   UNL     1       1.317  10.958  18.832  0.00  0.00    +0.000 OA
ATOM      4  N   UNL     1       1.465   8.878  19.992  0.00  0.00    +0.000 N 
ATOM      5  C   UNL     1       2.038   8.020  19.058  0.00  0.00    +0.000 C 
ATOM      6  O   UNL     1       2.464   8.361  17.951  0.00  0.00    +0.000 OA
ATOM      7  N   UNL     1       1.160   8.420  21.262  0.00  0.00    +0.000 NA
ATOM      8  C   UNL     1       0.681   9.421  21.925  0.00  0.00    +0.000 C 
ATOM      9  C   UNL     1       0.283   9.330  23.356  0.00  0.00    +0.000 C 
ENDROOT
BRANCH   1  11
ATOM     10  N   UNL     1      -1.112  12.171  21.390  0.00  0.00    +0.000 NA
ATOM     11  N   UNL     1      -0.834  11.026  20.969  0.00  0.00    +0.000 NA
BRANCH  10  15
ATOM     12  C   UNL     1      -5.264  13.024  21.429  0.00  0.00    +0.000 A 
ATOM     13  C   UNL     1      -4.550  12.840  22.611  0.00  0.00    +0.000 A 
ATOM     14  C   UNL     1      -3.177  12.568  22.573  0.00  0.00    +0.000 A 
ATOM     15  C   UNL     1      -2.498  12.446  21.354  0.00  0.00    +0.000 A 
ATOM     16  C   UNL     1      -3.232  12.627  20.171  0.00  0.00    +0.000 A 
ATOM     17  C   UNL     1      -4.607  12.901  20.207  0.00  0.00    +0.000 A 
BRANCH  12  18
ATOM     18  O   UNL     1      -6.592  13.306  21.586  0.00  0.00    +0.000 OA
BRANCH  18  20
ATOM     19  C   UNL     1      -7.917  11.329  21.522  0.00  0.00    +0.000 C 
ATOM     20  C   UNL     1      -7.493  12.571  20.757  0.00  0.00    +0.000 C 
ENDBRANCH  18  20
ENDBRANCH  12  18
ENDBRANCH  10  15
ENDBRANCH   1  11
BRANCH   5  21
ATOM     21  C   UNL     1       2.186   6.581  19.489  0.00  0.00    +0.000 C 
BRANCH  21  22
ATOM     22  C   UNL     1       3.038   5.758  18.562  0.00  0.00    +0.000 C 
ATOM     23  O   UNL     1       2.551   4.765  18.022  0.00  0.00    +0.000 OA
ATOM     24  N   UNL     1       4.329   6.229  18.374  0.00  0.00    +0.000 N 
ATOM     25  H   UNL     1       4.671   6.948  19.007  0.00  0.00    +0.000 HD
BRANCH  24  26
ATOM     26  C   UNL     1       5.269   5.694  17.456  0.00  0.00    +0.000 A 
ATOM     27  C   UNL     1       6.384   4.955  17.861  0.00  0.00    +0.000 A 
ATOM     28  C   UNL     1       7.302   4.462  16.931  0.00  0.00    +0.000 A 
ATOM     29  C   UNL     1       7.113   4.697  15.575  0.00  0.00    +0.000 A 
ATOM     30  C   UNL     1       5.995   5.413  15.150  0.00  0.00    +0.000 A 
ATOM     31  C   UNL     1       5.070   5.900  16.084  0.00  0.00    +0.000 A 
ENDBRANCH  24  26
ENDBRANCH  21  22
ENDBRANCH   5  21
TORSDOF 7
ENDMDL
MODEL 4
REMARK VINA RESULT:      -7.3      4.278      8.690
REMARK  Name = 
REMARK  9 active torsions:
REMARK  status: ('A' for Active; 'I' for Inactive)
REMARK    1  A    between atoms: C_1  and  C_2
REMARK    2  A    between atoms: C_2  and  O_3
REMARK    3  A    between atoms: O_3  and  C_4
REMARK    4  A    between atoms: C_7  and  N_8
REMARK    5  A    between atoms: N_9  and  C_10
REMARK    6  A    between atoms: C_14  and  C_16
REMARK    7  A    between atoms: C_16  and  C_17
REMARK    8  A    between atoms: N_19  and  C_20
REMARK    9  A    between atoms: C_27  and  C_28
REMARK                            x       y       z     vdW  Elec       q    Type
REMARK                         _______ _______ _______ _____ _____    ______ ____
ROOT
ATOM      1  C   UNL     1       7.258   6.467  17.288  0.00  0.00    +0.000 C 
ATOM      2  C   UNL     1       5.794   6.396  16.906  0.00  0.00    +0.000 C 
ATOM      3  O   UNL     1       5.331   6.701  15.818  0.00  0.00    +0.000 OA
ATOM      4  N   UNL     1       5.138   5.912  18.061  0.00  0.00    +0.000 N 
ATOM      5  C   UNL     1       3.778   5.653  18.204  0.00  0.00    +0.000 C 
ATOM      6  O   UNL     1       2.946   5.719  17.295  0.00  0.00    +0.000 OA
ATOM      7  N   UNL     1       6.007   5.661  19.109  0.00  0.00    +0.000 NA
ATOM      8  C   UNL     1       7.197   5.950  18.697  0.00  0.00    +0.000 C 
ATOM      9  C   UNL     1       8.414   5.761  19.534  0.00  0.00    +0.000 C 
ENDROOT
BRANCH   1  11
ATOM     10  N   UNL     1       8.341   8.135  18.364  0.00  0.00    +0.000 NA
ATOM     11  N   UNL     1       7.685   7.869  17.332  0.00  0.00    +0.000 NA
BRANCH  10  15
ATOM     12  C   UNL     1       9.346  12.228  18.821  0.00  0.00    +0.000 A 
ATOM     13  C   UNL     1       9.743  11.274  19.756  0.00  0.00    +0.000 A 
ATOM     14  C   UNL     1       9.407   9.927  19.578  0.00  0.00    +0.000 A 
ATOM     15  C   UNL     1       8.643   9.511  18.480  0.00  0.00    +0.000 A 
ATOM     16  C   UNL     1       8.244  10.484  17.551  0.00  0.00    +0.000 A 
ATOM     17  C   UNL     1       8.582  11.834  17.726  0.00  0.00    +0.000 A 
BRANCH  12  18
ATOM     18  O   UNL     1       9.749  13.507  19.084  0.00  0.00    +0.000 OA
BRANCH  18  20
ATOM     19  C   UNL     1      11.862  14.430  19.678  0.00  0.00    +0.000 C 
ATOM     20  C   UNL     1      11.012  13.892  18.539  0.00  0.00    +0.000 C 
ENDBRANCH  18  20
ENDBRANCH  12  18
ENDBRANCH  10  15
ENDBRANCH   1  11
BRANCH   5  21
ATOM     21  C   UNL     1       3.331   5.208  19.575  0.00  0.00    +0.000 C 
BRANCH  21  22
ATOM     22  C   UNL     1       2.203   6.028  20.138  0.00  0.00    +0.000 C 
ATOM     23  O   UNL     1       1.287   5.460  20.733  0.00  0.00    +0.000 OA
ATOM     24  N   UNL     1       2.319   7.397  19.954  0.00  0.00    +0.000 N 
ATOM     25  H   UNL     1       3.021   7.731  19.297  0.00  0.00    +0.000 HD
BRANCH  24  26
ATOM     26  C   UNL     1       1.448   8.374  20.501  0.00  0.00    +0.000 A 
ATOM     27  C   UNL     1       1.117   8.414  21.859  0.00  0.00    +0.000 A 
ATOM     28  C   UNL     1       0.239   9.378  22.361  0.00  0.00    +0.000 A 
ATOM     29  C   UNL     1      -0.318  10.323  21.508  0.00  0.00    +0.000 A 
ATOM     30  C   UNL     1       0.018  10.313  20.155  0.00  0.00    +0.000 A 
ATOM     31  C   UNL     1       0.906   9.350  19.654  0.00  0.00    +0.000 A 
ENDBRANCH  24  26
ENDBRANCH  21  22
ENDBRANCH   5  21
TORSDOF 7
ENDMDL
MODEL 5
REMARK VINA RESULT:      -7.2      2.934      5.065
REMARK  Name = 
REMARK  9 active torsions:
REMARK  status: ('A' for Active; 'I' for Inactive)
REMARK    1  A    between atoms: C_1  and  C_2
REMARK    2  A    between atoms: C_2  and  O_3
REMARK    3  A    between atoms: O_3  and  C_4
REMARK    4  A    between atoms: C_7  and  N_8
REMARK    5  A    between atoms: N_9  and  C_10
REMARK    6  A    between atoms: C_14  and  C_16
REMARK    7  A    between atoms: C_16  and  C_17
REMARK    8  A    between atoms: N_19  and  C_20
REMARK    9  A    between atoms: C_27  and  C_28
REMARK                            x       y       z     vdW  Elec       q    Type
REMARK                         _______ _______ _______ _____ _____    ______ ____
ROOT
ATOM      1  C   UNL     1       0.493  10.952  20.965  0.00  0.00    +0.000 C 
ATOM      2  C   UNL     1       1.055  10.589  19.605  0.00  0.00    +0.000 C 
ATOM      3  O   UNL     1       1.234  11.368  18.683  0.00  0.00    +0.000 OA
ATOM      4  N   UNL     1       1.307   9.199  19.675  0.00  0.00    +0.000 N 
ATOM      5  C   UNL     1       1.850   8.397  18.674  0.00  0.00    +0.000 C 
ATOM      6  O   UNL     1       2.287   8.810  17.596  0.00  0.00    +0.000 OA
ATOM      7  N   UNL     1       0.987   8.653  20.905  0.00  0.00    +0.000 NA
ATOM      8  C   UNL     1       0.544   9.614  21.646  0.00  0.00    +0.000 C 
ATOM      9  C   UNL     1       0.142   9.424  23.067  0.00  0.00    +0.000 C 
ENDROOT
BRANCH   1  11
ATOM     10  N   UNL     1      -1.237  12.252  21.622  0.00  0.00    +0.000 NA
ATOM     11  N   UNL     1      -0.913  11.343  20.826  0.00  0.00    +0.000 NA
BRANCH  10  15
ATOM     12  C   UNL     1      -5.385  13.090  21.376  0.00  0.00    +0.000 A 
ATOM     13  C   UNL     1      -4.600  12.964  20.231  0.00  0.00    +0.000 A 
ATOM     14  C   UNL     1      -3.234  12.677  20.338  0.00  0.00    +0.000 A 
ATOM     15  C   UNL     1      -2.619  12.542  21.589  0.00  0.00    +0.000 A 
ATOM     16  C   UNL     1      -3.420  12.679  22.733  0.00  0.00    +0.000 A 
ATOM     17  C   UNL     1      -4.790  12.964  22.629  0.00  0.00    +0.000 A 
BRANCH  12  18
ATOM     18  O   UNL     1      -6.708  13.348  21.153  0.00  0.00    +0.000 OA
BRANCH  18  20
ATOM     19  C   UNL     1      -7.808  11.237  21.107  0.00  0.00    +0.000 C 
ATOM     20  C   UNL     1      -7.636  12.537  21.874  0.00  0.00    +0.000 C 
ENDBRANCH  18  20
ENDBRANCH  12  18
ENDBRANCH  10  15
ENDBRANCH   1  11
BRANCH   5  21
ATOM     21  C   UNL     1       1.946   6.925  18.988  0.00  0.00    +0.000 C 
BRANCH  21  22
ATOM     22  C   UNL     1       3.298   6.333  18.696  0.00  0.00    +0.000 C 
ATOM     23  O   UNL     1       3.968   5.880  19.624  0.00  0.00    +0.000 OA
ATOM     24  N   UNL     1       3.662   6.326  17.359  0.00  0.00    +0.000 N 
ATOM     25  H   UNL     1       3.110   6.885  16.712  0.00  0.00    +0.000 HD
BRANCH  24  26
ATOM     26  C   UNL     1       4.827   5.711  16.830  0.00  0.00    +0.000 A 
ATOM     27  C   UNL     1       4.799   4.474  16.181  0.00  0.00    +0.000 A 
ATOM     28  C   UNL     1       5.969   3.887  15.691  0.00  0.00    +0.000 A 
ATOM     29  C   UNL     1       7.188   4.538  15.839  0.00  0.00    +0.000 A 
ATOM     30  C   UNL     1       7.232   5.784  16.464  0.00  0.00    +0.000 A 
ATOM     31  C   UNL     1       6.055   6.375  16.948  0.00  0.00    +0.000 A 
ENDBRANCH  24  26
ENDBRANCH  21  22
ENDBRANCH   5  21
TORSDOF 7
ENDMDL
MODEL 6
REMARK VINA RESULT:      -7.2      4.452      8.769
REMARK  Name = 
REMARK  9 active torsions:
REMARK  status: ('A' for Active; 'I' for Inactive)
REMARK    1  A    between atoms: C_1  and  C_2
REMARK    2  A    between atoms: C_2  and  O_3
REMARK    3  A    between atoms: O_3  and  C_4
REMARK    4  A    between atoms: C_7  and  N_8
REMARK    5  A    between atoms: N_9  and  C_10
REMARK    6  A    between atoms: C_14  and  C_16
REMARK    7  A    between atoms: C_16  and  C_17
REMARK    8  A    between atoms: N_19  and  C_20
REMARK    9  A    between atoms: C_27  and  C_28
REMARK                            x       y       z     vdW  Elec       q    Type
REMARK                         _______ _______ _______ _____ _____    ______ ____
ROOT
ATOM      1  C   UNL     1       7.827   6.487  18.177  0.00  0.00    +0.000 C 
ATOM      2  C   UNL     1       6.449   6.616  17.561  0.00  0.00    +0.000 C 
ATOM      3  O   UNL     1       6.197   7.162  16.499  0.00  0.00    +0.000 OA
ATOM      4  N   UNL     1       5.580   5.976  18.475  0.00  0.00    +0.000 N 
ATOM      5  C   UNL     1       4.203   5.812  18.344  0.00  0.00    +0.000 C 
ATOM      6  O   UNL     1       3.545   6.122  17.347  0.00  0.00    +0.000 OA
ATOM      7  N   UNL     1       6.240   5.456  19.574  0.00  0.00    +0.000 NA
ATOM      8  C   UNL     1       7.497   5.716  19.423  0.00  0.00    +0.000 C 
ATOM      9  C   UNL     1       8.540   5.267  20.387  0.00  0.00    +0.000 C 
ENDROOT
BRANCH   1  11
ATOM     10  N   UNL     1       7.875   8.722  17.833  0.00  0.00    +0.000 NA
ATOM     11  N   UNL     1       8.312   7.813  18.573  0.00  0.00    +0.000 NA
BRANCH  10  15
ATOM     12  C   UNL     1       9.677  12.438  18.788  0.00  0.00    +0.000 A 
ATOM     13  C   UNL     1       9.999  11.274  19.485  0.00  0.00    +0.000 A 
ATOM     14  C   UNL     1       9.397  10.057  19.145  0.00  0.00    +0.000 A 
ATOM     15  C   UNL     1       8.441   9.983  18.124  0.00  0.00    +0.000 A 
ATOM     16  C   UNL     1       8.122  11.164  17.435  0.00  0.00    +0.000 A 
ATOM     17  C   UNL     1       8.725  12.385  17.773  0.00  0.00    +0.000 A 
BRANCH  12  18
ATOM     18  O   UNL     1      10.342  13.562  19.189  0.00  0.00    +0.000 OA
BRANCH  18  20
ATOM     19  C   UNL     1      12.328  14.797  19.637  0.00  0.00    +0.000 C 
ATOM     20  C   UNL     1      11.739  13.410  19.444  0.00  0.00    +0.000 C 
ENDBRANCH  18  20
ENDBRANCH  12  18
ENDBRANCH  10  15
ENDBRANCH   1  11
BRANCH   5  21
ATOM     21  C   UNL     1       3.505   5.151  19.507  0.00  0.00    +0.000 C 
BRANCH  21  22
ATOM     22  C   UNL     1       2.344   5.943  20.043  0.00  0.00    +0.000 C 
ATOM     23  O   UNL     1       1.430   5.353  20.619  0.00  0.00    +0.000 OA
ATOM     24  N   UNL     1       2.429   7.314  19.856  0.00  0.00    +0.000 N 
ATOM     25  H   UNL     1       3.136   7.664  19.213  0.00  0.00    +0.000 HD
BRANCH  24  26
ATOM     26  C   UNL     1       1.522   8.270  20.381  0.00  0.00    +0.000 A 
ATOM     27  C   UNL     1       0.890   9.229  19.584  0.00  0.00    +0.000 A 
ATOM     28  C   UNL     1       0.018  10.170  20.138  0.00  0.00    +0.000 A 
ATOM     29  C   UNL     1      -0.241  10.158  21.503  0.00  0.00    +0.000 A 
ATOM     30  C   UNL     1       0.362   9.195  22.310  0.00  0.00    +0.000 A 
ATOM     31  C   UNL     1       1.230   8.247  21.752  0.00  0.00    +0.000 A 
ENDBRANCH  24  26
ENDBRANCH  21  22
ENDBRANCH   5  21
TORSDOF 7
ENDMDL
MODEL 7
REMARK VINA RESULT:      -7.1      0.334      1.355
REMARK  Name = 
REMARK  9 active torsions:
REMARK  status: ('A' for Active; 'I' for Inactive)
REMARK    1  A    between atoms: C_1  and  C_2
REMARK    2  A    between atoms: C_2  and  O_3
REMARK    3  A    between atoms: O_3  and  C_4
REMARK    4  A    between atoms: C_7  and  N_8
REMARK    5  A    between atoms: N_9  and  C_10
REMARK    6  A    between atoms: C_14  and  C_16
REMARK    7  A    between atoms: C_16  and  C_17
REMARK    8  A    between atoms: N_19  and  C_20
REMARK    9  A    between atoms: C_27  and  C_28
REMARK                            x       y       z     vdW  Elec       q    Type
REMARK                         _______ _______ _______ _____ _____    ______ ____
ROOT
ATOM      1  C   UNL     1       2.407   6.538  18.929  0.00  0.00    +0.000 C 
ATOM      2  C   UNL     1       3.419   5.598  19.552  0.00  0.00    +0.000 C 
ATOM      3  O   UNL     1       3.176   4.766  20.411  0.00  0.00    +0.000 OA
ATOM      4  N   UNL     1       4.644   5.910  18.918  0.00  0.00    +0.000 N 
ATOM      5  C   UNL     1       5.876   5.300  19.135  0.00  0.00    +0.000 C 
ATOM      6  O   UNL     1       6.061   4.314  19.856  0.00  0.00    +0.000 OA
ATOM      7  N   UNL     1       4.523   6.914  17.973  0.00  0.00    +0.000 NA
ATOM      8  C   UNL     1       3.282   7.271  17.951  0.00  0.00    +0.000 C 
ATOM      9  C   UNL     1       2.750   8.301  17.017  0.00  0.00    +0.000 C 
ENDROOT
BRANCH   1  11
ATOM     10  N   UNL     1       0.880   8.064  19.602  0.00  0.00    +0.000 NA
ATOM     11  N   UNL     1       1.944   7.497  19.937  0.00  0.00    +0.000 NA
BRANCH  10  15
ATOM     12  C   UNL     1      -0.258  11.025  22.414  0.00  0.00    +0.000 A 
ATOM     13  C   UNL     1      -0.239   9.673  22.751  0.00  0.00    +0.000 A 
ATOM     14  C   UNL     1       0.150   8.714  21.808  0.00  0.00    +0.000 A 
ATOM     15  C   UNL     1       0.497   9.084  20.501  0.00  0.00    +0.000 A 
ATOM     16  C   UNL     1       0.465  10.449  20.175  0.00  0.00    +0.000 A 
ATOM     17  C   UNL     1       0.078  11.411  21.119  0.00  0.00    +0.000 A 
BRANCH  12  18
ATOM     18  O   UNL     1      -0.632  11.873  23.418  0.00  0.00    +0.000 OA
BRANCH  18  20
ATOM     19  C   UNL     1      -1.011  14.223  23.379  0.00  0.00    +0.000 C 
ATOM     20  C   UNL     1      -1.608  12.858  23.079  0.00  0.00    +0.000 C 
ENDBRANCH  18  20
ENDBRANCH  12  18
ENDBRANCH  10  15
ENDBRANCH   1  11
BRANCH   5  21
ATOM     21  C   UNL     1       7.043   5.878  18.372  0.00  0.00    +0.000 C 
BRANCH  21  22
ATOM     22  C   UNL     1       7.334   5.163  17.082  0.00  0.00    +0.000 C 
ATOM     23  O   UNL     1       8.132   4.225  17.083  0.00  0.00    +0.000 OA
ATOM     24  N   UNL     1       6.632   5.624  15.980  0.00  0.00    +0.000 N 
ATOM     25  H   UNL     1       6.142   6.513  16.064  0.00  0.00    +0.000 HD
BRANCH  24  26
ATOM     26  C   UNL     1       6.647   5.030  14.692  0.00  0.00    +0.000 A 
ATOM     27  C   UNL     1       5.699   4.089  14.282  0.00  0.00    +0.000 A 
ATOM     28  C   UNL     1       5.756   3.508  13.013  0.00  0.00    +0.000 A 
ATOM     29  C   UNL     1       6.765   3.868  12.129  0.00  0.00    +0.000 A 
ATOM     30  C   UNL     1       7.707   4.822  12.510  0.00  0.00    +0.000 A 
ATOM     31  C   UNL     1       7.643   5.410  13.782  0.00  0.00    +0.000 A 
ENDBRANCH  24  26
ENDBRANCH  21  22
ENDBRANCH   5  21
TORSDOF 7
ENDMDL
MODEL 8
REMARK VINA RESULT:      -7.1      4.889      9.716
REMARK  Name = 
REMARK  9 active torsions:
REMARK  status: ('A' for Active; 'I' for Inactive)
REMARK    1  A    between atoms: C_1  and  C_2
REMARK    2  A    between atoms: C_2  and  O_3
REMARK    3  A    between atoms: O_3  and  C_4
REMARK    4  A    between atoms: C_7  and  N_8
REMARK    5  A    between atoms: N_9  and  C_10
REMARK    6  A    between atoms: C_14  and  C_16
REMARK    7  A    between atoms: C_16  and  C_17
REMARK    8  A    between atoms: N_19  and  C_20
REMARK    9  A    between atoms: C_27  and  C_28
REMARK                            x       y       z     vdW  Elec       q    Type
REMARK                         _______ _______ _______ _____ _____    ______ ____
ROOT
ATOM      1  C   UNL     1       0.257  12.836  21.577  0.00  0.00    +0.000 C 
ATOM      2  C   UNL     1      -1.003  12.409  22.300  0.00  0.00    +0.000 C 
ATOM      3  O   UNL     1      -1.041  11.831  23.375  0.00  0.00    +0.000 OA
ATOM      4  N   UNL     1      -2.064  12.831  21.465  0.00  0.00    +0.000 N 
ATOM      5  C   UNL     1      -3.427  12.686  21.707  0.00  0.00    +0.000 C 
ATOM      6  O   UNL     1      -3.917  12.248  22.751  0.00  0.00    +0.000 OA
ATOM      7  N   UNL     1      -1.626  13.475  20.321  0.00  0.00    +0.000 NA
ATOM      8  C   UNL     1      -0.335  13.502  20.367  0.00  0.00    +0.000 C 
ATOM      9  C   UNL     1       0.501  14.163  19.328  0.00  0.00    +0.000 C 
ENDROOT
BRANCH   1  11
ATOM     10  N   UNL     1       0.300  10.906  20.397  0.00  0.00    +0.000 NA
ATOM     11  N   UNL     1       0.992  11.647  21.131  0.00  0.00    +0.000 NA
BRANCH  10  15
ATOM     12  C   UNL     1       2.203   7.214  19.548  0.00  0.00    +0.000 A 
ATOM     13  C   UNL     1       1.677   7.487  20.810  0.00  0.00    +0.000 A 
ATOM     14  C   UNL     1       1.045   8.710  21.063  0.00  0.00    +0.000 A 
ATOM     15  C   UNL     1       0.953   9.696  20.072  0.00  0.00    +0.000 A 
ATOM     16  C   UNL     1       1.493   9.410  18.809  0.00  0.00    +0.000 A 
ATOM     17  C   UNL     1       2.126   8.184  18.552  0.00  0.00    +0.000 A 
BRANCH  12  18
ATOM     18  O   UNL     1       2.776   5.982  19.408  0.00  0.00    +0.000 OA
BRANCH  18  20
ATOM     19  C   UNL     1       2.641   3.889  20.535  0.00  0.00    +0.000 C 
ATOM     20  C   UNL     1       1.917   4.861  19.620  0.00  0.00    +0.000 C 
ENDBRANCH  18  20
ENDBRANCH  12  18
ENDBRANCH  10  15
ENDBRANCH   1  11
BRANCH   5  21
ATOM     21  C   UNL     1      -4.346  13.165  20.610  0.00  0.00    +0.000 C 
BRANCH  21  22
ATOM     22  C   UNL     1      -4.477  12.196  19.467  0.00  0.00    +0.000 C 
ATOM     23  O   UNL     1      -5.547  11.611  19.296  0.00  0.00    +0.000 OA
ATOM     24  N   UNL     1      -3.351  12.069  18.669  0.00  0.00    +0.000 N 
ATOM     25  H   UNL     1      -2.477  12.462  19.013  0.00  0.00    +0.000 HD
BRANCH  24  26
ATOM     26  C   UNL     1      -3.278  11.315  17.470  0.00  0.00    +0.000 A 
ATOM     27  C   UNL     1      -4.115  11.552  16.376  0.00  0.00    +0.000 A 
ATOM     28  C   UNL     1      -4.031  10.776  15.218  0.00  0.00    +0.000 A 
ATOM     29  C   UNL     1      -3.096   9.750  15.135  0.00  0.00    +0.000 A 
ATOM     30  C   UNL     1      -2.237   9.514  16.207  0.00  0.00    +0.000 A 
ATOM     31  C   UNL     1      -2.318  10.299  17.365  0.00  0.00    +0.000 A 
ENDBRANCH  24  26
ENDBRANCH  21  22
ENDBRANCH   5  21
TORSDOF 7
ENDMDL
MODEL 9
REMARK VINA RESULT:      -7.1      4.646      9.787
REMARK  Name = 
REMARK  9 active torsions:
REMARK  status: ('A' for Active; 'I' for Inactive)
REMARK    1  A    between atoms: C_1  and  C_2
REMARK    2  A    between atoms: C_2  and  O_3
REMARK    3  A    between atoms: O_3  and  C_4
REMARK    4  A    between atoms: C_7  and  N_8
REMARK    5  A    between atoms: N_9  and  C_10
REMARK    6  A    between atoms: C_14  and  C_16
REMARK    7  A    between atoms: C_16  and  C_17
REMARK    8  A    between atoms: N_19  and  C_20
REMARK    9  A    between atoms: C_27  and  C_28
REMARK                            x       y       z     vdW  Elec       q    Type
REMARK                         _______ _______ _______ _____ _____    ______ ____
ROOT
ATOM      1  C   UNL     1       0.449  12.902  21.454  0.00  0.00    +0.000 C 
ATOM      2  C   UNL     1      -0.768  12.395  22.200  0.00  0.00    +0.000 C 
ATOM      3  O   UNL     1      -0.744  11.722  23.218  0.00  0.00    +0.000 OA
ATOM      4  N   UNL     1      -1.874  12.874  21.460  0.00  0.00    +0.000 N 
ATOM      5  C   UNL     1      -3.221  12.688  21.757  0.00  0.00    +0.000 C 
ATOM      6  O   UNL     1      -3.652  12.150  22.781  0.00  0.00    +0.000 OA
ATOM      7  N   UNL     1      -1.503  13.624  20.358  0.00  0.00    +0.000 NA
ATOM      8  C   UNL     1      -0.212  13.666  20.342  0.00  0.00    +0.000 C 
ATOM      9  C   UNL     1       0.563  14.429  19.324  0.00  0.00    +0.000 C 
ENDROOT
BRANCH   1  11
ATOM     10  N   UNL     1       0.456  11.096  20.093  0.00  0.00    +0.000 NA
ATOM     11  N   UNL     1       1.172  11.770  20.867  0.00  0.00    +0.000 NA
BRANCH  10  15
ATOM     12  C   UNL     1       2.347   7.523  18.818  0.00  0.00    +0.000 A 
ATOM     13  C   UNL     1       1.901   7.681  20.130  0.00  0.00    +0.000 A 
ATOM     14  C   UNL     1       1.271   8.866  20.524  0.00  0.00    +0.000 A 
ATOM     15  C   UNL     1       1.101   9.929  19.627  0.00  0.00    +0.000 A 
ATOM     16  C   UNL     1       1.561   9.758  18.312  0.00  0.00    +0.000 A 
ATOM     17  C   UNL     1       2.191   8.570  17.913  0.00  0.00    +0.000 A 
BRANCH  12  18
ATOM     18  O   UNL     1       2.926   6.317  18.539  0.00  0.00    +0.000 OA
BRANCH  18  20
ATOM     19  C   UNL     1       1.853   4.196  18.673  0.00  0.00    +0.000 C 
ATOM     20  C   UNL     1       2.627   5.252  19.442  0.00  0.00    +0.000 C 
ENDBRANCH  18  20
ENDBRANCH  12  18
ENDBRANCH  10  15
ENDBRANCH   1  11
BRANCH   5  21
ATOM     21  C   UNL     1      -4.201  13.248  20.756  0.00  0.00    +0.000 C 
BRANCH  21  22
ATOM     22  C   UNL     1      -4.456  12.338  19.586  0.00  0.00    +0.000 C 
ATOM     23  O   UNL     1      -5.605  11.960  19.359  0.00  0.00    +0.000 OA
ATOM     24  N   UNL     1      -3.337  12.021  18.830  0.00  0.00    +0.000 N 
ATOM     25  H   UNL     1      -2.422  12.244  19.217  0.00  0.00    +0.000 HD
BRANCH  24  26
ATOM     26  C   UNL     1      -3.350  11.286  17.617  0.00  0.00    +0.000 A 
ATOM     27  C   UNL     1      -2.549  10.160  17.408  0.00  0.00    +0.000 A 
ATOM     28  C   UNL     1      -2.571   9.472  16.193  0.00  0.00    +0.000 A 
ATOM     29  C   UNL     1      -3.404   9.899  15.166  0.00  0.00    +0.000 A 
ATOM     30  C   UNL     1      -4.227  11.007  15.364  0.00  0.00    +0.000 A 
ATOM     31  C   UNL     1      -4.210  11.691  16.588  0.00  0.00    +0.000 A 
ENDBRANCH  24  26
ENDBRANCH  21  22
ENDBRANCH   5  21
TORSDOF 7
ENDMDL
