MODEL 1
REMARK VINA RESULT:      -7.8      0.000      0.000
REMARK  Name = 
REMARK  5 active torsions:
REMARK  status: ('A' for Active; 'I' for Inactive)
REMARK    1  A    between atoms: C_1  and  C_2
REMARK    2  A    between atoms: C_2  and  C_3
REMARK    3  A    between atoms: C_2  and  N_9
REMARK    4  A    between atoms: N_7  and  C_8
REMARK    5  A    between atoms: C_13  and  C_14
REMARK                            x       y       z     vdW  Elec       q    Type
REMARK                         _______ _______ _______ _____ _____    ______ ____
ROOT
ATOM      1  N   UNL     1       4.830   4.398  17.781  0.00  0.00    +0.000 NA
ATOM      2  C   UNL     1       4.978   3.671  19.054  0.00  0.00    +0.000 C 
ATOM      3  C   UNL     1       3.617   3.455  19.720  0.00  0.00    +0.000 C 
ATOM      4  C   UNL     1       2.925   4.784  20.001  0.00  0.00    +0.000 C 
ATOM      5  C   UNL     1       2.802   5.614  18.717  0.00  0.00    +0.000 C 
ATOM      6  C   UNL     1       4.172   5.707  18.006  0.00  0.00    +0.000 C 
ENDROOT
BRANCH   5   7
ATOM      7  C   UNL     1       2.304   7.004  19.036  0.00  0.00    +0.000 A 
ATOM      8  N   UNL     1       1.859   7.367  20.224  0.00  0.00    +0.000 NA
ATOM      9  C   UNL     1       1.472   8.685  20.194  0.00  0.00    +0.000 A 
ATOM     10  C   UNL     1       1.624   9.316  18.979  0.00  0.00    +0.000 A 
ATOM     11  S   UNL     1       2.271   8.238  17.830  0.00  0.00    +0.000 S 
ATOM     12  C   UNL     1       1.240  10.729  18.694  0.00  0.00    +0.000 C 
ATOM     13  C   UNL     1       1.015  11.494  20.014  0.00  0.00    +0.000 C 
ATOM     14  C   UNL     1       0.222  10.668  21.042  0.00  0.00    +0.000 C 
ATOM     15  C   UNL     1       0.954   9.368  21.412  0.00  0.00    +0.000 C 
ENDBRANCH   5   7
BRANCH   1  17
ATOM     16  C   UNL     1       6.080   4.243  15.549  0.00  0.00    +0.000 C 
ATOM     17  C   UNL     1       6.122   4.568  17.056  0.00  0.00    +0.000 C 
BRANCH  17  18
ATOM     18  C   UNL     1       6.721   5.934  17.264  0.00  0.00    +0.000 A 
ATOM     19  N   UNL     1       6.597   6.991  16.480  0.00  0.00    +0.000 NA
ATOM     20  N   UNL     1       7.335   7.994  17.055  0.00  0.00    +0.000 NA
ATOM     21  N   UNL     1       7.906   7.577  18.174  0.00  0.00    +0.000 NA
ATOM     22  N   UNL     1       7.524   6.298  18.309  0.00  0.00    +0.000 N 
ATOM     23  C   UNL     1       7.957   5.527  19.442  0.00  0.00    +0.000 C 
ENDBRANCH  17  18
ENDBRANCH   1  17
TORSDOF 3
ENDMDL
MODEL 2
REMARK VINA RESULT:      -7.5      0.858      1.385
REMARK  Name = 
REMARK  5 active torsions:
REMARK  status: ('A' for Active; 'I' for Inactive)
REMARK    1  A    between atoms: C_1  and  C_2
REMARK    2  A    between atoms: C_2  and  C_3
REMARK    3  A    between atoms: C_2  and  N_9
REMARK    4  A    between atoms: N_7  and  C_8
REMARK    5  A    between atoms: C_13  and  C_14
REMARK                            x       y       z     vdW  Elec       q    Type
REMARK                         _______ _______ _______ _____ _____    ______ ____
ROOT
ATOM      1  N   UNL     1       4.809   4.303  17.869  0.00  0.00    +0.000 NA
ATOM      2  C   UNL     1       4.954   3.621  19.166  0.00  0.00    +0.000 C 
ATOM      3  C   UNL     1       3.591   3.424  19.835  0.00  0.00    +0.000 C 
ATOM      4  C   UNL     1       2.895   4.760  20.067  0.00  0.00    +0.000 C 
ATOM      5  C   UNL     1       2.775   5.546  18.754  0.00  0.00    +0.000 C 
ATOM      6  C   UNL     1       4.148   5.618  18.046  0.00  0.00    +0.000 C 
ENDROOT
BRANCH   5   7
ATOM      7  C   UNL     1       2.273   6.945  19.024  0.00  0.00    +0.000 A 
ATOM      8  N   UNL     1       2.311   7.920  18.136  0.00  0.00    +0.000 NA
ATOM      9  C   UNL     1       1.791   9.068  18.682  0.00  0.00    +0.000 A 
ATOM     10  C   UNL     1       1.361   8.958  19.986  0.00  0.00    +0.000 A 
ATOM     11  S   UNL     1       1.609   7.374  20.558  0.00  0.00    +0.000 S 
ATOM     12  C   UNL     1       0.796  10.075  20.799  0.00  0.00    +0.000 C 
ATOM     13  C   UNL     1       0.404  11.252  19.883  0.00  0.00    +0.000 C 
ATOM     14  C   UNL     1       1.466  11.537  18.807  0.00  0.00    +0.000 C 
ATOM     15  C   UNL     1       1.685  10.324  17.888  0.00  0.00    +0.000 C 
ENDBRANCH   5   7
BRANCH   1  17
ATOM     16  C   UNL     1       6.070   4.066  15.650  0.00  0.00    +0.000 C 
ATOM     17  C   UNL     1       6.104   4.451  17.143  0.00  0.00    +0.000 C 
BRANCH  17  18
ATOM     18  C   UNL     1       6.694   5.827  17.299  0.00  0.00    +0.000 A 
ATOM     19  N   UNL     1       6.563   6.854  16.477  0.00  0.00    +0.000 NA
ATOM     20  N   UNL     1       7.295   7.882  17.012  0.00  0.00    +0.000 NA
ATOM     21  N   UNL     1       7.869   7.512  18.146  0.00  0.00    +0.000 NA
ATOM     22  N   UNL     1       7.496   6.236  18.329  0.00  0.00    +0.000 N 
ATOM     23  C   UNL     1       7.934   5.510  19.490  0.00  0.00    +0.000 C 
ENDBRANCH  17  18
ENDBRANCH   1  17
TORSDOF 3
ENDMDL
MODEL 3
REMARK VINA RESULT:      -7.4      3.019      4.551
REMARK  Name = 
REMARK  5 active torsions:
REMARK  status: ('A' for Active; 'I' for Inactive)
REMARK    1  A    between atoms: C_1  and  C_2
REMARK    2  A    between atoms: C_2  and  C_3
REMARK    3  A    between atoms: C_2  and  N_9
REMARK    4  A    between atoms: N_7  and  C_8
REMARK    5  A    between atoms: C_13  and  C_14
REMARK                            x       y       z     vdW  Elec       q    Type
REMARK                         _______ _______ _______ _____ _____    ______ ____
ROOT
ATOM      1  N   UNL     1       2.776   4.835  18.725  0.00  0.00    +0.000 NA
ATOM      2  C   UNL     1       3.003   5.283  17.340  0.00  0.00    +0.000 C 
ATOM      3  C   UNL     1       3.775   6.603  17.313  0.00  0.00    +0.000 C 
ATOM      4  C   UNL     1       3.019   7.698  18.056  0.00  0.00    +0.000 C 
ATOM      5  C   UNL     1       2.697   7.258  19.491  0.00  0.00    +0.000 C 
ATOM      6  C   UNL     1       2.029   5.864  19.486  0.00  0.00    +0.000 C 
ENDROOT
BRANCH   5   7
ATOM      7  C   UNL     1       1.776   8.257  20.152  0.00  0.00    +0.000 A 
ATOM      8  N   UNL     1       1.481   8.240  21.438  0.00  0.00    +0.000 NA
ATOM      9  C   UNL     1       0.616   9.266  21.731  0.00  0.00    +0.000 A 
ATOM     10  C   UNL     1       0.258  10.058  20.662  0.00  0.00    +0.000 A 
ATOM     11  S   UNL     1       1.020   9.512  19.240  0.00  0.00    +0.000 S 
ATOM     12  C   UNL     1      -0.694  11.205  20.727  0.00  0.00    +0.000 C 
ATOM     13  C   UNL     1      -0.921  11.624  22.194  0.00  0.00    +0.000 C 
ATOM     14  C   UNL     1      -1.101  10.415  23.127  0.00  0.00    +0.000 C 
ATOM     15  C   UNL     1       0.137   9.502  23.121  0.00  0.00    +0.000 C 
ENDBRANCH   5   7
BRANCH   1  17
ATOM     16  C   UNL     1       2.626   2.435  17.837  0.00  0.00    +0.000 C 
ATOM     17  C   UNL     1       2.091   3.512  18.803  0.00  0.00    +0.000 C 
BRANCH  17  18
ATOM     18  C   UNL     1       2.059   2.964  20.205  0.00  0.00    +0.000 A 
ATOM     19  N   UNL     1       1.021   2.910  21.021  0.00  0.00    +0.000 NA
ATOM     20  N   UNL     1       1.472   2.360  22.194  0.00  0.00    +0.000 NA
ATOM     21  N   UNL     1       2.762   2.073  22.115  0.00  0.00    +0.000 NA
ATOM     22  N   UNL     1       3.130   2.445  20.879  0.00  0.00    +0.000 N 
ATOM     23  C   UNL     1       4.486   2.261  20.439  0.00  0.00    +0.000 C 
ENDBRANCH  17  18
ENDBRANCH   1  17
TORSDOF 3
ENDMDL
MODEL 4
REMARK VINA RESULT:      -7.4      2.726      4.318
REMARK  Name = 
REMARK  5 active torsions:
REMARK  status: ('A' for Active; 'I' for Inactive)
REMARK    1  A    between atoms: C_1  and  C_2
REMARK    2  A    between atoms: C_2  and  C_3
REMARK    3  A    between atoms: C_2  and  N_9
REMARK    4  A    between atoms: N_7  and  C_8
REMARK    5  A    between atoms: C_13  and  C_14
REMARK                            x       y       z     vdW  Elec       q    Type
REMARK                         _______ _______ _______ _____ _____    ______ ____
ROOT
ATOM      1  N   UNL     1       3.086   4.520  18.467  0.00  0.00    +0.000 NA
ATOM      2  C   UNL     1       3.583   4.687  17.090  0.00  0.00    +0.000 C 
ATOM      3  C   UNL     1       4.472   5.928  16.977  0.00  0.00    +0.000 C 
ATOM      4  C   UNL     1       3.710   7.188  17.371  0.00  0.00    +0.000 C 
ATOM      5  C   UNL     1       3.113   7.044  18.778  0.00  0.00    +0.000 C 
ATOM      6  C   UNL     1       2.325   5.719  18.892  0.00  0.00    +0.000 C 
ENDROOT
BRANCH   5   7
ATOM      7  C   UNL     1       2.195   8.205  19.079  0.00  0.00    +0.000 A 
ATOM      8  N   UNL     1       1.605   8.387  20.245  0.00  0.00    +0.000 NA
ATOM      9  C   UNL     1       0.831   9.522  20.203  0.00  0.00    +0.000 A 
ATOM     10  C   UNL     1       0.837  10.195  19.001  0.00  0.00    +0.000 A 
ATOM     11  S   UNL     1       1.838   9.394  17.880  0.00  0.00    +0.000 S 
ATOM     12  C   UNL     1       0.049  11.426  18.705  0.00  0.00    +0.000 C 
ATOM     13  C   UNL     1      -0.464  12.056  20.017  0.00  0.00    +0.000 C 
ATOM     14  C   UNL     1      -1.009  11.004  20.998  0.00  0.00    +0.000 C 
ATOM     15  C   UNL     1       0.071   9.985  21.397  0.00  0.00    +0.000 C 
ENDBRANCH   5   7
BRANCH   1  17
ATOM     16  C   UNL     1       2.725   2.072  17.802  0.00  0.00    +0.000 C 
ATOM     17  C   UNL     1       2.275   3.282  18.646  0.00  0.00    +0.000 C 
BRANCH  17  18
ATOM     18  C   UNL     1       2.158   2.877  20.091  0.00  0.00    +0.000 A 
ATOM     19  N   UNL     1       1.075   2.912  20.849  0.00  0.00    +0.000 NA
ATOM     20  N   UNL     1       1.453   2.478  22.094  0.00  0.00    +0.000 NA
ATOM     21  N   UNL     1       2.741   2.173  22.116  0.00  0.00    +0.000 NA
ATOM     22  N   UNL     1       3.182   2.417  20.873  0.00  0.00    +0.000 N 
ATOM     23  C   UNL     1       4.557   2.179  20.530  0.00  0.00    +0.000 C 
ENDBRANCH  17  18
ENDBRANCH   1  17
TORSDOF 3
ENDMDL
MODEL 5
REMARK VINA RESULT:      -7.4      2.471      4.407
REMARK  Name = 
REMARK  5 active torsions:
REMARK  status: ('A' for Active; 'I' for Inactive)
REMARK    1  A    between atoms: C_1  and  C_2
REMARK    2  A    between atoms: C_2  and  C_3
REMARK    3  A    between atoms: C_2  and  N_9
REMARK    4  A    between atoms: N_7  and  C_8
REMARK    5  A    between atoms: C_13  and  C_14
REMARK                            x       y       z     vdW  Elec       q    Type
REMARK                         _______ _______ _______ _____ _____    ______ ____
ROOT
ATOM      1  N   UNL     1       3.929   3.892  18.210  0.00  0.00    +0.000 NA
ATOM      2  C   UNL     1       4.200   4.043  16.770  0.00  0.00    +0.000 C 
ATOM      3  C   UNL     1       4.930   5.358  16.487  0.00  0.00    +0.000 C 
ATOM      4  C   UNL     1       4.106   6.554  16.951  0.00  0.00    +0.000 C 
ATOM      5  C   UNL     1       3.737   6.417  18.434  0.00  0.00    +0.000 C 
ATOM      6  C   UNL     1       3.116   5.027  18.706  0.00  0.00    +0.000 C 
ENDROOT
BRANCH   5   7
ATOM      7  C   UNL     1       2.756   7.495  18.834  0.00  0.00    +0.000 A 
ATOM      8  N   UNL     1       2.188   7.563  20.022  0.00  0.00    +0.000 NA
ATOM      9  C   UNL     1       1.344   8.645  20.073  0.00  0.00    +0.000 A 
ATOM     10  C   UNL     1       1.274   9.393  18.918  0.00  0.00    +0.000 A 
ATOM     11  S   UNL     1       2.293   8.733  17.724  0.00  0.00    +0.000 S 
ATOM     12  C   UNL     1       0.402  10.588  18.723  0.00  0.00    +0.000 C 
ATOM     13  C   UNL     1      -0.113  11.098  20.084  0.00  0.00    +0.000 C 
ATOM     14  C   UNL     1      -0.564   9.952  21.007  0.00  0.00    +0.000 C 
ATOM     15  C   UNL     1       0.588   8.981  21.313  0.00  0.00    +0.000 C 
ENDBRANCH   5   7
BRANCH   1  17
ATOM     16  C   UNL     1       4.157   1.340  18.298  0.00  0.00    +0.000 C 
ATOM     17  C   UNL     1       3.286   2.589  18.545  0.00  0.00    +0.000 C 
BRANCH  17  18
ATOM     18  C   UNL     1       2.747   2.560  19.951  0.00  0.00    +0.000 A 
ATOM     19  N   UNL     1       3.437   2.437  21.072  0.00  0.00    +0.000 NA
ATOM     20  N   UNL     1       2.524   2.434  22.096  0.00  0.00    +0.000 NA
ATOM     21  N   UNL     1       1.292   2.557  21.630  0.00  0.00    +0.000 NA
ATOM     22  N   UNL     1       1.426   2.638  20.297  0.00  0.00    +0.000 N 
ATOM     23  C   UNL     1       0.269   2.794  19.459  0.00  0.00    +0.000 C 
ENDBRANCH  17  18
ENDBRANCH   1  17
TORSDOF 3
ENDMDL
MODEL 6
REMARK VINA RESULT:      -7.3      2.888      4.287
REMARK  Name = 
REMARK  5 active torsions:
REMARK  status: ('A' for Active; 'I' for Inactive)
REMARK    1  A    between atoms: C_1  and  C_2
REMARK    2  A    between atoms: C_2  and  C_3
REMARK    3  A    between atoms: C_2  and  N_9
REMARK    4  A    between atoms: N_7  and  C_8
REMARK    5  A    between atoms: C_13  and  C_14
REMARK                            x       y       z     vdW  Elec       q    Type
REMARK                         _______ _______ _______ _____ _____    ______ ____
ROOT
ATOM      1  N   UNL     1       3.097   5.103  18.767  0.00  0.00    +0.000 NA
ATOM      2  C   UNL     1       3.180   5.505  17.352  0.00  0.00    +0.000 C 
ATOM      3  C   UNL     1       3.786   6.904  17.217  0.00  0.00    +0.000 C 
ATOM      4  C   UNL     1       2.954   7.938  17.965  0.00  0.00    +0.000 C 
ATOM      5  C   UNL     1       2.780   7.535  19.435  0.00  0.00    +0.000 C 
ATOM      6  C   UNL     1       2.283   6.075  19.535  0.00  0.00    +0.000 C 
ENDROOT
BRANCH   5   7
ATOM      7  C   UNL     1       1.792   8.452  20.117  0.00  0.00    +0.000 A 
ATOM      8  N   UNL     1       1.516   8.401  21.406  0.00  0.00    +0.000 NA
ATOM      9  C   UNL     1       0.576   9.353  21.719  0.00  0.00    +0.000 A 
ATOM     10  C   UNL     1       0.141  10.122  20.662  0.00  0.00    +0.000 A 
ATOM     11  S   UNL     1       0.925   9.650  19.226  0.00  0.00    +0.000 S 
ATOM     12  C   UNL     1      -0.898  11.189  20.750  0.00  0.00    +0.000 C 
ATOM     13  C   UNL     1      -1.138  11.577  22.223  0.00  0.00    +0.000 C 
ATOM     14  C   UNL     1      -1.208  10.349  23.148  0.00  0.00    +0.000 C 
ATOM     15  C   UNL     1       0.098   9.539  23.118  0.00  0.00    +0.000 C 
ENDBRANCH   5   7
BRANCH   1  17
ATOM     16  C   UNL     1       2.399   2.906  17.646  0.00  0.00    +0.000 C 
ATOM     17  C   UNL     1       2.581   3.715  18.946  0.00  0.00    +0.000 C 
BRANCH  17  18
ATOM     18  C   UNL     1       3.402   2.921  19.927  0.00  0.00    +0.000 A 
ATOM     19  N   UNL     1       4.657   2.528  19.790  0.00  0.00    +0.000 NA
ATOM     20  N   UNL     1       4.970   1.813  20.917  0.00  0.00    +0.000 NA
ATOM     21  N   UNL     1       3.938   1.760  21.744  0.00  0.00    +0.000 NA
ATOM     22  N   UNL     1       2.962   2.450  21.134  0.00  0.00    +0.000 N 
ATOM     23  C   UNL     1       1.682   2.611  21.766  0.00  0.00    +0.000 C 
ENDBRANCH  17  18
ENDBRANCH   1  17
TORSDOF 3
ENDMDL
MODEL 7
REMARK VINA RESULT:      -7.2      1.511      2.339
REMARK  Name = 
REMARK  5 active torsions:
REMARK  status: ('A' for Active; 'I' for Inactive)
REMARK    1  A    between atoms: C_1  and  C_2
REMARK    2  A    between atoms: C_2  and  C_3
REMARK    3  A    between atoms: C_2  and  N_9
REMARK    4  A    between atoms: N_7  and  C_8
REMARK    5  A    between atoms: C_13  and  C_14
REMARK                            x       y       z     vdW  Elec       q    Type
REMARK                         _______ _______ _______ _____ _____    ______ ____
ROOT
ATOM      1  N   UNL     1       4.749   5.537  18.568  0.00  0.00    +0.000 NA
ATOM      2  C   UNL     1       4.631   4.430  19.534  0.00  0.00    +0.000 C 
ATOM      3  C   UNL     1       3.169   4.013  19.710  0.00  0.00    +0.000 C 
ATOM      4  C   UNL     1       2.321   5.178  20.205  0.00  0.00    +0.000 C 
ATOM      5  C   UNL     1       2.458   6.386  19.268  0.00  0.00    +0.000 C 
ATOM      6  C   UNL     1       3.950   6.701  19.015  0.00  0.00    +0.000 C 
ENDROOT
BRANCH   5   7
ATOM      7  C   UNL     1       1.781   7.596  19.870  0.00  0.00    +0.000 A 
ATOM      8  N   UNL     1       1.374   7.658  21.123  0.00  0.00    +0.000 NA
ATOM      9  C   UNL     1       0.792   8.880  21.363  0.00  0.00    +0.000 A 
ATOM     10  C   UNL     1       0.759   9.738  20.287  0.00  0.00    +0.000 A 
ATOM     11  S   UNL     1       1.476   9.008  18.926  0.00  0.00    +0.000 S 
ATOM     12  C   UNL     1       0.148  11.100  20.295  0.00  0.00    +0.000 C 
ATOM     13  C   UNL     1      -0.093  11.564  21.746  0.00  0.00    +0.000 C 
ATOM     14  C   UNL     1      -0.676  10.447  22.629  0.00  0.00    +0.000 C 
ATOM     15  C   UNL     1       0.267   9.236  22.711  0.00  0.00    +0.000 C 
ENDBRANCH   5   7
BRANCH   1  17
ATOM     16  C   UNL     1       7.177   5.507  19.389  0.00  0.00    +0.000 C 
ATOM     17  C   UNL     1       6.164   5.929  18.306  0.00  0.00    +0.000 C 
BRANCH  17  18
ATOM     18  C   UNL     1       6.645   5.471  16.955  0.00  0.00    +0.000 A 
ATOM     19  N   UNL     1       7.651   4.653  16.697  0.00  0.00    +0.000 NA
ATOM     20  N   UNL     1       7.733   4.549  15.332  0.00  0.00    +0.000 NA
ATOM     21  N   UNL     1       6.799   5.283  14.747  0.00  0.00    +0.000 NA
ATOM     22  N   UNL     1       6.119   5.855  15.752  0.00  0.00    +0.000 N 
ATOM     23  C   UNL     1       5.006   6.721  15.476  0.00  0.00    +0.000 C 
ENDBRANCH  17  18
ENDBRANCH   1  17
TORSDOF 3
ENDMDL
MODEL 8
REMARK VINA RESULT:      -7.2      1.425      2.215
REMARK  Name = 
REMARK  5 active torsions:
REMARK  status: ('A' for Active; 'I' for Inactive)
REMARK    1  A    between atoms: C_1  and  C_2
REMARK    2  A    between atoms: C_2  and  C_3
REMARK    3  A    between atoms: C_2  and  N_9
REMARK    4  A    between atoms: N_7  and  C_8
REMARK    5  A    between atoms: C_13  and  C_14
REMARK                            x       y       z     vdW  Elec       q    Type
REMARK                         _______ _______ _______ _____ _____    ______ ____
ROOT
ATOM      1  N   UNL     1       4.925   5.636  18.205  0.00  0.00    +0.000 NA
ATOM      2  C   UNL     1       4.864   4.776  19.400  0.00  0.00    +0.000 C 
ATOM      3  C   UNL     1       3.419   4.395  19.726  0.00  0.00    +0.000 C 
ATOM      4  C   UNL     1       2.568   5.634  19.980  0.00  0.00    +0.000 C 
ATOM      5  C   UNL     1       2.646   6.600  18.790  0.00  0.00    +0.000 C 
ATOM      6  C   UNL     1       4.121   6.864  18.411  0.00  0.00    +0.000 C 
ENDROOT
BRANCH   5   7
ATOM      7  C   UNL     1       1.970   7.908  19.131  0.00  0.00    +0.000 A 
ATOM      8  N   UNL     1       1.493   8.195  20.327  0.00  0.00    +0.000 NA
ATOM      9  C   UNL     1       0.934   9.449  20.316  0.00  0.00    +0.000 A 
ATOM     10  C   UNL     1       0.987  10.108  19.107  0.00  0.00    +0.000 A 
ATOM     11  S   UNL     1       1.760   9.139  17.940  0.00  0.00    +0.000 S 
ATOM     12  C   UNL     1       0.416  11.461  18.843  0.00  0.00    +0.000 C 
ATOM     13  C   UNL     1       0.104  12.175  20.174  0.00  0.00    +0.000 C 
ATOM     14  C   UNL     1      -0.561  11.240  21.199  0.00  0.00    +0.000 C 
ATOM     15  C   UNL     1       0.341  10.044  21.547  0.00  0.00    +0.000 C 
ENDBRANCH   5   7
BRANCH   1  17
ATOM     16  C   UNL     1       7.417   5.539  18.797  0.00  0.00    +0.000 C 
ATOM     17  C   UNL     1       6.321   5.973  17.802  0.00  0.00    +0.000 C 
BRANCH  17  18
ATOM     18  C   UNL     1       6.657   5.468  16.424  0.00  0.00    +0.000 A 
ATOM     19  N   UNL     1       7.600   5.917  15.614  0.00  0.00    +0.000 NA
ATOM     20  N   UNL     1       7.515   5.175  14.464  0.00  0.00    +0.000 NA
ATOM     21  N   UNL     1       6.546   4.278  14.552  0.00  0.00    +0.000 NA
ATOM     22  N   UNL     1       6.011   4.456  15.770  0.00  0.00    +0.000 N 
ATOM     23  C   UNL     1       4.924   3.627  16.214  0.00  0.00    +0.000 C 
ENDBRANCH  17  18
ENDBRANCH   1  17
TORSDOF 3
ENDMDL
MODEL 9
REMARK VINA RESULT:      -7.1      3.140      4.441
REMARK  Name = 
REMARK  5 active torsions:
REMARK  status: ('A' for Active; 'I' for Inactive)
REMARK    1  A    between atoms: C_1  and  C_2
REMARK    2  A    between atoms: C_2  and  C_3
REMARK    3  A    between atoms: C_2  and  N_9
REMARK    4  A    between atoms: N_7  and  C_8
REMARK    5  A    between atoms: C_13  and  C_14
REMARK                            x       y       z     vdW  Elec       q    Type
REMARK                         _______ _______ _______ _____ _____    ______ ____
ROOT
ATOM      1  N   UNL     1       2.445   5.199  19.489  0.00  0.00    +0.000 NA
ATOM      2  C   UNL     1       2.358   5.355  18.027  0.00  0.00    +0.000 C 
ATOM      3  C   UNL     1       2.959   6.690  17.583  0.00  0.00    +0.000 C 
ATOM      4  C   UNL     1       2.237   7.862  18.237  0.00  0.00    +0.000 C 
ATOM      5  C   UNL     1       2.240   7.718  19.765  0.00  0.00    +0.000 C 
ATOM      6  C   UNL     1       1.743   6.311  20.171  0.00  0.00    +0.000 C 
ENDROOT
BRANCH   5   7
ATOM      7  C   UNL     1       1.353   8.767  20.393  0.00  0.00    +0.000 A 
ATOM      8  N   UNL     1       0.935   8.718  21.643  0.00  0.00    +0.000 NA
ATOM      9  C   UNL     1       0.141   9.807  21.912  0.00  0.00    +0.000 A 
ATOM     10  C   UNL     1      -0.040  10.678  20.860  0.00  0.00    +0.000 A 
ATOM     11  S   UNL     1       0.804  10.129  19.486  0.00  0.00    +0.000 S 
ATOM     12  C   UNL     1      -0.886  11.906  20.900  0.00  0.00    +0.000 C 
ATOM     13  C   UNL     1      -1.216  12.276  22.361  0.00  0.00    +0.000 C 
ATOM     14  C   UNL     1      -1.592  11.047  23.206  0.00  0.00    +0.000 C 
ATOM     15  C   UNL     1      -0.447  10.023  23.263  0.00  0.00    +0.000 C 
ENDBRANCH   5   7
BRANCH   1  17
ATOM     16  C   UNL     1       1.033   3.124  18.970  0.00  0.00    +0.000 C 
ATOM     17  C   UNL     1       1.940   3.878  19.963  0.00  0.00    +0.000 C 
BRANCH  17  18
ATOM     18  C   UNL     1       3.050   2.971  20.425  0.00  0.00    +0.000 A 
ATOM     19  N   UNL     1       3.180   2.402  21.610  0.00  0.00    +0.000 NA
ATOM     20  N   UNL     1       4.353   1.693  21.579  0.00  0.00    +0.000 NA
ATOM     21  N   UNL     1       4.944   1.811  20.400  0.00  0.00    +0.000 NA
ATOM     22  N   UNL     1       4.136   2.603  19.679  0.00  0.00    +0.000 N 
ATOM     23  C   UNL     1       4.468   2.935  18.321  0.00  0.00    +0.000 C 
ENDBRANCH  17  18
ENDBRANCH   1  17
TORSDOF 3
ENDMDL
