MODEL 1
REMARK VINA RESULT:      -7.6      0.000      0.000
REMARK  Name = 
REMARK  13 active torsions:
REMARK  status: ('A' for Active; 'I' for Inactive)
REMARK    1  A    between atoms: C_1  and  C_2
REMARK    2  A    between atoms: C_2  and  C_3
REMARK    3  A    between atoms: C_3  and  C_4
REMARK    4  A    between atoms: C_4  and  C_5
REMARK    5  A    between atoms: C_5  and  C_6
REMARK    6  A    between atoms: C_6  and  C_7
REMARK    7  A    between atoms: C_7  and  C_8
REMARK    8  A    between atoms: C_8  and  C_9
REMARK    9  A    between atoms: C_9  and  C_10
REMARK   10  A    between atoms: C_10  and  C_11
REMARK   11  A    between atoms: C_11  and  C_12
REMARK   12  A    between atoms: N_14  and  C_15
REMARK   13  A    between atoms: C_17  and  C_18
REMARK                            x       y       z     vdW  Elec       q    Type
REMARK                         _______ _______ _______ _____ _____    ______ ____
ROOT
ATOM      1  C   UNL     1       4.458   2.856  18.371  0.00  0.00    +0.000 C 
ATOM      2  O   UNL     1       5.231   3.065  19.308  0.00  0.00    +0.000 OA
ATOM      3  N   UNL     1       4.526   3.435  17.111  0.00  0.00    +0.000 N 
ATOM      4  H   UNL     1       3.709   3.349  16.521  0.00  0.00    +0.000 HD
ENDROOT
BRANCH   3   5
ATOM      5  C   UNL     1       5.578   4.285  16.660  0.00  0.00    +0.000 A 
ATOM      6  C   UNL     1       6.179   5.165  17.557  0.00  0.00    +0.000 A 
ATOM      7  C   UNL     1       7.152   6.041  17.123  0.00  0.00    +0.000 A 
ATOM      8  C   UNL     1       7.738   7.036  18.080  0.00  0.00    +0.000 C 
ATOM      9  N   UNL     1       7.587   6.062  15.848  0.00  0.00    +0.000 NA
ATOM     10  C   UNL     1       7.054   5.196  14.976  0.00  0.00    +0.000 A 
ATOM     11  C   UNL     1       7.532   5.250  13.671  0.00  0.00    +0.000 A 
ATOM     12  C   UNL     1       7.040   4.415  12.672  0.00  0.00    +0.000 A 
ATOM     13  C   UNL     1       6.050   3.495  12.975  0.00  0.00    +0.000 A 
ATOM     14  C   UNL     1       5.551   3.416  14.283  0.00  0.00    +0.000 A 
ATOM     15  C   UNL     1       6.039   4.265  15.314  0.00  0.00    +0.000 A 
ENDBRANCH   3   5
BRANCH   1  16
ATOM     16  C   UNL     1       3.287   1.930  18.590  0.00  0.00    +0.000 C 
BRANCH  16  17
ATOM     17  C   UNL     1       2.030   2.417  17.890  0.00  0.00    +0.000 C 
BRANCH  17  18
ATOM     18  C   UNL     1       0.811   2.215  18.784  0.00  0.00    +0.000 C 
BRANCH  18  19
ATOM     19  C   UNL     1       0.620   3.414  19.702  0.00  0.00    +0.000 C 
BRANCH  19  20
ATOM     20  C   UNL     1       1.324   3.190  21.033  0.00  0.00    +0.000 C 
BRANCH  20  21
ATOM     21  C   UNL     1       2.268   4.348  21.332  0.00  0.00    +0.000 C 
BRANCH  21  22
ATOM     22  C   UNL     1       1.921   5.552  20.469  0.00  0.00    +0.000 C 
BRANCH  22  23
ATOM     23  C   UNL     1       3.108   5.941  19.597  0.00  0.00    +0.000 C 
BRANCH  23  24
ATOM     24  C   UNL     1       2.641   6.295  18.191  0.00  0.00    +0.000 C 
BRANCH  24  26
ATOM     25  C   UNL     1       1.947   8.672  17.825  0.00  0.00    +0.000 C 
ATOM     26  C   UNL     1       3.106   7.693  17.800  0.00  0.00    +0.000 C 
ENDBRANCH  24  26
ENDBRANCH  23  24
ENDBRANCH  22  23
ENDBRANCH  21  22
ENDBRANCH  20  21
ENDBRANCH  19  20
ENDBRANCH  18  19
ENDBRANCH  17  18
ENDBRANCH  16  17
ENDBRANCH   1  16
TORSDOF 11
ENDMDL
MODEL 2
REMARK VINA RESULT:      -7.2      1.319      3.201
REMARK  Name = 
REMARK  13 active torsions:
REMARK  status: ('A' for Active; 'I' for Inactive)
REMARK    1  A    between atoms: C_1  and  C_2
REMARK    2  A    between atoms: C_2  and  C_3
REMARK    3  A    between atoms: C_3  and  C_4
REMARK    4  A    between atoms: C_4  and  C_5
REMARK    5  A    between atoms: C_5  and  C_6
REMARK    6  A    between atoms: C_6  and  C_7
REMARK    7  A    between atoms: C_7  and  C_8
REMARK    8  A    between atoms: C_8  and  C_9
REMARK    9  A    between atoms: C_9  and  C_10
REMARK   10  A    between atoms: C_10  and  C_11
REMARK   11  A    between atoms: C_11  and  C_12
REMARK   12  A    between atoms: N_14  and  C_15
REMARK   13  A    between atoms: C_17  and  C_18
REMARK                            x       y       z     vdW  Elec       q    Type
REMARK                         _______ _______ _______ _____ _____    ______ ____
ROOT
ATOM      1  C   UNL     1       2.861   3.064  17.578  0.00  0.00    +0.000 C 
ATOM      2  O   UNL     1       2.228   3.892  16.919  0.00  0.00    +0.000 OA
ATOM      3  N   UNL     1       4.238   2.886  17.560  0.00  0.00    +0.000 N 
ATOM      4  H   UNL     1       4.596   2.034  17.971  0.00  0.00    +0.000 HD
ENDROOT
BRANCH   3   5
ATOM      5  C   UNL     1       5.158   3.716  16.855  0.00  0.00    +0.000 A 
ATOM      6  C   UNL     1       5.242   3.620  15.468  0.00  0.00    +0.000 A 
ATOM      7  C   UNL     1       6.174   4.367  14.776  0.00  0.00    +0.000 A 
ATOM      8  C   UNL     1       6.308   4.200  13.292  0.00  0.00    +0.000 C 
ATOM      9  N   UNL     1       7.001   5.236  15.389  0.00  0.00    +0.000 NA
ATOM     10  C   UNL     1       6.910   5.376  16.719  0.00  0.00    +0.000 A 
ATOM     11  C   UNL     1       7.781   6.284  17.312  0.00  0.00    +0.000 A 
ATOM     12  C   UNL     1       7.794   6.501  18.687  0.00  0.00    +0.000 A 
ATOM     13  C   UNL     1       6.914   5.804  19.498  0.00  0.00    +0.000 A 
ATOM     14  C   UNL     1       6.022   4.885  18.928  0.00  0.00    +0.000 A 
ATOM     15  C   UNL     1       5.999   4.648  17.526  0.00  0.00    +0.000 A 
ENDBRANCH   3   5
BRANCH   1  16
ATOM     16  C   UNL     1       2.101   2.104  18.460  0.00  0.00    +0.000 C 
BRANCH  16  17
ATOM     17  C   UNL     1       2.489   2.237  19.923  0.00  0.00    +0.000 C 
BRANCH  17  18
ATOM     18  C   UNL     1       1.288   2.678  20.754  0.00  0.00    +0.000 C 
BRANCH  18  19
ATOM     19  C   UNL     1       0.966   4.142  20.489  0.00  0.00    +0.000 C 
BRANCH  19  20
ATOM     20  C   UNL     1       2.167   5.022  20.807  0.00  0.00    +0.000 C 
BRANCH  20  21
ATOM     21  C   UNL     1       1.968   6.416  20.228  0.00  0.00    +0.000 C 
BRANCH  21  22
ATOM     22  C   UNL     1       2.992   6.688  19.135  0.00  0.00    +0.000 C 
BRANCH  22  23
ATOM     23  C   UNL     1       2.308   7.234  17.888  0.00  0.00    +0.000 C 
BRANCH  23  24
ATOM     24  C   UNL     1       2.434   8.751  17.835  0.00  0.00    +0.000 C 
BRANCH  24  26
ATOM     25  C   UNL     1       0.829   9.846  19.412  0.00  0.00    +0.000 C 
ATOM     26  C   UNL     1       1.069   9.415  17.978  0.00  0.00    +0.000 C 
ENDBRANCH  24  26
ENDBRANCH  23  24
ENDBRANCH  22  23
ENDBRANCH  21  22
ENDBRANCH  20  21
ENDBRANCH  19  20
ENDBRANCH  18  19
ENDBRANCH  17  18
ENDBRANCH  16  17
ENDBRANCH   1  16
TORSDOF 11
ENDMDL
MODEL 3
REMARK VINA RESULT:      -6.9      1.249      1.847
REMARK  Name = 
REMARK  13 active torsions:
REMARK  status: ('A' for Active; 'I' for Inactive)
REMARK    1  A    between atoms: C_1  and  C_2
REMARK    2  A    between atoms: C_2  and  C_3
REMARK    3  A    between atoms: C_3  and  C_4
REMARK    4  A    between atoms: C_4  and  C_5
REMARK    5  A    between atoms: C_5  and  C_6
REMARK    6  A    between atoms: C_6  and  C_7
REMARK    7  A    between atoms: C_7  and  C_8
REMARK    8  A    between atoms: C_8  and  C_9
REMARK    9  A    between atoms: C_9  and  C_10
REMARK   10  A    between atoms: C_10  and  C_11
REMARK   11  A    between atoms: C_11  and  C_12
REMARK   12  A    between atoms: N_14  and  C_15
REMARK   13  A    between atoms: C_17  and  C_18
REMARK                            x       y       z     vdW  Elec       q    Type
REMARK                         _______ _______ _______ _____ _____    ______ ____
ROOT
ATOM      1  C   UNL     1       3.178   2.483  17.985  0.00  0.00    +0.000 C 
ATOM      2  O   UNL     1       3.942   1.520  18.071  0.00  0.00    +0.000 OA
ATOM      3  N   UNL     1       3.550   3.810  17.812  0.00  0.00    +0.000 N 
ATOM      4  H   UNL     1       2.843   4.512  17.982  0.00  0.00    +0.000 HD
ENDROOT
BRANCH   3   5
ATOM      5  C   UNL     1       4.885   4.259  17.590  0.00  0.00    +0.000 A 
ATOM      6  C   UNL     1       5.655   4.678  18.673  0.00  0.00    +0.000 A 
ATOM      7  C   UNL     1       6.924   5.179  18.469  0.00  0.00    +0.000 A 
ATOM      8  C   UNL     1       7.715   5.699  19.632  0.00  0.00    +0.000 C 
ATOM      9  N   UNL     1       7.485   5.248  17.246  0.00  0.00    +0.000 NA
ATOM     10  C   UNL     1       6.780   4.811  16.194  0.00  0.00    +0.000 A 
ATOM     11  C   UNL     1       7.395   4.898  14.950  0.00  0.00    +0.000 A 
ATOM     12  C   UNL     1       6.755   4.495  13.781  0.00  0.00    +0.000 A 
ATOM     13  C   UNL     1       5.470   3.983  13.847  0.00  0.00    +0.000 A 
ATOM     14  C   UNL     1       4.825   3.880  15.088  0.00  0.00    +0.000 A 
ATOM     15  C   UNL     1       5.463   4.293  16.290  0.00  0.00    +0.000 A 
ENDBRANCH   3   5
BRANCH   1  16
ATOM     16  C   UNL     1       1.694   2.247  18.126  0.00  0.00    +0.000 C 
BRANCH  16  17
ATOM     17  C   UNL     1       1.046   3.220  19.096  0.00  0.00    +0.000 C 
BRANCH  17  18
ATOM     18  C   UNL     1       1.334   2.805  20.535  0.00  0.00    +0.000 C 
BRANCH  18  19
ATOM     19  C   UNL     1       2.076   3.912  21.270  0.00  0.00    +0.000 C 
BRANCH  19  20
ATOM     20  C   UNL     1       1.570   5.280  20.834  0.00  0.00    +0.000 C 
BRANCH  20  21
ATOM     21  C   UNL     1       2.696   6.081  20.195  0.00  0.00    +0.000 C 
BRANCH  21  22
ATOM     22  C   UNL     1       2.183   7.434  19.722  0.00  0.00    +0.000 C 
BRANCH  22  23
ATOM     23  C   UNL     1       2.674   7.727  18.311  0.00  0.00    +0.000 C 
BRANCH  23  24
ATOM     24  C   UNL     1       1.782   8.765  17.642  0.00  0.00    +0.000 C 
BRANCH  24  26
ATOM     25  C   UNL     1       1.548  11.059  18.616  0.00  0.00    +0.000 C 
ATOM     26  C   UNL     1       1.069   9.621  18.683  0.00  0.00    +0.000 C 
ENDBRANCH  24  26
ENDBRANCH  23  24
ENDBRANCH  22  23
ENDBRANCH  21  22
ENDBRANCH  20  21
ENDBRANCH  19  20
ENDBRANCH  18  19
ENDBRANCH  17  18
ENDBRANCH  16  17
ENDBRANCH   1  16
TORSDOF 11
ENDMDL
MODEL 4
REMARK VINA RESULT:      -6.9      1.192      3.030
REMARK  Name = 
REMARK  13 active torsions:
REMARK  status: ('A' for Active; 'I' for Inactive)
REMARK    1  A    between atoms: C_1  and  C_2
REMARK    2  A    between atoms: C_2  and  C_3
REMARK    3  A    between atoms: C_3  and  C_4
REMARK    4  A    between atoms: C_4  and  C_5
REMARK    5  A    between atoms: C_5  and  C_6
REMARK    6  A    between atoms: C_6  and  C_7
REMARK    7  A    between atoms: C_7  and  C_8
REMARK    8  A    between atoms: C_8  and  C_9
REMARK    9  A    between atoms: C_9  and  C_10
REMARK   10  A    between atoms: C_10  and  C_11
REMARK   11  A    between atoms: C_11  and  C_12
REMARK   12  A    between atoms: N_14  and  C_15
REMARK   13  A    between atoms: C_17  and  C_18
REMARK                            x       y       z     vdW  Elec       q    Type
REMARK                         _______ _______ _______ _____ _____    ______ ____
ROOT
ATOM      1  C   UNL     1       3.088   2.712  17.564  0.00  0.00    +0.000 C 
ATOM      2  O   UNL     1       3.877   1.814  17.865  0.00  0.00    +0.000 OA
ATOM      3  N   UNL     1       3.422   3.941  17.011  0.00  0.00    +0.000 N 
ATOM      4  H   UNL     1       2.710   4.659  17.025  0.00  0.00    +0.000 HD
ENDROOT
BRANCH   3   5
ATOM      5  C   UNL     1       4.731   4.318  16.592  0.00  0.00    +0.000 A 
ATOM      6  C   UNL     1       5.082   4.195  15.250  0.00  0.00    +0.000 A 
ATOM      7  C   UNL     1       6.366   4.492  14.839  0.00  0.00    +0.000 A 
ATOM      8  C   UNL     1       6.755   4.283  13.405  0.00  0.00    +0.000 C 
ATOM      9  N   UNL     1       7.309   4.943  15.688  0.00  0.00    +0.000 NA
ATOM     10  C   UNL     1       6.983   5.110  16.976  0.00  0.00    +0.000 A 
ATOM     11  C   UNL     1       7.985   5.579  17.819  0.00  0.00    +0.000 A 
ATOM     12  C   UNL     1       7.772   5.771  19.181  0.00  0.00    +0.000 A 
ATOM     13  C   UNL     1       6.527   5.499  19.724  0.00  0.00    +0.000 A 
ATOM     14  C   UNL     1       5.496   5.029  18.898  0.00  0.00    +0.000 A 
ATOM     15  C   UNL     1       5.699   4.821  17.506  0.00  0.00    +0.000 A 
ENDBRANCH   3   5
BRANCH   1  16
ATOM     16  C   UNL     1       1.621   2.515  17.855  0.00  0.00    +0.000 C 
BRANCH  16  17
ATOM     17  C   UNL     1       1.379   1.984  19.258  0.00  0.00    +0.000 C 
BRANCH  17  18
ATOM     18  C   UNL     1       0.705   3.047  20.120  0.00  0.00    +0.000 C 
BRANCH  18  19
ATOM     19  C   UNL     1       1.422   3.183  21.455  0.00  0.00    +0.000 C 
BRANCH  19  20
ATOM     20  C   UNL     1       2.446   4.308  21.404  0.00  0.00    +0.000 C 
BRANCH  20  21
ATOM     21  C   UNL     1       2.064   5.322  20.334  0.00  0.00    +0.000 C 
BRANCH  21  22
ATOM     22  C   UNL     1       1.819   6.687  20.960  0.00  0.00    +0.000 C 
BRANCH  22  23
ATOM     23  C   UNL     1       1.822   7.772  19.891  0.00  0.00    +0.000 C 
BRANCH  23  24
ATOM     24  C   UNL     1       2.585   7.302  18.659  0.00  0.00    +0.000 C 
BRANCH  24  26
ATOM     25  C   UNL     1       1.616   9.498  17.949  0.00  0.00    +0.000 C 
ATOM     26  C   UNL     1       2.496   8.333  17.540  0.00  0.00    +0.000 C 
ENDBRANCH  24  26
ENDBRANCH  23  24
ENDBRANCH  22  23
ENDBRANCH  21  22
ENDBRANCH  20  21
ENDBRANCH  19  20
ENDBRANCH  18  19
ENDBRANCH  17  18
ENDBRANCH  16  17
ENDBRANCH   1  16
TORSDOF 11
ENDMDL
MODEL 5
REMARK VINA RESULT:      -6.8      2.085      7.341
REMARK  Name = 
REMARK  13 active torsions:
REMARK  status: ('A' for Active; 'I' for Inactive)
REMARK    1  A    between atoms: C_1  and  C_2
REMARK    2  A    between atoms: C_2  and  C_3
REMARK    3  A    between atoms: C_3  and  C_4
REMARK    4  A    between atoms: C_4  and  C_5
REMARK    5  A    between atoms: C_5  and  C_6
REMARK    6  A    between atoms: C_6  and  C_7
REMARK    7  A    between atoms: C_7  and  C_8
REMARK    8  A    between atoms: C_8  and  C_9
REMARK    9  A    between atoms: C_9  and  C_10
REMARK   10  A    between atoms: C_10  and  C_11
REMARK   11  A    between atoms: C_11  and  C_12
REMARK   12  A    between atoms: N_14  and  C_15
REMARK   13  A    between atoms: C_17  and  C_18
REMARK                            x       y       z     vdW  Elec       q    Type
REMARK                         _______ _______ _______ _____ _____    ______ ____
ROOT
ATOM      1  C   UNL     1       6.150   5.624  18.862  0.00  0.00    +0.000 C 
ATOM      2  O   UNL     1       6.348   5.045  19.932  0.00  0.00    +0.000 OA
ATOM      3  N   UNL     1       4.911   5.923  18.311  0.00  0.00    +0.000 N 
ATOM      4  H   UNL     1       4.894   6.192  17.336  0.00  0.00    +0.000 HD
ENDROOT
BRANCH   3   5
ATOM      5  C   UNL     1       3.658   5.707  18.957  0.00  0.00    +0.000 A 
ATOM      6  C   UNL     1       3.065   6.750  19.664  0.00  0.00    +0.000 A 
ATOM      7  C   UNL     1       1.887   6.539  20.351  0.00  0.00    +0.000 A 
ATOM      8  C   UNL     1       1.296   7.647  21.171  0.00  0.00    +0.000 C 
ATOM      9  N   UNL     1       1.246   5.355  20.338  0.00  0.00    +0.000 NA
ATOM     10  C   UNL     1       1.776   4.348  19.630  0.00  0.00    +0.000 A 
ATOM     11  C   UNL     1       1.082   3.143  19.643  0.00  0.00    +0.000 A 
ATOM     12  C   UNL     1       1.545   2.020  18.963  0.00  0.00    +0.000 A 
ATOM     13  C   UNL     1       2.725   2.095  18.242  0.00  0.00    +0.000 A 
ATOM     14  C   UNL     1       3.444   3.298  18.208  0.00  0.00    +0.000 A 
ATOM     15  C   UNL     1       2.988   4.453  18.902  0.00  0.00    +0.000 A 
ENDBRANCH   3   5
BRANCH   1  16
ATOM     16  C   UNL     1       7.339   6.016  18.019  0.00  0.00    +0.000 C 
BRANCH  16  17
ATOM     17  C   UNL     1       7.100   5.771  16.538  0.00  0.00    +0.000 C 
BRANCH  17  18
ATOM     18  C   UNL     1       7.196   4.282  16.224  0.00  0.00    +0.000 C 
BRANCH  18  19
ATOM     19  C   UNL     1       6.028   3.845  15.351  0.00  0.00    +0.000 C 
BRANCH  19  20
ATOM     20  C   UNL     1       6.429   3.829  13.883  0.00  0.00    +0.000 C 
BRANCH  20  21
ATOM     21  C   UNL     1       5.201   3.992  12.998  0.00  0.00    +0.000 C 
BRANCH  21  22
ATOM     22  C   UNL     1       5.313   3.103  11.767  0.00  0.00    +0.000 C 
BRANCH  22  23
ATOM     23  C   UNL     1       6.775   2.867  11.412  0.00  0.00    +0.000 C 
BRANCH  23  24
ATOM     24  C   UNL     1       7.058   1.375  11.288  0.00  0.00    +0.000 C 
BRANCH  24  26
ATOM     25  C   UNL     1       6.046  -0.914  11.275  0.00  0.00    +0.000 C 
ATOM     26  C   UNL     1       5.761   0.576  11.264  0.00  0.00    +0.000 C 
ENDBRANCH  24  26
ENDBRANCH  23  24
ENDBRANCH  22  23
ENDBRANCH  21  22
ENDBRANCH  20  21
ENDBRANCH  19  20
ENDBRANCH  18  19
ENDBRANCH  17  18
ENDBRANCH  16  17
ENDBRANCH   1  16
TORSDOF 11
ENDMDL
MODEL 6
REMARK VINA RESULT:      -6.7      1.306      2.007
REMARK  Name = 
REMARK  13 active torsions:
REMARK  status: ('A' for Active; 'I' for Inactive)
REMARK    1  A    between atoms: C_1  and  C_2
REMARK    2  A    between atoms: C_2  and  C_3
REMARK    3  A    between atoms: C_3  and  C_4
REMARK    4  A    between atoms: C_4  and  C_5
REMARK    5  A    between atoms: C_5  and  C_6
REMARK    6  A    between atoms: C_6  and  C_7
REMARK    7  A    between atoms: C_7  and  C_8
REMARK    8  A    between atoms: C_8  and  C_9
REMARK    9  A    between atoms: C_9  and  C_10
REMARK   10  A    between atoms: C_10  and  C_11
REMARK   11  A    between atoms: C_11  and  C_12
REMARK   12  A    between atoms: N_14  and  C_15
REMARK   13  A    between atoms: C_17  and  C_18
REMARK                            x       y       z     vdW  Elec       q    Type
REMARK                         _______ _______ _______ _____ _____    ______ ____
ROOT
ATOM      1  C   UNL     1       3.837   2.975  17.650  0.00  0.00    +0.000 C 
ATOM      2  O   UNL     1       4.594   2.944  18.622  0.00  0.00    +0.000 OA
ATOM      3  N   UNL     1       4.051   3.671  16.468  0.00  0.00    +0.000 N 
ATOM      4  H   UNL     1       3.257   3.791  15.854  0.00  0.00    +0.000 HD
ENDROOT
BRANCH   3   5
ATOM      5  C   UNL     1       5.248   4.375  16.143  0.00  0.00    +0.000 A 
ATOM      6  C   UNL     1       5.849   5.183  17.105  0.00  0.00    +0.000 A 
ATOM      7  C   UNL     1       6.969   5.923  16.787  0.00  0.00    +0.000 A 
ATOM      8  C   UNL     1       7.564   6.848  17.807  0.00  0.00    +0.000 C 
ATOM      9  N   UNL     1       7.547   5.872  15.571  0.00  0.00    +0.000 NA
ATOM     10  C   UNL     1       7.010   5.070  14.642  0.00  0.00    +0.000 A 
ATOM     11  C   UNL     1       7.638   5.046  13.401  0.00  0.00    +0.000 A 
ATOM     12  C   UNL     1       7.161   4.267  12.350  0.00  0.00    +0.000 A 
ATOM     13  C   UNL     1       6.034   3.484  12.535  0.00  0.00    +0.000 A 
ATOM     14  C   UNL     1       5.383   3.485  13.777  0.00  0.00    +0.000 A 
ATOM     15  C   UNL     1       5.854   4.279  14.859  0.00  0.00    +0.000 A 
ENDBRANCH   3   5
BRANCH   1  16
ATOM     16  C   UNL     1       2.520   2.242  17.734  0.00  0.00    +0.000 C 
BRANCH  16  17
ATOM     17  C   UNL     1       1.769   2.553  19.017  0.00  0.00    +0.000 C 
BRANCH  17  18
ATOM     18  C   UNL     1       1.227   3.978  18.983  0.00  0.00    +0.000 C 
BRANCH  18  19
ATOM     19  C   UNL     1       1.591   4.717  20.263  0.00  0.00    +0.000 C 
BRANCH  19  20
ATOM     20  C   UNL     1       2.645   5.780  19.988  0.00  0.00    +0.000 C 
BRANCH  20  21
ATOM     21  C   UNL     1       2.686   6.113  18.502  0.00  0.00    +0.000 C 
BRANCH  21  22
ATOM     22  C   UNL     1       2.448   7.600  18.285  0.00  0.00    +0.000 C 
BRANCH  22  23
ATOM     23  C   UNL     1       1.807   8.223  19.519  0.00  0.00    +0.000 C 
BRANCH  23  24
ATOM     24  C   UNL     1       1.101   9.522  19.153  0.00  0.00    +0.000 C 
BRANCH  24  26
ATOM     25  C   UNL     1      -1.003  10.807  19.582  0.00  0.00    +0.000 C 
ATOM     26  C   UNL     1       0.023   9.861  20.176  0.00  0.00    +0.000 C 
ENDBRANCH  24  26
ENDBRANCH  23  24
ENDBRANCH  22  23
ENDBRANCH  21  22
ENDBRANCH  20  21
ENDBRANCH  19  20
ENDBRANCH  18  19
ENDBRANCH  17  18
ENDBRANCH  16  17
ENDBRANCH   1  16
TORSDOF 11
ENDMDL
MODEL 7
REMARK VINA RESULT:      -6.6      2.132      3.650
REMARK  Name = 
REMARK  13 active torsions:
REMARK  status: ('A' for Active; 'I' for Inactive)
REMARK    1  A    between atoms: C_1  and  C_2
REMARK    2  A    between atoms: C_2  and  C_3
REMARK    3  A    between atoms: C_3  and  C_4
REMARK    4  A    between atoms: C_4  and  C_5
REMARK    5  A    between atoms: C_5  and  C_6
REMARK    6  A    between atoms: C_6  and  C_7
REMARK    7  A    between atoms: C_7  and  C_8
REMARK    8  A    between atoms: C_8  and  C_9
REMARK    9  A    between atoms: C_9  and  C_10
REMARK   10  A    between atoms: C_10  and  C_11
REMARK   11  A    between atoms: C_11  and  C_12
REMARK   12  A    between atoms: N_14  and  C_15
REMARK   13  A    between atoms: C_17  and  C_18
REMARK                            x       y       z     vdW  Elec       q    Type
REMARK                         _______ _______ _______ _____ _____    ______ ____
ROOT
ATOM      1  C   UNL     1       3.028   2.888  17.584  0.00  0.00    +0.000 C 
ATOM      2  O   UNL     1       2.349   3.669  16.915  0.00  0.00    +0.000 OA
ATOM      3  N   UNL     1       4.413   2.792  17.570  0.00  0.00    +0.000 N 
ATOM      4  H   UNL     1       4.821   1.968  17.991  0.00  0.00    +0.000 HD
ENDROOT
BRANCH   3   5
ATOM      5  C   UNL     1       5.284   3.667  16.858  0.00  0.00    +0.000 A 
ATOM      6  C   UNL     1       5.361   3.575  15.470  0.00  0.00    +0.000 A 
ATOM      7  C   UNL     1       6.248   4.368  14.770  0.00  0.00    +0.000 A 
ATOM      8  C   UNL     1       6.378   4.207  13.284  0.00  0.00    +0.000 C 
ATOM      9  N   UNL     1       7.035   5.277  15.376  0.00  0.00    +0.000 NA
ATOM     10  C   UNL     1       6.948   5.414  16.706  0.00  0.00    +0.000 A 
ATOM     11  C   UNL     1       7.777   6.365  17.292  0.00  0.00    +0.000 A 
ATOM     12  C   UNL     1       7.792   6.582  18.666  0.00  0.00    +0.000 A 
ATOM     13  C   UNL     1       6.955   5.842  19.485  0.00  0.00    +0.000 A 
ATOM     14  C   UNL     1       6.106   4.879  18.922  0.00  0.00    +0.000 A 
ATOM     15  C   UNL     1       6.083   4.640  17.521  0.00  0.00    +0.000 A 
ENDBRANCH   3   5
BRANCH   1  16
ATOM     16  C   UNL     1       2.324   1.895  18.476  0.00  0.00    +0.000 C 
BRANCH  16  17
ATOM     17  C   UNL     1       0.877   2.278  18.733  0.00  0.00    +0.000 C 
BRANCH  17  18
ATOM     18  C   UNL     1       0.777   3.186  19.955  0.00  0.00    +0.000 C 
BRANCH  18  19
ATOM     19  C   UNL     1       2.135   3.324  20.628  0.00  0.00    +0.000 C 
BRANCH  19  20
ATOM     20  C   UNL     1       2.349   4.749  21.119  0.00  0.00    +0.000 C 
BRANCH  20  21
ATOM     21  C   UNL     1       1.756   5.743  20.130  0.00  0.00    +0.000 C 
BRANCH  21  22
ATOM     22  C   UNL     1       2.006   7.170  20.597  0.00  0.00    +0.000 C 
BRANCH  22  23
ATOM     23  C   UNL     1       0.752   7.749  21.239  0.00  0.00    +0.000 C 
BRANCH  23  24
ATOM     24  C   UNL     1       1.081   9.039  21.979  0.00  0.00    +0.000 C 
BRANCH  24  26
ATOM     25  C   UNL     1      -0.597  10.767  22.661  0.00  0.00    +0.000 C 
ATOM     26  C   UNL     1      -0.025   9.395  22.967  0.00  0.00    +0.000 C 
ENDBRANCH  24  26
ENDBRANCH  23  24
ENDBRANCH  22  23
ENDBRANCH  21  22
ENDBRANCH  20  21
ENDBRANCH  19  20
ENDBRANCH  18  19
ENDBRANCH  17  18
ENDBRANCH  16  17
ENDBRANCH   1  16
TORSDOF 11
ENDMDL
MODEL 8
REMARK VINA RESULT:      -6.6      1.738      2.162
REMARK  Name = 
REMARK  13 active torsions:
REMARK  status: ('A' for Active; 'I' for Inactive)
REMARK    1  A    between atoms: C_1  and  C_2
REMARK    2  A    between atoms: C_2  and  C_3
REMARK    3  A    between atoms: C_3  and  C_4
REMARK    4  A    between atoms: C_4  and  C_5
REMARK    5  A    between atoms: C_5  and  C_6
REMARK    6  A    between atoms: C_6  and  C_7
REMARK    7  A    between atoms: C_7  and  C_8
REMARK    8  A    between atoms: C_8  and  C_9
REMARK    9  A    between atoms: C_9  and  C_10
REMARK   10  A    between atoms: C_10  and  C_11
REMARK   11  A    between atoms: C_11  and  C_12
REMARK   12  A    between atoms: N_14  and  C_15
REMARK   13  A    between atoms: C_17  and  C_18
REMARK                            x       y       z     vdW  Elec       q    Type
REMARK                         _______ _______ _______ _____ _____    ______ ____
ROOT
ATOM      1  C   UNL     1       3.744   2.935  17.549  0.00  0.00    +0.000 C 
ATOM      2  O   UNL     1       4.650   2.310  18.105  0.00  0.00    +0.000 OA
ATOM      3  N   UNL     1       3.893   4.089  16.791  0.00  0.00    +0.000 N 
ATOM      4  H   UNL     1       3.055   4.616  16.587  0.00  0.00    +0.000 HD
ENDROOT
BRANCH   3   5
ATOM      5  C   UNL     1       5.143   4.676  16.437  0.00  0.00    +0.000 A 
ATOM      6  C   UNL     1       5.819   5.460  17.369  0.00  0.00    +0.000 A 
ATOM      7  C   UNL     1       6.997   6.090  17.021  0.00  0.00    +0.000 A 
ATOM      8  C   UNL     1       7.677   6.993  18.007  0.00  0.00    +0.000 C 
ATOM      9  N   UNL     1       7.558   5.949  15.805  0.00  0.00    +0.000 NA
ATOM     10  C   UNL     1       6.948   5.166  14.905  0.00  0.00    +0.000 A 
ATOM     11  C   UNL     1       7.562   5.046  13.663  0.00  0.00    +0.000 A 
ATOM     12  C   UNL     1       7.012   4.277  12.641  0.00  0.00    +0.000 A 
ATOM     13  C   UNL     1       5.823   3.601  12.858  0.00  0.00    +0.000 A 
ATOM     14  C   UNL     1       5.184   3.700  14.102  0.00  0.00    +0.000 A 
ATOM     15  C   UNL     1       5.729   4.485  15.154  0.00  0.00    +0.000 A 
ENDBRANCH   3   5
BRANCH   1  16
ATOM     16  C   UNL     1       2.322   2.463  17.727  0.00  0.00    +0.000 C 
BRANCH  16  17
ATOM     17  C   UNL     1       1.970   2.235  19.187  0.00  0.00    +0.000 C 
BRANCH  17  18
ATOM     18  C   UNL     1       0.838   3.166  19.612  0.00  0.00    +0.000 C 
BRANCH  18  19
ATOM     19  C   UNL     1       1.248   3.982  20.830  0.00  0.00    +0.000 C 
BRANCH  19  20
ATOM     20  C   UNL     1       2.655   4.537  20.656  0.00  0.00    +0.000 C 
BRANCH  20  21
ATOM     21  C   UNL     1       2.606   5.893  19.966  0.00  0.00    +0.000 C 
BRANCH  21  22
ATOM     22  C   UNL     1       1.340   6.642  20.357  0.00  0.00    +0.000 C 
BRANCH  22  23
ATOM     23  C   UNL     1       1.686   7.893  21.155  0.00  0.00    +0.000 C 
BRANCH  23  24
ATOM     24  C   UNL     1       0.607   8.952  20.976  0.00  0.00    +0.000 C 
BRANCH  24  26
ATOM     25  C   UNL     1      -0.064   9.564  23.309  0.00  0.00    +0.000 C 
ATOM     26  C   UNL     1      -0.467   8.820  22.050  0.00  0.00    +0.000 C 
ENDBRANCH  24  26
ENDBRANCH  23  24
ENDBRANCH  22  23
ENDBRANCH  21  22
ENDBRANCH  20  21
ENDBRANCH  19  20
ENDBRANCH  18  19
ENDBRANCH  17  18
ENDBRANCH  16  17
ENDBRANCH   1  16
TORSDOF 11
ENDMDL
MODEL 9
REMARK VINA RESULT:      -6.6      1.452      3.445
REMARK  Name = 
REMARK  13 active torsions:
REMARK  status: ('A' for Active; 'I' for Inactive)
REMARK    1  A    between atoms: C_1  and  C_2
REMARK    2  A    between atoms: C_2  and  C_3
REMARK    3  A    between atoms: C_3  and  C_4
REMARK    4  A    between atoms: C_4  and  C_5
REMARK    5  A    between atoms: C_5  and  C_6
REMARK    6  A    between atoms: C_6  and  C_7
REMARK    7  A    between atoms: C_7  and  C_8
REMARK    8  A    between atoms: C_8  and  C_9
REMARK    9  A    between atoms: C_9  and  C_10
REMARK   10  A    between atoms: C_10  and  C_11
REMARK   11  A    between atoms: C_11  and  C_12
REMARK   12  A    between atoms: N_14  and  C_15
REMARK   13  A    between atoms: C_17  and  C_18
REMARK                            x       y       z     vdW  Elec       q    Type
REMARK                         _______ _______ _______ _____ _____    ______ ____
ROOT
ATOM      1  C   UNL     1       3.175   2.564  18.006  0.00  0.00    +0.000 C 
ATOM      2  O   UNL     1       4.041   1.799  18.436  0.00  0.00    +0.000 OA
ATOM      3  N   UNL     1       3.394   3.685  17.217  0.00  0.00    +0.000 N 
ATOM      4  H   UNL     1       2.629   4.340  17.126  0.00  0.00    +0.000 HD
ENDROOT
BRANCH   3   5
ATOM      5  C   UNL     1       4.657   4.069  16.678  0.00  0.00    +0.000 A 
ATOM      6  C   UNL     1       4.911   3.872  15.323  0.00  0.00    +0.000 A 
ATOM      7  C   UNL     1       6.151   4.175  14.798  0.00  0.00    +0.000 A 
ATOM      8  C   UNL     1       6.438   3.888  13.354  0.00  0.00    +0.000 C 
ATOM      9  N   UNL     1       7.141   4.702  15.545  0.00  0.00    +0.000 NA
ATOM     10  C   UNL     1       6.906   4.940  16.842  0.00  0.00    +0.000 A 
ATOM     11  C   UNL     1       7.954   5.485  17.576  0.00  0.00    +0.000 A 
ATOM     12  C   UNL     1       7.837   5.756  18.936  0.00  0.00    +0.000 A 
ATOM     13  C   UNL     1       6.645   5.487  19.588  0.00  0.00    +0.000 A 
ATOM     14  C   UNL     1       5.570   4.940  18.873  0.00  0.00    +0.000 A 
ATOM     15  C   UNL     1       5.675   4.652  17.484  0.00  0.00    +0.000 A 
ENDBRANCH   3   5
BRANCH   1  16
ATOM     16  C   UNL     1       1.737   2.322  18.393  0.00  0.00    +0.000 C 
BRANCH  16  17
ATOM     17  C   UNL     1       1.481   2.607  19.863  0.00  0.00    +0.000 C 
BRANCH  17  18
ATOM     18  C   UNL     1       0.888   4.002  20.038  0.00  0.00    +0.000 C 
BRANCH  18  19
ATOM     19  C   UNL     1       1.747   4.832  20.981  0.00  0.00    +0.000 C 
BRANCH  19  20
ATOM     20  C   UNL     1       1.840   6.271  20.496  0.00  0.00    +0.000 C 
BRANCH  20  21
ATOM     21  C   UNL     1       2.803   6.372  19.320  0.00  0.00    +0.000 C 
BRANCH  21  22
ATOM     22  C   UNL     1       2.325   7.425  18.332  0.00  0.00    +0.000 C 
BRANCH  22  23
ATOM     23  C   UNL     1       1.638   8.570  19.064  0.00  0.00    +0.000 C 
BRANCH  23  24
ATOM     24  C   UNL     1       1.030   9.550  18.069  0.00  0.00    +0.000 C 
BRANCH  24  26
ATOM     25  C   UNL     1      -1.025  10.853  18.655  0.00  0.00    +0.000 C 
ATOM     26  C   UNL     1       0.485  10.782  18.782  0.00  0.00    +0.000 C 
ENDBRANCH  24  26
ENDBRANCH  23  24
ENDBRANCH  22  23
ENDBRANCH  21  22
ENDBRANCH  20  21
ENDBRANCH  19  20
ENDBRANCH  18  19
ENDBRANCH  17  18
ENDBRANCH  16  17
ENDBRANCH   1  16
TORSDOF 11
ENDMDL
