MODEL 1
REMARK VINA RESULT:      -6.6      0.000      0.000
REMARK  Name = 
REMARK  7 active torsions:
REMARK  status: ('A' for Active; 'I' for Inactive)
REMARK    1  A    between atoms: C_1  and  C_2
REMARK    2  A    between atoms: C_2  and  C_4
REMARK    3  A    between atoms: C_4  and  C_5
REMARK    4  A    between atoms: C_7  and  C_8
REMARK    5  A    between atoms: C_18  and  C_19
REMARK    6  A    between atoms: C_20  and  C_21
REMARK    7  A    between atoms: C_23  and  C_24
REMARK                            x       y       z     vdW  Elec       q    Type
REMARK                         _______ _______ _______ _____ _____    ______ ____
ROOT
ATOM      1  C   UNL     1      -0.424  11.135  22.353  0.00  0.00    +0.000 C 
ATOM      2  N   UNL     1      -1.766  11.487  22.814  0.00  0.00    +0.000 NA
ATOM      3  C   UNL     1      -2.105  12.710  23.048  0.00  0.00    +0.000 C 
ATOM      4  C   UNL     1      -1.163  13.851  22.974  0.00  0.00    +0.000 A 
ATOM      5  C   UNL     1      -0.261  14.035  21.941  0.00  0.00    +0.000 A 
ATOM      6  S   UNL     1       0.624  15.463  22.051  0.00  0.00    +0.000 S 
ATOM      7  C   UNL     1      -0.152  15.916  23.500  0.00  0.00    +0.000 A 
ATOM      8  C   UNL     1       0.217  17.210  24.158  0.00  0.00    +0.000 C 
ATOM      9  C   UNL     1      -1.093  14.981  23.905  0.00  0.00    +0.000 A 
ATOM     10  C   UNL     1      -1.921  15.131  25.152  0.00  0.00    +0.000 C 
ATOM     11  N   UNL     1      -0.030  13.137  20.890  0.00  0.00    +0.000 N 
ATOM     12  C   UNL     1       0.366  13.301  19.567  0.00  0.00    +0.000 A 
ATOM     13  C   UNL     1       0.771  14.554  18.888  0.00  0.00    +0.000 C 
ATOM     14  N   UNL     1       0.257  12.145  18.937  0.00  0.00    +0.000 NA
ATOM     15  N   UNL     1      -0.105  11.188  19.838  0.00  0.00    +0.000 NA
ATOM     16  C   UNL     1      -0.206  11.767  21.013  0.00  0.00    +0.000 A 
ENDROOT
BRANCH   3  17
ATOM     17  C   UNL     1      -3.540  12.986  23.336  0.00  0.00    +0.000 A 
ATOM     18  C   UNL     1      -4.166  12.319  24.400  0.00  0.00    +0.000 A 
ATOM     19  C   UNL     1      -5.521  12.545  24.670  0.00  0.00    +0.000 A 
ATOM     20  C   UNL     1      -6.247  13.429  23.874  0.00  0.00    +0.000 A 
ATOM     21 CL   UNL     1      -7.907  13.719  24.215  0.00  0.00    +0.000 Cl
ATOM     22  C   UNL     1      -5.642  14.074  22.796  0.00  0.00    +0.000 A 
ATOM     23  C   UNL     1      -4.292  13.841  22.519  0.00  0.00    +0.000 A 
ENDBRANCH   3  17
BRANCH   1  24
ATOM     24  C   UNL     1      -0.347   9.607  22.300  0.00  0.00    +0.000 C 
BRANCH  24  26
ATOM     25  C   UNL     1       1.312   8.026  21.117  0.00  0.00    +0.000 C 
ATOM     26  C   UNL     1       1.070   9.094  22.155  0.00  0.00    +0.000 C 
ATOM     27  O   UNL     1       1.968   9.478  22.907  0.00  0.00    +0.000 OA
ENDBRANCH  24  26
ENDBRANCH   1  24
TORSDOF 3
ENDMDL
MODEL 2
REMARK VINA RESULT:      -6.5      4.023      6.787
REMARK  Name = 
REMARK  7 active torsions:
REMARK  status: ('A' for Active; 'I' for Inactive)
REMARK    1  A    between atoms: C_1  and  C_2
REMARK    2  A    between atoms: C_2  and  C_4
REMARK    3  A    between atoms: C_4  and  C_5
REMARK    4  A    between atoms: C_7  and  C_8
REMARK    5  A    between atoms: C_18  and  C_19
REMARK    6  A    between atoms: C_20  and  C_21
REMARK    7  A    between atoms: C_23  and  C_24
REMARK                            x       y       z     vdW  Elec       q    Type
REMARK                         _______ _______ _______ _____ _____    ______ ____
ROOT
ATOM      1  C   UNL     1      -2.382  12.126  19.054  0.00  0.00    +0.000 C 
ATOM      2  N   UNL     1      -1.428  11.028  18.904  0.00  0.00    +0.000 NA
ATOM      3  C   UNL     1      -0.177  11.172  19.188  0.00  0.00    +0.000 C 
ATOM      4  C   UNL     1       0.431  12.462  19.590  0.00  0.00    +0.000 A 
ATOM      5  C   UNL     1      -0.136  13.322  20.515  0.00  0.00    +0.000 A 
ATOM      6  S   UNL     1       0.808  14.672  20.861  0.00  0.00    +0.000 S 
ATOM      7  C   UNL     1       2.034  14.181  19.783  0.00  0.00    +0.000 A 
ATOM      8  C   UNL     1       3.260  15.027  19.630  0.00  0.00    +0.000 C 
ATOM      9  C   UNL     1       1.730  12.981  19.155  0.00  0.00    +0.000 A 
ATOM     10  C   UNL     1       2.638  12.323  18.153  0.00  0.00    +0.000 C 
ATOM     11  N   UNL     1      -1.391  13.161  21.116  0.00  0.00    +0.000 N 
ATOM     12  C   UNL     1      -1.909  13.530  22.352  0.00  0.00    +0.000 A 
ATOM     13  C   UNL     1      -1.253  14.335  23.410  0.00  0.00    +0.000 C 
ATOM     14  N   UNL     1      -3.099  12.977  22.505  0.00  0.00    +0.000 NA
ATOM     15  N   UNL     1      -3.432  12.331  21.352  0.00  0.00    +0.000 NA
ATOM     16  C   UNL     1      -2.445  12.501  20.502  0.00  0.00    +0.000 A 
ENDROOT
BRANCH   3  17
ATOM     17  C   UNL     1       0.677   9.951  19.179  0.00  0.00    +0.000 A 
ATOM     18  C   UNL     1       1.143   9.450  17.955  0.00  0.00    +0.000 A 
ATOM     19  C   UNL     1       1.925   8.289  17.923  0.00  0.00    +0.000 A 
ATOM     20  C   UNL     1       2.233   7.631  19.113  0.00  0.00    +0.000 A 
ATOM     21 CL   UNL     1       3.207   6.214  19.076  0.00  0.00    +0.000 Cl
ATOM     22  C   UNL     1       1.751   8.104  20.332  0.00  0.00    +0.000 A 
ATOM     23  C   UNL     1       0.961   9.256  20.363  0.00  0.00    +0.000 A 
ENDBRANCH   3  17
BRANCH   1  24
ATOM     24  C   UNL     1      -3.728  11.636  18.515  0.00  0.00    +0.000 C 
BRANCH  24  26
ATOM     25  C   UNL     1      -3.580  11.059  16.005  0.00  0.00    +0.000 C 
ATOM     26  C   UNL     1      -3.581  10.583  17.437  0.00  0.00    +0.000 C 
ATOM     27  O   UNL     1      -3.543   9.383  17.717  0.00  0.00    +0.000 OA
ENDBRANCH  24  26
ENDBRANCH   1  24
TORSDOF 3
ENDMDL
MODEL 3
REMARK VINA RESULT:      -6.4      4.343      6.976
REMARK  Name = 
REMARK  7 active torsions:
REMARK  status: ('A' for Active; 'I' for Inactive)
REMARK    1  A    between atoms: C_1  and  C_2
REMARK    2  A    between atoms: C_2  and  C_4
REMARK    3  A    between atoms: C_4  and  C_5
REMARK    4  A    between atoms: C_7  and  C_8
REMARK    5  A    between atoms: C_18  and  C_19
REMARK    6  A    between atoms: C_20  and  C_21
REMARK    7  A    between atoms: C_23  and  C_24
REMARK                            x       y       z     vdW  Elec       q    Type
REMARK                         _______ _______ _______ _____ _____    ______ ____
ROOT
ATOM      1  C   UNL     1      -2.397  11.911  18.213  0.00  0.00    +0.000 C 
ATOM      2  N   UNL     1      -1.406  10.839  18.290  0.00  0.00    +0.000 NA
ATOM      3  C   UNL     1      -0.214  11.048  18.739  0.00  0.00    +0.000 C 
ATOM      4  C   UNL     1       0.298  12.385  19.119  0.00  0.00    +0.000 A 
ATOM      5  C   UNL     1      -0.418  13.291  19.881  0.00  0.00    +0.000 A 
ATOM      6  S   UNL     1       0.433  14.697  20.251  0.00  0.00    +0.000 S 
ATOM      7  C   UNL     1       1.814  14.169  19.403  0.00  0.00    +0.000 A 
ATOM      8  C   UNL     1       3.029  15.044  19.361  0.00  0.00    +0.000 C 
ATOM      9  C   UNL     1       1.634  12.915  18.836  0.00  0.00    +0.000 A 
ATOM     10  C   UNL     1       2.695  12.215  18.030  0.00  0.00    +0.000 C 
ATOM     11  N   UNL     1      -1.743  13.132  20.307  0.00  0.00    +0.000 N 
ATOM     12  C   UNL     1      -2.445  13.575  21.422  0.00  0.00    +0.000 A 
ATOM     13  C   UNL     1      -1.970  14.481  22.495  0.00  0.00    +0.000 C 
ATOM     14  N   UNL     1      -3.631  12.994  21.446  0.00  0.00    +0.000 NA
ATOM     15  N   UNL     1      -3.777  12.251  20.312  0.00  0.00    +0.000 NA
ATOM     16  C   UNL     1      -2.680  12.391  19.603  0.00  0.00    +0.000 A 
ENDROOT
BRANCH   3  17
ATOM     17  C   UNL     1       0.661   9.861  18.950  0.00  0.00    +0.000 A 
ATOM     18  C   UNL     1       1.280   9.260  17.844  0.00  0.00    +0.000 A 
ATOM     19  C   UNL     1       2.085   8.127  18.019  0.00  0.00    +0.000 A 
ATOM     20  C   UNL     1       2.264   7.597  19.295  0.00  0.00    +0.000 A 
ATOM     21 CL   UNL     1       3.265   6.216  19.512  0.00  0.00    +0.000 Cl
ATOM     22  C   UNL     1       1.630   8.169  20.397  0.00  0.00    +0.000 A 
ATOM     23  C   UNL     1       0.817   9.292  20.222  0.00  0.00    +0.000 A 
ENDBRANCH   3  17
BRANCH   1  24
ATOM     24  C   UNL     1      -3.638  11.334  17.527  0.00  0.00    +0.000 C 
BRANCH  24  26
ATOM     25  C   UNL     1      -2.945   9.364  16.014  0.00  0.00    +0.000 C 
ATOM     26  C   UNL     1      -3.351  10.812  16.135  0.00  0.00    +0.000 C 
ATOM     27  O   UNL     1      -3.373  11.559  15.156  0.00  0.00    +0.000 OA
ENDBRANCH  24  26
ENDBRANCH   1  24
TORSDOF 3
ENDMDL
MODEL 4
REMARK VINA RESULT:      -6.4      4.466      6.900
REMARK  Name = 
REMARK  7 active torsions:
REMARK  status: ('A' for Active; 'I' for Inactive)
REMARK    1  A    between atoms: C_1  and  C_2
REMARK    2  A    between atoms: C_2  and  C_4
REMARK    3  A    between atoms: C_4  and  C_5
REMARK    4  A    between atoms: C_7  and  C_8
REMARK    5  A    between atoms: C_18  and  C_19
REMARK    6  A    between atoms: C_20  and  C_21
REMARK    7  A    between atoms: C_23  and  C_24
REMARK                            x       y       z     vdW  Elec       q    Type
REMARK                         _______ _______ _______ _____ _____    ______ ____
ROOT
ATOM      1  C   UNL     1      -4.675  12.455  19.179  0.00  0.00    +0.000 C 
ATOM      2  N   UNL     1      -3.461  11.674  18.945  0.00  0.00    +0.000 NA
ATOM      3  C   UNL     1      -2.319  12.036  19.424  0.00  0.00    +0.000 C 
ATOM      4  C   UNL     1      -2.100  13.305  20.157  0.00  0.00    +0.000 A 
ATOM      5  C   UNL     1      -2.946  13.773  21.148  0.00  0.00    +0.000 A 
ATOM      6  S   UNL     1      -2.415  15.190  21.887  0.00  0.00    +0.000 S 
ATOM      7  C   UNL     1      -1.017  15.259  20.913  0.00  0.00    +0.000 A 
ATOM      8  C   UNL     1      -0.042  16.379  21.106  0.00  0.00    +0.000 C 
ATOM      9  C   UNL     1      -0.947  14.198  20.021  0.00  0.00    +0.000 A 
ATOM     10  C   UNL     1       0.183  14.017  19.043  0.00  0.00    +0.000 C 
ATOM     11  N   UNL     1      -4.163  13.191  21.524  0.00  0.00    +0.000 N 
ATOM     12  C   UNL     1      -4.862  13.135  22.725  0.00  0.00    +0.000 A 
ATOM     13  C   UNL     1      -4.527  13.807  24.003  0.00  0.00    +0.000 C 
ATOM     14  N   UNL     1      -5.877  12.300  22.596  0.00  0.00    +0.000 NA
ATOM     15  N   UNL     1      -5.933  11.876  21.302  0.00  0.00    +0.000 NA
ATOM     16  C   UNL     1      -4.955  12.462  20.650  0.00  0.00    +0.000 A 
ENDROOT
BRANCH   3  17
ATOM     17  C   UNL     1      -1.181  11.084  19.289  0.00  0.00    +0.000 A 
ATOM     18  C   UNL     1      -0.855  10.581  18.021  0.00  0.00    +0.000 A 
ATOM     19  C   UNL     1       0.194   9.665  17.877  0.00  0.00    +0.000 A 
ATOM     20  C   UNL     1       0.908   9.250  19.000  0.00  0.00    +0.000 A 
ATOM     21 CL   UNL     1       2.207   8.137  18.821  0.00  0.00    +0.000 Cl
ATOM     22  C   UNL     1       0.574   9.721  20.268  0.00  0.00    +0.000 A 
ATOM     23  C   UNL     1      -0.480  10.626  20.414  0.00  0.00    +0.000 A 
ENDBRANCH   3  17
BRANCH   1  24
ATOM     24  C   UNL     1      -5.798  11.801  18.370  0.00  0.00    +0.000 C 
BRANCH  24  26
ATOM     25  C   UNL     1      -6.698  13.660  16.824  0.00  0.00    +0.000 C 
ATOM     26  C   UNL     1      -6.911  12.768  18.023  0.00  0.00    +0.000 C 
ATOM     27  O   UNL     1      -7.911  12.873  18.734  0.00  0.00    +0.000 OA
ENDBRANCH  24  26
ENDBRANCH   1  24
TORSDOF 3
ENDMDL
MODEL 5
REMARK VINA RESULT:      -6.4      4.217      6.579
REMARK  Name = 
REMARK  7 active torsions:
REMARK  status: ('A' for Active; 'I' for Inactive)
REMARK    1  A    between atoms: C_1  and  C_2
REMARK    2  A    between atoms: C_2  and  C_4
REMARK    3  A    between atoms: C_4  and  C_5
REMARK    4  A    between atoms: C_7  and  C_8
REMARK    5  A    between atoms: C_18  and  C_19
REMARK    6  A    between atoms: C_20  and  C_21
REMARK    7  A    between atoms: C_23  and  C_24
REMARK                            x       y       z     vdW  Elec       q    Type
REMARK                         _______ _______ _______ _____ _____    ______ ____
ROOT
ATOM      1  C   UNL     1      -3.928  12.348  20.450  0.00  0.00    +0.000 C 
ATOM      2  N   UNL     1      -2.903  13.387  20.540  0.00  0.00    +0.000 NA
ATOM      3  C   UNL     1      -1.749  13.252  19.979  0.00  0.00    +0.000 C 
ATOM      4  C   UNL     1      -1.311  12.018  19.285  0.00  0.00    +0.000 A 
ATOM      5  C   UNL     1      -2.106  11.317  18.395  0.00  0.00    +0.000 A 
ATOM      6  S   UNL     1      -1.332  10.006  17.675  0.00  0.00    +0.000 S 
ATOM      7  C   UNL     1       0.117  10.303  18.523  0.00  0.00    +0.000 A 
ATOM      8  C   UNL     1       1.298   9.411  18.294  0.00  0.00    +0.000 C 
ATOM      9  C   UNL     1       0.018  11.407  19.358  0.00  0.00    +0.000 A 
ATOM     10  C   UNL     1       1.151  11.889  20.224  0.00  0.00    +0.000 C 
ATOM     11  N   UNL     1      -3.447  11.596  18.103  0.00  0.00    +0.000 N 
ATOM     12  C   UNL     1      -4.230  11.424  16.967  0.00  0.00    +0.000 A 
ATOM     13  C   UNL     1      -3.854  10.763  15.695  0.00  0.00    +0.000 C 
ATOM     14  N   UNL     1      -5.393  12.025  17.148  0.00  0.00    +0.000 NA
ATOM     15  N   UNL     1      -5.442  12.506  18.423  0.00  0.00    +0.000 NA
ATOM     16  C   UNL     1      -4.311  12.188  19.011  0.00  0.00    +0.000 A 
ENDROOT
BRANCH   3  17
ATOM     17  C   UNL     1      -0.843  14.436  19.970  0.00  0.00    +0.000 A 
ATOM     18  C   UNL     1      -0.569  15.097  21.177  0.00  0.00    +0.000 A 
ATOM     19  C   UNL     1       0.258  16.226  21.186  0.00  0.00    +0.000 A 
ATOM     20  C   UNL     1       0.802  16.694  19.992  0.00  0.00    +0.000 A 
ATOM     21 CL   UNL     1       1.831  18.072  20.005  0.00  0.00    +0.000 Cl
ATOM     22  C   UNL     1       0.513  16.062  18.784  0.00  0.00    +0.000 A 
ATOM     23  C   UNL     1      -0.322  14.942  18.772  0.00  0.00    +0.000 A 
ENDBRANCH   3  17
BRANCH   1  24
ATOM     24  C   UNL     1      -5.103  12.791  21.325  0.00  0.00    +0.000 C 
BRANCH  24  26
ATOM     25  C   UNL     1      -4.889  14.433  23.302  0.00  0.00    +0.000 C 
ATOM     26  C   UNL     1      -4.704  13.035  22.765  0.00  0.00    +0.000 C 
ATOM     27  O   UNL     1      -4.178  12.149  23.441  0.00  0.00    +0.000 OA
ENDBRANCH  24  26
ENDBRANCH   1  24
TORSDOF 3
ENDMDL
MODEL 6
REMARK VINA RESULT:      -6.3      4.068      6.457
REMARK  Name = 
REMARK  7 active torsions:
REMARK  status: ('A' for Active; 'I' for Inactive)
REMARK    1  A    between atoms: C_1  and  C_2
REMARK    2  A    between atoms: C_2  and  C_4
REMARK    3  A    between atoms: C_4  and  C_5
REMARK    4  A    between atoms: C_7  and  C_8
REMARK    5  A    between atoms: C_18  and  C_19
REMARK    6  A    between atoms: C_20  and  C_21
REMARK    7  A    between atoms: C_23  and  C_24
REMARK                            x       y       z     vdW  Elec       q    Type
REMARK                         _______ _______ _______ _____ _____    ______ ____
ROOT
ATOM      1  C   UNL     1      -4.720  13.038  20.740  0.00  0.00    +0.000 C 
ATOM      2  N   UNL     1      -3.649  12.259  20.122  0.00  0.00    +0.000 NA
ATOM      3  C   UNL     1      -2.421  12.656  20.145  0.00  0.00    +0.000 C 
ATOM      4  C   UNL     1      -1.989  13.961  20.698  0.00  0.00    +0.000 A 
ATOM      5  C   UNL     1      -2.438  14.468  21.905  0.00  0.00    +0.000 A 
ATOM      6  S   UNL     1      -1.717  15.924  22.346  0.00  0.00    +0.000 S 
ATOM      7  C   UNL     1      -0.760  15.960  20.935  0.00  0.00    +0.000 A 
ATOM      8  C   UNL     1       0.189  17.098  20.719  0.00  0.00    +0.000 C 
ATOM      9  C   UNL     1      -0.985  14.858  20.121  0.00  0.00    +0.000 A 
ATOM     10  C   UNL     1      -0.274  14.642  18.813  0.00  0.00    +0.000 C 
ATOM     11  N   UNL     1      -3.425  13.892  22.715  0.00  0.00    +0.000 N 
ATOM     12  C   UNL     1      -3.648  13.887  24.088  0.00  0.00    +0.000 A 
ATOM     13  C   UNL     1      -2.897  14.623  25.133  0.00  0.00    +0.000 C 
ATOM     14  N   UNL     1      -4.620  13.037  24.365  0.00  0.00    +0.000 NA
ATOM     15  N   UNL     1      -5.123  12.550  23.195  0.00  0.00    +0.000 NA
ATOM     16  C   UNL     1      -4.457  13.114  22.213  0.00  0.00    +0.000 A 
ENDROOT
BRANCH   3  17
ATOM     17  C   UNL     1      -1.381  11.710  19.652  0.00  0.00    +0.000 A 
ATOM     18  C   UNL     1      -1.527  11.131  18.382  0.00  0.00    +0.000 A 
ATOM     19  C   UNL     1      -0.574  10.220  17.911  0.00  0.00    +0.000 A 
ATOM     20  C   UNL     1       0.516   9.885  18.712  0.00  0.00    +0.000 A 
ATOM     21 CL   UNL     1       1.695   8.778  18.128  0.00  0.00    +0.000 Cl
ATOM     22  C   UNL     1       0.656  10.431  19.987  0.00  0.00    +0.000 A 
ATOM     23  C   UNL     1      -0.301  11.332  20.462  0.00  0.00    +0.000 A 
ENDBRANCH   3  17
BRANCH   1  24
ATOM     24  C   UNL     1      -6.040  12.335  20.415  0.00  0.00    +0.000 C 
BRANCH  24  26
ATOM     25  C   UNL     1      -6.636  10.982  18.301  0.00  0.00    +0.000 C 
ATOM     26  C   UNL     1      -6.349  12.322  18.933  0.00  0.00    +0.000 C 
ATOM     27  O   UNL     1      -6.291  13.352  18.259  0.00  0.00    +0.000 OA
ENDBRANCH  24  26
ENDBRANCH   1  24
TORSDOF 3
ENDMDL
MODEL 7
REMARK VINA RESULT:      -6.3      4.134      6.532
REMARK  Name = 
REMARK  7 active torsions:
REMARK  status: ('A' for Active; 'I' for Inactive)
REMARK    1  A    between atoms: C_1  and  C_2
REMARK    2  A    between atoms: C_2  and  C_4
REMARK    3  A    between atoms: C_4  and  C_5
REMARK    4  A    between atoms: C_7  and  C_8
REMARK    5  A    between atoms: C_18  and  C_19
REMARK    6  A    between atoms: C_20  and  C_21
REMARK    7  A    between atoms: C_23  and  C_24
REMARK                            x       y       z     vdW  Elec       q    Type
REMARK                         _______ _______ _______ _____ _____    ______ ____
ROOT
ATOM      1  C   UNL     1      -4.860  12.895  20.321  0.00  0.00    +0.000 C 
ATOM      2  N   UNL     1      -3.770  12.108  19.747  0.00  0.00    +0.000 NA
ATOM      3  C   UNL     1      -2.536  12.463  19.874  0.00  0.00    +0.000 C 
ATOM      4  C   UNL     1      -2.107  13.729  20.512  0.00  0.00    +0.000 A 
ATOM      5  C   UNL     1      -2.627  14.200  21.705  0.00  0.00    +0.000 A 
ATOM      6  S   UNL     1      -1.896  15.613  22.258  0.00  0.00    +0.000 S 
ATOM      7  C   UNL     1      -0.840  15.676  20.921  0.00  0.00    +0.000 A 
ATOM      8  C   UNL     1       0.156  16.790  20.822  0.00  0.00    +0.000 C 
ATOM      9  C   UNL     1      -1.037  14.616  20.047  0.00  0.00    +0.000 A 
ATOM     10  C   UNL     1      -0.241  14.430  18.784  0.00  0.00    +0.000 C 
ATOM     11  N   UNL     1      -3.686  13.625  22.417  0.00  0.00    +0.000 N 
ATOM     12  C   UNL     1      -4.007  13.571  23.769  0.00  0.00    +0.000 A 
ATOM     13  C   UNL     1      -3.313  14.239  24.896  0.00  0.00    +0.000 C 
ATOM     14  N   UNL     1      -5.022  12.743  23.940  0.00  0.00    +0.000 NA
ATOM     15  N   UNL     1      -5.453  12.321  22.718  0.00  0.00    +0.000 NA
ATOM     16  C   UNL     1      -4.702  12.902  21.810  0.00  0.00    +0.000 A 
ENDROOT
BRANCH   3  17
ATOM     17  C   UNL     1      -1.492  11.504  19.415  0.00  0.00    +0.000 A 
ATOM     18  C   UNL     1      -0.425  11.192  20.271  0.00  0.00    +0.000 A 
ATOM     19  C   UNL     1       0.581  10.314  19.848  0.00  0.00    +0.000 A 
ATOM     20  C   UNL     1       0.520   9.756  18.572  0.00  0.00    +0.000 A 
ATOM     21 CL   UNL     1       1.746   8.665  18.059  0.00  0.00    +0.000 Cl
ATOM     22  C   UNL     1      -0.520  10.082  17.704  0.00  0.00    +0.000 A 
ATOM     23  C   UNL     1      -1.518  10.968  18.120  0.00  0.00    +0.000 A 
ENDBRANCH   3  17
BRANCH   1  24
ATOM     24  C   UNL     1      -6.173  12.249  19.873  0.00  0.00    +0.000 C 
BRANCH  24  26
ATOM     25  C   UNL     1      -6.442  13.278  17.522  0.00  0.00    +0.000 C 
ATOM     26  C   UNL     1      -6.247  12.047  18.374  0.00  0.00    +0.000 C 
ATOM     27  O   UNL     1      -6.227  10.918  17.880  0.00  0.00    +0.000 OA
ENDBRANCH  24  26
ENDBRANCH   1  24
TORSDOF 3
ENDMDL
MODEL 8
REMARK VINA RESULT:      -6.2      8.698     10.875
REMARK  Name = 
REMARK  7 active torsions:
REMARK  status: ('A' for Active; 'I' for Inactive)
REMARK    1  A    between atoms: C_1  and  C_2
REMARK    2  A    between atoms: C_2  and  C_4
REMARK    3  A    between atoms: C_4  and  C_5
REMARK    4  A    between atoms: C_7  and  C_8
REMARK    5  A    between atoms: C_18  and  C_19
REMARK    6  A    between atoms: C_20  and  C_21
REMARK    7  A    between atoms: C_23  and  C_24
REMARK                            x       y       z     vdW  Elec       q    Type
REMARK                         _______ _______ _______ _____ _____    ______ ____
ROOT
ATOM      1  C   UNL     1       9.566  13.287  20.766  0.00  0.00    +0.000 C 
ATOM      2  N   UNL     1       8.207  13.748  20.488  0.00  0.00    +0.000 NA
ATOM      3  C   UNL     1       7.969  14.685  19.633  0.00  0.00    +0.000 C 
ATOM      4  C   UNL     1       9.030  15.446  18.932  0.00  0.00    +0.000 A 
ATOM      5  C   UNL     1      10.142  14.857  18.356  0.00  0.00    +0.000 A 
ATOM      6  S   UNL     1      11.142  15.938  17.540  0.00  0.00    +0.000 S 
ATOM      7  C   UNL     1      10.139  17.264  17.918  0.00  0.00    +0.000 A 
ATOM      8  C   UNL     1      10.509  18.629  17.426  0.00  0.00    +0.000 C 
ATOM      9  C   UNL     1       9.033  16.887  18.667  0.00  0.00    +0.000 A 
ATOM     10  C   UNL     1       7.986  17.860  19.139  0.00  0.00    +0.000 C 
ATOM     11  N   UNL     1      10.482  13.501  18.438  0.00  0.00    +0.000 N 
ATOM     12  C   UNL     1      11.160  12.635  17.587  0.00  0.00    +0.000 A 
ATOM     13  C   UNL     1      11.838  12.962  16.310  0.00  0.00    +0.000 C 
ATOM     14  N   UNL     1      11.053  11.402  18.049  0.00  0.00    +0.000 NA
ATOM     15  N   UNL     1      10.405  11.439  19.247  0.00  0.00    +0.000 NA
ATOM     16  C   UNL     1      10.128  12.696  19.511  0.00  0.00    +0.000 A 
ENDROOT
BRANCH   3  17
ATOM     17  C   UNL     1       6.546  14.957  19.285  0.00  0.00    +0.000 A 
ATOM     18  C   UNL     1       5.654  15.341  20.297  0.00  0.00    +0.000 A 
ATOM     19  C   UNL     1       4.307  15.576  19.995  0.00  0.00    +0.000 A 
ATOM     20  C   UNL     1       3.856  15.419  18.686  0.00  0.00    +0.000 A 
ATOM     21 CL   UNL     1       2.205  15.723  18.311  0.00  0.00    +0.000 Cl
ATOM     22  C   UNL     1       4.727  15.010  17.678  0.00  0.00    +0.000 A 
ATOM     23  C   UNL     1       6.069  14.764  17.981  0.00  0.00    +0.000 A 
ENDBRANCH   3  17
BRANCH   1  24
ATOM     24  C   UNL     1       9.477  12.269  21.906  0.00  0.00    +0.000 C 
BRANCH  24  26
ATOM     25  C   UNL     1       7.461  11.858  23.462  0.00  0.00    +0.000 C 
ATOM     26  C   UNL     1       8.611  12.746  23.053  0.00  0.00    +0.000 C 
ATOM     27  O   UNL     1       8.793  13.846  23.576  0.00  0.00    +0.000 OA
ENDBRANCH  24  26
ENDBRANCH   1  24
TORSDOF 3
ENDMDL
MODEL 9
REMARK VINA RESULT:      -6.2      8.955     11.401
REMARK  Name = 
REMARK  7 active torsions:
REMARK  status: ('A' for Active; 'I' for Inactive)
REMARK    1  A    between atoms: C_1  and  C_2
REMARK    2  A    between atoms: C_2  and  C_4
REMARK    3  A    between atoms: C_4  and  C_5
REMARK    4  A    between atoms: C_7  and  C_8
REMARK    5  A    between atoms: C_18  and  C_19
REMARK    6  A    between atoms: C_20  and  C_21
REMARK    7  A    between atoms: C_23  and  C_24
REMARK                            x       y       z     vdW  Elec       q    Type
REMARK                         _______ _______ _______ _____ _____    ______ ____
ROOT
ATOM      1  C   UNL     1       6.720  15.766  18.903  0.00  0.00    +0.000 C 
ATOM      2  N   UNL     1       6.841  15.300  20.283  0.00  0.00    +0.000 NA
ATOM      3  C   UNL     1       7.878  14.649  20.692  0.00  0.00    +0.000 C 
ATOM      4  C   UNL     1       8.984  14.223  19.802  0.00  0.00    +0.000 A 
ATOM      5  C   UNL     1       9.564  15.048  18.854  0.00  0.00    +0.000 A 
ATOM      6  S   UNL     1      10.865  14.348  18.045  0.00  0.00    +0.000 S 
ATOM      7  C   UNL     1      10.720  12.893  18.921  0.00  0.00    +0.000 A 
ATOM      8  C   UNL     1      11.678  11.774  18.651  0.00  0.00    +0.000 C 
ATOM      9  C   UNL     1       9.680  12.935  19.839  0.00  0.00    +0.000 A 
ATOM     10  C   UNL     1       9.330  11.783  20.741  0.00  0.00    +0.000 C 
ATOM     11  N   UNL     1       9.135  16.339  18.523  0.00  0.00    +0.000 N 
ATOM     12  C   UNL     1       9.795  17.473  18.062  0.00  0.00    +0.000 A 
ATOM     13  C   UNL     1      11.221  17.603  17.679  0.00  0.00    +0.000 C 
ATOM     14  N   UNL     1       8.960  18.497  18.081  0.00  0.00    +0.000 NA
ATOM     15  N   UNL     1       7.726  18.048  18.446  0.00  0.00    +0.000 NA
ATOM     16  C   UNL     1       7.817  16.752  18.640  0.00  0.00    +0.000 A 
ENDROOT
BRANCH   3  17
ATOM     17  C   UNL     1       7.992  14.379  22.153  0.00  0.00    +0.000 A 
ATOM     18  C   UNL     1       7.050  13.543  22.771  0.00  0.00    +0.000 A 
ATOM     19  C   UNL     1       7.124  13.298  24.147  0.00  0.00    +0.000 A 
ATOM     20  C   UNL     1       8.134  13.894  24.901  0.00  0.00    +0.000 A 
ATOM     21 CL   UNL     1       8.235  13.580  26.589  0.00  0.00    +0.000 Cl
ATOM     22  C   UNL     1       9.057  14.749  24.303  0.00  0.00    +0.000 A 
ATOM     23  C   UNL     1       8.976  15.003  22.931  0.00  0.00    +0.000 A 
ENDBRANCH   3  17
BRANCH   1  24
ATOM     24  C   UNL     1       5.328  16.382  18.751  0.00  0.00    +0.000 C 
BRANCH  24  26
ATOM     25  C   UNL     1       3.226  16.157  17.273  0.00  0.00    +0.000 C 
ATOM     26  C   UNL     1       4.368  15.486  17.997  0.00  0.00    +0.000 C 
ATOM     27  O   UNL     1       4.471  14.259  18.040  0.00  0.00    +0.000 OA
ENDBRANCH  24  26
ENDBRANCH   1  24
TORSDOF 3
ENDMDL
