MODEL 1
REMARK VINA RESULT:      -7.4      0.000      0.000
REMARK  Name = 
REMARK  9 active torsions:
REMARK  status: ('A' for Active; 'I' for Inactive)
REMARK    1  A    between atoms: C_1  and  C_2
REMARK    2  A    between atoms: C_2  and  N_3
REMARK    3  A    between atoms: C_2  and  C_19
REMARK    4  A    between atoms: C_8  and  N_9
REMARK    5  A    between atoms: C_14  and  C_15
REMARK    6  A    between atoms: C_15  and  C_16
REMARK    7  A    between atoms: C_15  and  O_17
REMARK    8  A    between atoms: C_22  and  C_23
REMARK    9  A    between atoms: C_23  and  C_24
REMARK                            x       y       z     vdW  Elec       q    Type
REMARK                         _______ _______ _______ _____ _____    ______ ____
ROOT
ATOM      1  N   UNL     1      -0.136   9.457  20.826  0.00  0.00    +0.000 N 
ATOM      2  C   UNL     1      -0.560  10.609  20.185  0.00  0.00    +0.000 A 
ATOM      3  N   UNL     1       0.157  11.730  20.287  0.00  0.00    +0.000 NA
ATOM      4  C   UNL     1      -0.317  12.847  19.721  0.00  0.00    +0.000 A 
ATOM      5  C   UNL     1      -1.465  12.873  18.990  0.00  0.00    +0.000 A 
ATOM      6  C   UNL     1      -2.144  11.678  18.920  0.00  0.00    +0.000 A 
ATOM      7  N   UNL     1      -1.743  10.550  19.548  0.00  0.00    +0.000 NA
ATOM      8  H   UNL     1      -0.613   8.676  20.387  0.00  0.00    +0.000 HD
ENDROOT
BRANCH   6   9
ATOM      9  N   UNL     1      -3.374  11.694  18.262  0.00  0.00    +0.000 N 
ATOM     10  C   UNL     1      -4.555  12.039  18.873  0.00  0.00    +0.000 C 
ATOM     11  O   UNL     1      -4.733  12.318  20.047  0.00  0.00    +0.000 OA
ATOM     12  O   UNL     1      -5.557  12.053  17.943  0.00  0.00    +0.000 OA
ATOM     13  C   UNL     1      -5.056  11.454  16.744  0.00  0.00    +0.000 C 
ATOM     14  C   UNL     1      -3.535  11.493  16.852  0.00  0.00    +0.000 C 
BRANCH  14  15
ATOM     15  C   UNL     1      -2.902  10.172  16.341  0.00  0.00    +0.000 C 
ATOM     16  C   UNL     1      -3.031   9.979  14.836  0.00  0.00    +0.000 C 
BRANCH  15  17
ATOM     17  O   UNL     1      -1.510  10.072  16.646  0.00  0.00    +0.000 OA
ATOM     18  H   UNL     1      -0.989  10.168  15.826  0.00  0.00    +0.000 HD
ENDBRANCH  15  17
ENDBRANCH  14  15
ENDBRANCH   6   9
BRANCH   1  20
ATOM     19  C   UNL     1       1.645   8.972  22.532  0.00  0.00    +0.000 C 
ATOM     20  C   UNL     1       1.295   9.230  21.054  0.00  0.00    +0.000 C 
BRANCH  20  21
ATOM     21  C   UNL     1       1.707   8.002  20.245  0.00  0.00    +0.000 A 
ATOM     22  C   UNL     1       1.719   6.720  20.820  0.00  0.00    +0.000 A 
ATOM     23  C   UNL     1       2.184   5.611  20.101  0.00  0.00    +0.000 A 
ATOM     24  C   UNL     1       2.653   5.731  18.779  0.00  0.00    +0.000 A 
ATOM     25  C   UNL     1       2.570   7.004  18.192  0.00  0.00    +0.000 A 
ATOM     26  C   UNL     1       2.124   8.114  18.917  0.00  0.00    +0.000 A 
ATOM     27  F   UNL     1       2.129   9.310  18.313  0.00  0.00    +0.000 F 
BRANCH  24  28
ATOM     28  C   UNL     1       3.241   4.532  18.022  0.00  0.00    +0.000 C 
ATOM     29  C   UNL     1       4.751   4.305  18.181  0.00  0.00    +0.000 C 
ATOM     30  C   UNL     1       4.229   4.837  16.887  0.00  0.00    +0.000 C 
BRANCH  28  31
ATOM     31  C   UNL     1       2.440   3.330  17.827  0.00  0.00    +0.000 C 
ATOM     32  N   UNL     1       1.831   2.362  17.667  0.00  0.00    +0.000 NA
ENDBRANCH  28  31
ENDBRANCH  24  28
ENDBRANCH  20  21
ENDBRANCH   1  20
TORSDOF 7
ENDMDL
MODEL 2
REMARK VINA RESULT:      -7.3      1.119      2.427
REMARK  Name = 
REMARK  9 active torsions:
REMARK  status: ('A' for Active; 'I' for Inactive)
REMARK    1  A    between atoms: C_1  and  C_2
REMARK    2  A    between atoms: C_2  and  N_3
REMARK    3  A    between atoms: C_2  and  C_19
REMARK    4  A    between atoms: C_8  and  N_9
REMARK    5  A    between atoms: C_14  and  C_15
REMARK    6  A    between atoms: C_15  and  C_16
REMARK    7  A    between atoms: C_15  and  O_17
REMARK    8  A    between atoms: C_22  and  C_23
REMARK    9  A    between atoms: C_23  and  C_24
REMARK                            x       y       z     vdW  Elec       q    Type
REMARK                         _______ _______ _______ _____ _____    ______ ____
ROOT
ATOM      1  N   UNL     1      -0.038   9.351  20.586  0.00  0.00    +0.000 N 
ATOM      2  C   UNL     1      -0.425  10.433  19.811  0.00  0.00    +0.000 A 
ATOM      3  N   UNL     1       0.343  11.524  19.763  0.00  0.00    +0.000 NA
ATOM      4  C   UNL     1      -0.094  12.582  19.069  0.00  0.00    +0.000 A 
ATOM      5  C   UNL     1      -1.254  12.570  18.356  0.00  0.00    +0.000 A 
ATOM      6  C   UNL     1      -1.985  11.407  18.445  0.00  0.00    +0.000 A 
ATOM      7  N   UNL     1      -1.621  10.349  19.203  0.00  0.00    +0.000 NA
ATOM      8  H   UNL     1      -0.557   8.545  20.255  0.00  0.00    +0.000 HD
ENDROOT
BRANCH   6   9
ATOM      9  N   UNL     1      -3.226  11.398  17.808  0.00  0.00    +0.000 N 
ATOM     10  C   UNL     1      -3.385  11.165  16.464  0.00  0.00    +0.000 C 
ATOM     11  O   UNL     1      -2.513  10.995  15.628  0.00  0.00    +0.000 OA
ATOM     12  O   UNL     1      -4.719  11.124  16.168  0.00  0.00    +0.000 OA
ATOM     13  C   UNL     1      -5.441  11.595  17.310  0.00  0.00    +0.000 C 
ATOM     14  C   UNL     1      -4.482  11.488  18.492  0.00  0.00    +0.000 C 
BRANCH  14  15
ATOM     15  C   UNL     1      -4.593  12.729  19.417  0.00  0.00    +0.000 C 
ATOM     16  C   UNL     1      -5.904  13.488  19.262  0.00  0.00    +0.000 C 
BRANCH  15  17
ATOM     17  O   UNL     1      -4.477  12.397  20.802  0.00  0.00    +0.000 OA
ATOM     18  H   UNL     1      -4.230  13.194  21.309  0.00  0.00    +0.000 HD
ENDBRANCH  15  17
ENDBRANCH  14  15
ENDBRANCH   6   9
BRANCH   1  20
ATOM     19  C   UNL     1       1.733   8.884  22.307  0.00  0.00    +0.000 C 
ATOM     20  C   UNL     1       1.386   9.090  20.820  0.00  0.00    +0.000 C 
BRANCH  20  21
ATOM     21  C   UNL     1       1.757   7.816  20.062  0.00  0.00    +0.000 A 
ATOM     22  C   UNL     1       1.702   6.557  20.683  0.00  0.00    +0.000 A 
ATOM     23  C   UNL     1       2.130   5.403  20.012  0.00  0.00    +0.000 A 
ATOM     24  C   UNL     1       2.626   5.455  18.696  0.00  0.00    +0.000 A 
ATOM     25  C   UNL     1       2.609   6.707  18.062  0.00  0.00    +0.000 A 
ATOM     26  C   UNL     1       2.200   7.862  18.740  0.00  0.00    +0.000 A 
ATOM     27  F   UNL     1       2.269   9.033  18.094  0.00  0.00    +0.000 F 
BRANCH  24  28
ATOM     28  C   UNL     1       3.173   4.204  17.993  0.00  0.00    +0.000 C 
ATOM     29  C   UNL     1       2.130   3.170  17.545  0.00  0.00    +0.000 C 
ATOM     30  C   UNL     1       3.001   2.862  18.718  0.00  0.00    +0.000 C 
BRANCH  28  31
ATOM     31  C   UNL     1       4.365   4.299  17.160  0.00  0.00    +0.000 C 
ATOM     32  N   UNL     1       5.324   4.354  16.518  0.00  0.00    +0.000 NA
ENDBRANCH  28  31
ENDBRANCH  24  28
ENDBRANCH  20  21
ENDBRANCH   1  20
TORSDOF 7
ENDMDL
MODEL 3
REMARK VINA RESULT:      -7.3      0.763      2.149
REMARK  Name = 
REMARK  9 active torsions:
REMARK  status: ('A' for Active; 'I' for Inactive)
REMARK    1  A    between atoms: C_1  and  C_2
REMARK    2  A    between atoms: C_2  and  N_3
REMARK    3  A    between atoms: C_2  and  C_19
REMARK    4  A    between atoms: C_8  and  N_9
REMARK    5  A    between atoms: C_14  and  C_15
REMARK    6  A    between atoms: C_15  and  C_16
REMARK    7  A    between atoms: C_15  and  O_17
REMARK    8  A    between atoms: C_22  and  C_23
REMARK    9  A    between atoms: C_23  and  C_24
REMARK                            x       y       z     vdW  Elec       q    Type
REMARK                         _______ _______ _______ _____ _____    ______ ____
ROOT
ATOM      1  N   UNL     1      -0.153   9.311  20.555  0.00  0.00    +0.000 N 
ATOM      2  C   UNL     1      -0.598  10.455  19.913  0.00  0.00    +0.000 A 
ATOM      3  N   UNL     1       0.073  11.600  20.055  0.00  0.00    +0.000 NA
ATOM      4  C   UNL     1      -0.422  12.707  19.487  0.00  0.00    +0.000 A 
ATOM      5  C   UNL     1      -1.545  12.701  18.716  0.00  0.00    +0.000 A 
ATOM      6  C   UNL     1      -2.175  11.483  18.607  0.00  0.00    +0.000 A 
ATOM      7  N   UNL     1      -1.754  10.362  19.234  0.00  0.00    +0.000 NA
ATOM      8  H   UNL     1      -0.586   8.520  20.090  0.00  0.00    +0.000 HD
ENDROOT
BRANCH   6   9
ATOM      9  N   UNL     1      -3.382  11.463  17.906  0.00  0.00    +0.000 N 
ATOM     10  C   UNL     1      -3.467  11.265  16.550  0.00  0.00    +0.000 C 
ATOM     11  O   UNL     1      -2.549  11.140  15.756  0.00  0.00    +0.000 OA
ATOM     12  O   UNL     1      -4.782  11.202  16.184  0.00  0.00    +0.000 OA
ATOM     13  C   UNL     1      -5.573  11.622  17.300  0.00  0.00    +0.000 C 
ATOM     14  C   UNL     1      -4.673  11.504  18.527  0.00  0.00    +0.000 C 
BRANCH  14  15
ATOM     15  C   UNL     1      -4.862  12.714  19.480  0.00  0.00    +0.000 C 
ATOM     16  C   UNL     1      -6.091  13.553  19.161  0.00  0.00    +0.000 C 
BRANCH  15  17
ATOM     17  O   UNL     1      -4.979  12.325  20.850  0.00  0.00    +0.000 OA
ATOM     18  H   UNL     1      -4.157  12.552  21.324  0.00  0.00    +0.000 HD
ENDBRANCH  15  17
ENDBRANCH  14  15
ENDBRANCH   6   9
BRANCH   1  20
ATOM     19  C   UNL     1       1.587   8.896  22.320  0.00  0.00    +0.000 C 
ATOM     20  C   UNL     1       1.276   9.135  20.830  0.00  0.00    +0.000 C 
BRANCH  20  21
ATOM     21  C   UNL     1       1.756   7.917  20.042  0.00  0.00    +0.000 A 
ATOM     22  C   UNL     1       1.751   6.632  20.610  0.00  0.00    +0.000 A 
ATOM     23  C   UNL     1       2.277   5.534  19.916  0.00  0.00    +0.000 A 
ATOM     24  C   UNL     1       2.825   5.669  18.627  0.00  0.00    +0.000 A 
ATOM     25  C   UNL     1       2.759   6.943  18.041  0.00  0.00    +0.000 A 
ATOM     26  C   UNL     1       2.252   8.043  18.743  0.00  0.00    +0.000 A 
ATOM     27  F   UNL     1       2.277   9.242  18.147  0.00  0.00    +0.000 F 
BRANCH  24  28
ATOM     28  C   UNL     1       3.476   4.482  17.901  0.00  0.00    +0.000 C 
ATOM     29  C   UNL     1       4.985   4.304  18.116  0.00  0.00    +0.000 C 
ATOM     30  C   UNL     1       4.494   4.810  16.800  0.00  0.00    +0.000 C 
BRANCH  28  31
ATOM     31  C   UNL     1       2.719   3.255  17.688  0.00  0.00    +0.000 C 
ATOM     32  N   UNL     1       2.107   2.286  17.547  0.00  0.00    +0.000 NA
ENDBRANCH  28  31
ENDBRANCH  24  28
ENDBRANCH  20  21
ENDBRANCH   1  20
TORSDOF 7
ENDMDL
MODEL 4
REMARK VINA RESULT:      -7.3      1.158      2.407
REMARK  Name = 
REMARK  9 active torsions:
REMARK  status: ('A' for Active; 'I' for Inactive)
REMARK    1  A    between atoms: C_1  and  C_2
REMARK    2  A    between atoms: C_2  and  N_3
REMARK    3  A    between atoms: C_2  and  C_19
REMARK    4  A    between atoms: C_8  and  N_9
REMARK    5  A    between atoms: C_14  and  C_15
REMARK    6  A    between atoms: C_15  and  C_16
REMARK    7  A    between atoms: C_15  and  O_17
REMARK    8  A    between atoms: C_22  and  C_23
REMARK    9  A    between atoms: C_23  and  C_24
REMARK                            x       y       z     vdW  Elec       q    Type
REMARK                         _______ _______ _______ _____ _____    ______ ____
ROOT
ATOM      1  N   UNL     1      -0.101   9.172  20.505  0.00  0.00    +0.000 N 
ATOM      2  C   UNL     1      -0.544  10.346  19.919  0.00  0.00    +0.000 A 
ATOM      3  N   UNL     1       0.135  11.480  20.105  0.00  0.00    +0.000 NA
ATOM      4  C   UNL     1      -0.358  12.614  19.591  0.00  0.00    +0.000 A 
ATOM      5  C   UNL     1      -1.487  12.649  18.831  0.00  0.00    +0.000 A 
ATOM      6  C   UNL     1      -2.126  11.440  18.673  0.00  0.00    +0.000 A 
ATOM      7  N   UNL     1      -1.707  10.290  19.246  0.00  0.00    +0.000 NA
ATOM      8  H   UNL     1      -0.543   8.405  20.009  0.00  0.00    +0.000 HD
ENDROOT
BRANCH   6   9
ATOM      9  N   UNL     1      -3.339  11.459  17.983  0.00  0.00    +0.000 N 
ATOM     10  C   UNL     1      -3.441  11.272  16.627  0.00  0.00    +0.000 C 
ATOM     11  O   UNL     1      -2.534  11.125  15.824  0.00  0.00    +0.000 OA
ATOM     12  O   UNL     1      -4.761  11.248  16.273  0.00  0.00    +0.000 OA
ATOM     13  C   UNL     1      -5.529  11.684  17.398  0.00  0.00    +0.000 C 
ATOM     14  C   UNL     1      -4.623  11.534  18.616  0.00  0.00    +0.000 C 
BRANCH  14  15
ATOM     15  C   UNL     1      -4.769  12.743  19.577  0.00  0.00    +0.000 C 
ATOM     16  C   UNL     1      -5.946  13.648  19.241  0.00  0.00    +0.000 C 
BRANCH  15  17
ATOM     17  O   UNL     1      -4.936  12.349  20.940  0.00  0.00    +0.000 OA
ATOM     18  H   UNL     1      -4.061  12.197  21.344  0.00  0.00    +0.000 HD
ENDBRANCH  15  17
ENDBRANCH  14  15
ENDBRANCH   6   9
BRANCH   1  20
ATOM     19  C   UNL     1       1.687   8.959  22.257  0.00  0.00    +0.000 C 
ATOM     20  C   UNL     1       1.330   8.975  20.759  0.00  0.00    +0.000 C 
BRANCH  20  21
ATOM     21  C   UNL     1       1.728   7.627  20.159  0.00  0.00    +0.000 A 
ATOM     22  C   UNL     1       1.490   6.425  20.845  0.00  0.00    +0.000 A 
ATOM     23  C   UNL     1       1.939   5.201  20.333  0.00  0.00    +0.000 A 
ATOM     24  C   UNL     1       2.641   5.123  19.115  0.00  0.00    +0.000 A 
ATOM     25  C   UNL     1       2.810   6.322  18.404  0.00  0.00    +0.000 A 
ATOM     26  C   UNL     1       2.378   7.546  18.927  0.00  0.00    +0.000 A 
ATOM     27  F   UNL     1       2.629   8.659  18.224  0.00  0.00    +0.000 F 
BRANCH  24  28
ATOM     28  C   UNL     1       3.205   3.793  18.595  0.00  0.00    +0.000 C 
ATOM     29  C   UNL     1       3.430   3.700  17.079  0.00  0.00    +0.000 C 
ATOM     30  C   UNL     1       2.293   2.951  17.692  0.00  0.00    +0.000 C 
BRANCH  28  31
ATOM     31  C   UNL     1       4.129   3.022  19.419  0.00  0.00    +0.000 C 
ATOM     32  N   UNL     1       4.839   2.411  20.094  0.00  0.00    +0.000 NA
ENDBRANCH  28  31
ENDBRANCH  24  28
ENDBRANCH  20  21
ENDBRANCH   1  20
TORSDOF 7
ENDMDL
MODEL 5
REMARK VINA RESULT:      -7.3      4.256      6.216
REMARK  Name = 
REMARK  9 active torsions:
REMARK  status: ('A' for Active; 'I' for Inactive)
REMARK    1  A    between atoms: C_1  and  C_2
REMARK    2  A    between atoms: C_2  and  N_3
REMARK    3  A    between atoms: C_2  and  C_19
REMARK    4  A    between atoms: C_8  and  N_9
REMARK    5  A    between atoms: C_14  and  C_15
REMARK    6  A    between atoms: C_15  and  C_16
REMARK    7  A    between atoms: C_15  and  O_17
REMARK    8  A    between atoms: C_22  and  C_23
REMARK    9  A    between atoms: C_23  and  C_24
REMARK                            x       y       z     vdW  Elec       q    Type
REMARK                         _______ _______ _______ _____ _____    ______ ____
ROOT
ATOM      1  N   UNL     1       1.574  11.336  18.371  0.00  0.00    +0.000 N 
ATOM      2  C   UNL     1       1.356  12.613  18.862  0.00  0.00    +0.000 A 
ATOM      3  N   UNL     1       0.125  12.987  19.218  0.00  0.00    +0.000 NA
ATOM      4  C   UNL     1      -0.070  14.251  19.615  0.00  0.00    +0.000 A 
ATOM      5  C   UNL     1       0.945  15.151  19.735  0.00  0.00    +0.000 A 
ATOM      6  C   UNL     1       2.186  14.689  19.361  0.00  0.00    +0.000 A 
ATOM      7  N   UNL     1       2.409  13.448  18.874  0.00  0.00    +0.000 NA
ATOM      8  H   UNL     1       2.567  11.148  18.458  0.00  0.00    +0.000 HD
ENDROOT
BRANCH   6   9
ATOM      9  N   UNL     1       3.230  15.616  19.377  0.00  0.00    +0.000 N 
ATOM     10  C   UNL     1       3.649  16.304  18.265  0.00  0.00    +0.000 C 
ATOM     11  O   UNL     1       3.245  16.187  17.120  0.00  0.00    +0.000 OA
ATOM     12  O   UNL     1       4.615  17.200  18.627  0.00  0.00    +0.000 OA
ATOM     13  C   UNL     1       5.010  16.907  19.970  0.00  0.00    +0.000 C 
ATOM     14  C   UNL     1       3.890  16.062  20.569  0.00  0.00    +0.000 C 
BRANCH  14  15
ATOM     15  C   UNL     1       4.460  14.903  21.429  0.00  0.00    +0.000 C 
ATOM     16  C   UNL     1       5.871  15.162  21.939  0.00  0.00    +0.000 C 
BRANCH  15  17
ATOM     17  O   UNL     1       3.658  14.622  22.578  0.00  0.00    +0.000 OA
ATOM     18  H   UNL     1       3.960  13.791  22.990  0.00  0.00    +0.000 HD
ENDBRANCH  15  17
ENDBRANCH  14  15
ENDBRANCH   6   9
BRANCH   1  20
ATOM     19  C   UNL     1      -0.463   9.960  17.849  0.00  0.00    +0.000 C 
ATOM     20  C   UNL     1       0.715  10.229  18.805  0.00  0.00    +0.000 C 
BRANCH  20  21
ATOM     21  C   UNL     1       1.576   8.968  18.867  0.00  0.00    +0.000 A 
ATOM     22  C   UNL     1       2.398   8.593  17.791  0.00  0.00    +0.000 A 
ATOM     23  C   UNL     1       3.115   7.389  17.816  0.00  0.00    +0.000 A 
ATOM     24  C   UNL     1       3.046   6.512  18.915  0.00  0.00    +0.000 A 
ATOM     25  C   UNL     1       2.278   6.931  20.013  0.00  0.00    +0.000 A 
ATOM     26  C   UNL     1       1.547   8.124  19.978  0.00  0.00    +0.000 A 
ATOM     27  F   UNL     1       0.786   8.432  21.036  0.00  0.00    +0.000 F 
BRANCH  24  28
ATOM     28  C   UNL     1       3.765   5.155  18.907  0.00  0.00    +0.000 C 
ATOM     29  C   UNL     1       3.202   4.097  17.947  0.00  0.00    +0.000 C 
ATOM     30  C   UNL     1       2.974   3.941  19.414  0.00  0.00    +0.000 C 
BRANCH  28  31
ATOM     31  C   UNL     1       5.201   5.090  19.146  0.00  0.00    +0.000 C 
ATOM     32  N   UNL     1       6.334   5.019  19.358  0.00  0.00    +0.000 NA
ENDBRANCH  28  31
ENDBRANCH  24  28
ENDBRANCH  20  21
ENDBRANCH   1  20
TORSDOF 7
ENDMDL
MODEL 6
REMARK VINA RESULT:      -7.1      4.163      6.120
REMARK  Name = 
REMARK  9 active torsions:
REMARK  status: ('A' for Active; 'I' for Inactive)
REMARK    1  A    between atoms: C_1  and  C_2
REMARK    2  A    between atoms: C_2  and  N_3
REMARK    3  A    between atoms: C_2  and  C_19
REMARK    4  A    between atoms: C_8  and  N_9
REMARK    5  A    between atoms: C_14  and  C_15
REMARK    6  A    between atoms: C_15  and  C_16
REMARK    7  A    between atoms: C_15  and  O_17
REMARK    8  A    between atoms: C_22  and  C_23
REMARK    9  A    between atoms: C_23  and  C_24
REMARK                            x       y       z     vdW  Elec       q    Type
REMARK                         _______ _______ _______ _____ _____    ______ ____
ROOT
ATOM      1  N   UNL     1       1.413  11.382  18.342  0.00  0.00    +0.000 N 
ATOM      2  C   UNL     1       1.253  12.651  18.875  0.00  0.00    +0.000 A 
ATOM      3  N   UNL     1       0.049  13.051  19.290  0.00  0.00    +0.000 NA
ATOM      4  C   UNL     1      -0.092  14.308  19.727  0.00  0.00    +0.000 A 
ATOM      5  C   UNL     1       0.953  15.175  19.831  0.00  0.00    +0.000 A 
ATOM      6  C   UNL     1       2.164  14.688  19.396  0.00  0.00    +0.000 A 
ATOM      7  N   UNL     1       2.330  13.455  18.868  0.00  0.00    +0.000 NA
ATOM      8  H   UNL     1       2.403  11.163  18.385  0.00  0.00    +0.000 HD
ENDROOT
BRANCH   6   9
ATOM      9  N   UNL     1       3.235  15.583  19.395  0.00  0.00    +0.000 N 
ATOM     10  C   UNL     1       3.671  16.241  18.272  0.00  0.00    +0.000 C 
ATOM     11  O   UNL     1       3.259  16.120  17.129  0.00  0.00    +0.000 OA
ATOM     12  O   UNL     1       4.665  17.114  18.617  0.00  0.00    +0.000 OA
ATOM     13  C   UNL     1       5.055  16.829  19.964  0.00  0.00    +0.000 C 
ATOM     14  C   UNL     1       3.913  16.027  20.578  0.00  0.00    +0.000 C 
BRANCH  14  15
ATOM     15  C   UNL     1       4.450  14.865  21.454  0.00  0.00    +0.000 C 
ATOM     16  C   UNL     1       5.863  15.097  21.972  0.00  0.00    +0.000 C 
BRANCH  15  17
ATOM     17  O   UNL     1       3.634  14.612  22.599  0.00  0.00    +0.000 OA
ATOM     18  H   UNL     1       3.728  15.347  23.234  0.00  0.00    +0.000 HD
ENDBRANCH  15  17
ENDBRANCH  14  15
ENDBRANCH   6   9
BRANCH   1  20
ATOM     19  C   UNL     1      -0.604   9.988  17.793  0.00  0.00    +0.000 C 
ATOM     20  C   UNL     1       0.539  10.289  18.780  0.00  0.00    +0.000 C 
BRANCH  20  21
ATOM     21  C   UNL     1       1.397   9.032  18.914  0.00  0.00    +0.000 A 
ATOM     22  C   UNL     1       2.157   8.550  17.835  0.00  0.00    +0.000 A 
ATOM     23  C   UNL     1       2.869   7.347  17.935  0.00  0.00    +0.000 A 
ATOM     24  C   UNL     1       2.857   6.577  19.113  0.00  0.00    +0.000 A 
ATOM     25  C   UNL     1       2.153   7.105  20.207  0.00  0.00    +0.000 A 
ATOM     26  C   UNL     1       1.426   8.296  20.099  0.00  0.00    +0.000 A 
ATOM     27  F   UNL     1       0.725   8.708  21.164  0.00  0.00    +0.000 F 
BRANCH  24  28
ATOM     28  C   UNL     1       3.569   5.218  19.194  0.00  0.00    +0.000 C 
ATOM     29  C   UNL     1       5.104   5.258  19.193  0.00  0.00    +0.000 C 
ATOM     30  C   UNL     1       4.388   4.785  17.970  0.00  0.00    +0.000 C 
BRANCH  28  31
ATOM     31  C   UNL     1       2.966   4.124  19.944  0.00  0.00    +0.000 C 
ATOM     32  N   UNL     1       2.517   3.244  20.543  0.00  0.00    +0.000 NA
ENDBRANCH  28  31
ENDBRANCH  24  28
ENDBRANCH  20  21
ENDBRANCH   1  20
TORSDOF 7
ENDMDL
MODEL 7
REMARK VINA RESULT:      -7.1      7.578     10.751
REMARK  Name = 
REMARK  9 active torsions:
REMARK  status: ('A' for Active; 'I' for Inactive)
REMARK    1  A    between atoms: C_1  and  C_2
REMARK    2  A    between atoms: C_2  and  N_3
REMARK    3  A    between atoms: C_2  and  C_19
REMARK    4  A    between atoms: C_8  and  N_9
REMARK    5  A    between atoms: C_14  and  C_15
REMARK    6  A    between atoms: C_15  and  C_16
REMARK    7  A    between atoms: C_15  and  O_17
REMARK    8  A    between atoms: C_22  and  C_23
REMARK    9  A    between atoms: C_23  and  C_24
REMARK                            x       y       z     vdW  Elec       q    Type
REMARK                         _______ _______ _______ _____ _____    ______ ____
ROOT
ATOM      1  N   UNL     1       5.594  14.401  17.715  0.00  0.00    +0.000 N 
ATOM      2  C   UNL     1       6.863  14.789  18.113  0.00  0.00    +0.000 A 
ATOM      3  N   UNL     1       7.098  16.063  18.435  0.00  0.00    +0.000 NA
ATOM      4  C   UNL     1       8.350  16.425  18.740  0.00  0.00    +0.000 A 
ATOM      5  C   UNL     1       9.380  15.537  18.803  0.00  0.00    +0.000 A 
ATOM      6  C   UNL     1       9.059  14.241  18.469  0.00  0.00    +0.000 A 
ATOM      7  N   UNL     1       7.826  13.852  18.073  0.00  0.00    +0.000 NA
ATOM      8  H   UNL     1       5.542  13.393  17.821  0.00  0.00    +0.000 HD
ENDROOT
BRANCH   6   9
ATOM      9  N   UNL     1      10.111  13.325  18.427  0.00  0.00    +0.000 N 
ATOM     10  C   UNL     1      10.969  13.207  17.361  0.00  0.00    +0.000 C 
ATOM     11  O   UNL     1      10.926  13.806  16.299  0.00  0.00    +0.000 OA
ATOM     12  O   UNL     1      11.943  12.298  17.664  0.00  0.00    +0.000 OA
ATOM     13  C   UNL     1      11.560  11.623  18.866  0.00  0.00    +0.000 C 
ATOM     14  C   UNL     1      10.509  12.505  19.533  0.00  0.00    +0.000 C 
BRANCH  14  15
ATOM     15  C   UNL     1       9.351  11.653  20.118  0.00  0.00    +0.000 C 
ATOM     16  C   UNL     1       9.182  10.304  19.433  0.00  0.00    +0.000 C 
BRANCH  15  17
ATOM     17  O   UNL     1       9.512  11.384  21.511  0.00  0.00    +0.000 OA
ATOM     18  H   UNL     1       8.828  10.752  21.803  0.00  0.00    +0.000 HD
ENDBRANCH  15  17
ENDBRANCH  14  15
ENDBRANCH   6   9
BRANCH   1  20
ATOM     19  C   UNL     1       3.648  15.878  17.125  0.00  0.00    +0.000 C 
ATOM     20  C   UNL     1       4.417  15.116  18.221  0.00  0.00    +0.000 C 
BRANCH  20  21
ATOM     21  C   UNL     1       3.474  14.085  18.837  0.00  0.00    +0.000 A 
ATOM     22  C   UNL     1       2.820  13.129  18.042  0.00  0.00    +0.000 A 
ATOM     23  C   UNL     1       1.886  12.244  18.599  0.00  0.00    +0.000 A 
ATOM     24  C   UNL     1       1.568  12.273  19.970  0.00  0.00    +0.000 A 
ATOM     25  C   UNL     1       2.280  13.184  20.766  0.00  0.00    +0.000 A 
ATOM     26  C   UNL     1       3.197  14.080  20.205  0.00  0.00    +0.000 A 
ATOM     27  F   UNL     1       3.794  14.965  21.014  0.00  0.00    +0.000 F 
BRANCH  24  28
ATOM     28  C   UNL     1       0.485  11.361  20.564  0.00  0.00    +0.000 C 
ATOM     29  C   UNL     1       0.625   9.862  20.265  0.00  0.00    +0.000 C 
ATOM     30  C   UNL     1      -0.444  10.643  19.575  0.00  0.00    +0.000 C 
BRANCH  28  31
ATOM     31  C   UNL     1      -0.128  11.696  21.843  0.00  0.00    +0.000 C 
ATOM     32  N   UNL     1      -0.641  11.959  22.844  0.00  0.00    +0.000 NA
ENDBRANCH  28  31
ENDBRANCH  24  28
ENDBRANCH  20  21
ENDBRANCH   1  20
TORSDOF 7
ENDMDL
MODEL 8
REMARK VINA RESULT:      -7.0      1.014      1.328
REMARK  Name = 
REMARK  9 active torsions:
REMARK  status: ('A' for Active; 'I' for Inactive)
REMARK    1  A    between atoms: C_1  and  C_2
REMARK    2  A    between atoms: C_2  and  N_3
REMARK    3  A    between atoms: C_2  and  C_19
REMARK    4  A    between atoms: C_8  and  N_9
REMARK    5  A    between atoms: C_14  and  C_15
REMARK    6  A    between atoms: C_15  and  C_16
REMARK    7  A    between atoms: C_15  and  O_17
REMARK    8  A    between atoms: C_22  and  C_23
REMARK    9  A    between atoms: C_23  and  C_24
REMARK                            x       y       z     vdW  Elec       q    Type
REMARK                         _______ _______ _______ _____ _____    ______ ____
ROOT
ATOM      1  N   UNL     1      -0.012   9.240  20.538  0.00  0.00    +0.000 N 
ATOM      2  C   UNL     1      -0.419  10.444  19.987  0.00  0.00    +0.000 A 
ATOM      3  N   UNL     1       0.286  11.553  20.219  0.00  0.00    +0.000 NA
ATOM      4  C   UNL     1      -0.173  12.715  19.738  0.00  0.00    +0.000 A 
ATOM      5  C   UNL     1      -1.291  12.804  18.966  0.00  0.00    +0.000 A 
ATOM      6  C   UNL     1      -1.958  11.618  18.760  0.00  0.00    +0.000 A 
ATOM      7  N   UNL     1      -1.574  10.439  19.299  0.00  0.00    +0.000 NA
ATOM      8  H   UNL     1      -0.466   8.501  20.011  0.00  0.00    +0.000 HD
ENDROOT
BRANCH   6   9
ATOM      9  N   UNL     1      -3.161  11.689  18.057  0.00  0.00    +0.000 N 
ATOM     10  C   UNL     1      -4.372  11.946  18.652  0.00  0.00    +0.000 C 
ATOM     11  O   UNL     1      -4.603  12.087  19.842  0.00  0.00    +0.000 OA
ATOM     12  O   UNL     1      -5.335  12.048  17.689  0.00  0.00    +0.000 OA
ATOM     13  C   UNL     1      -4.775  11.596  16.452  0.00  0.00    +0.000 C 
ATOM     14  C   UNL     1      -3.261  11.646  16.628  0.00  0.00    +0.000 C 
BRANCH  14  15
ATOM     15  C   UNL     1      -2.582  10.400  15.999  0.00  0.00    +0.000 C 
ATOM     16  C   UNL     1      -3.186   9.081  16.460  0.00  0.00    +0.000 C 
BRANCH  15  17
ATOM     17  O   UNL     1      -2.643  10.399  14.572  0.00  0.00    +0.000 OA
ATOM     18  H   UNL     1      -1.963   9.795  14.217  0.00  0.00    +0.000 HD
ENDBRANCH  15  17
ENDBRANCH  14  15
ENDBRANCH   6   9
BRANCH   1  20
ATOM     19  C   UNL     1       1.728   8.796  22.296  0.00  0.00    +0.000 C 
ATOM     20  C   UNL     1       1.410   8.999  20.802  0.00  0.00    +0.000 C 
BRANCH  20  21
ATOM     21  C   UNL     1       1.815   7.731  20.052  0.00  0.00    +0.000 A 
ATOM     22  C   UNL     1       1.740   6.468  20.661  0.00  0.00    +0.000 A 
ATOM     23  C   UNL     1       2.199   5.320  20.000  0.00  0.00    +0.000 A 
ATOM     24  C   UNL     1       2.747   5.383  18.705  0.00  0.00    +0.000 A 
ATOM     25  C   UNL     1       2.751   6.640  18.080  0.00  0.00    +0.000 A 
ATOM     26  C   UNL     1       2.311   7.788  18.748  0.00  0.00    +0.000 A 
ATOM     27  F   UNL     1       2.402   8.964  18.114  0.00  0.00    +0.000 F 
BRANCH  24  28
ATOM     28  C   UNL     1       3.326   4.139  18.016  0.00  0.00    +0.000 C 
ATOM     29  C   UNL     1       2.307   3.086  17.554  0.00  0.00    +0.000 C 
ATOM     30  C   UNL     1       3.163   2.797  18.743  0.00  0.00    +0.000 C 
BRANCH  28  31
ATOM     31  C   UNL     1       4.530   4.251  17.202  0.00  0.00    +0.000 C 
ATOM     32  N   UNL     1       5.489   4.368  16.570  0.00  0.00    +0.000 NA
ENDBRANCH  28  31
ENDBRANCH  24  28
ENDBRANCH  20  21
ENDBRANCH   1  20
TORSDOF 7
ENDMDL
MODEL 9
REMARK VINA RESULT:      -6.9      7.561     10.686
REMARK  Name = 
REMARK  9 active torsions:
REMARK  status: ('A' for Active; 'I' for Inactive)
REMARK    1  A    between atoms: C_1  and  C_2
REMARK    2  A    between atoms: C_2  and  N_3
REMARK    3  A    between atoms: C_2  and  C_19
REMARK    4  A    between atoms: C_8  and  N_9
REMARK    5  A    between atoms: C_14  and  C_15
REMARK    6  A    between atoms: C_15  and  C_16
REMARK    7  A    between atoms: C_15  and  O_17
REMARK    8  A    between atoms: C_22  and  C_23
REMARK    9  A    between atoms: C_23  and  C_24
REMARK                            x       y       z     vdW  Elec       q    Type
REMARK                         _______ _______ _______ _____ _____    ______ ____
ROOT
ATOM      1  N   UNL     1       5.589  14.383  17.701  0.00  0.00    +0.000 N 
ATOM      2  C   UNL     1       6.860  14.773  18.093  0.00  0.00    +0.000 A 
ATOM      3  N   UNL     1       7.097  16.050  18.404  0.00  0.00    +0.000 NA
ATOM      4  C   UNL     1       8.350  16.413  18.703  0.00  0.00    +0.000 A 
ATOM      5  C   UNL     1       9.380  15.524  18.770  0.00  0.00    +0.000 A 
ATOM      6  C   UNL     1       9.056  14.225  18.447  0.00  0.00    +0.000 A 
ATOM      7  N   UNL     1       7.822  13.835  18.058  0.00  0.00    +0.000 NA
ATOM      8  H   UNL     1       5.537  13.376  17.815  0.00  0.00    +0.000 HD
ENDROOT
BRANCH   6   9
ATOM      9  N   UNL     1      10.108  13.309  18.409  0.00  0.00    +0.000 N 
ATOM     10  C   UNL     1      10.974  13.195  17.350  0.00  0.00    +0.000 C 
ATOM     11  O   UNL     1      10.941  13.799  16.291  0.00  0.00    +0.000 OA
ATOM     12  O   UNL     1      11.945  12.283  17.658  0.00  0.00    +0.000 OA
ATOM     13  C   UNL     1      11.550  11.602  18.853  0.00  0.00    +0.000 C 
ATOM     14  C   UNL     1      10.494  12.482  19.515  0.00  0.00    +0.000 C 
BRANCH  14  15
ATOM     15  C   UNL     1       9.330  11.630  20.085  0.00  0.00    +0.000 C 
ATOM     16  C   UNL     1       9.149  10.295  19.375  0.00  0.00    +0.000 C 
BRANCH  15  17
ATOM     17  O   UNL     1       9.492  11.333  21.473  0.00  0.00    +0.000 OA
ATOM     18  H   UNL     1       9.362  12.145  21.997  0.00  0.00    +0.000 HD
ENDBRANCH  15  17
ENDBRANCH  14  15
ENDBRANCH   6   9
BRANCH   1  20
ATOM     19  C   UNL     1       3.641  15.854  17.103  0.00  0.00    +0.000 C 
ATOM     20  C   UNL     1       4.415  15.104  18.204  0.00  0.00    +0.000 C 
BRANCH  20  21
ATOM     21  C   UNL     1       3.474  14.078  18.834  0.00  0.00    +0.000 A 
ATOM     22  C   UNL     1       2.875  13.068  18.064  0.00  0.00    +0.000 A 
ATOM     23  C   UNL     1       1.943  12.187  18.629  0.00  0.00    +0.000 A 
ATOM     24  C   UNL     1       1.571  12.274  19.983  0.00  0.00    +0.000 A 
ATOM     25  C   UNL     1       2.230  13.241  20.760  0.00  0.00    +0.000 A 
ATOM     26  C   UNL     1       3.145  14.133  20.190  0.00  0.00    +0.000 A 
ATOM     27  F   UNL     1       3.689  15.071  20.976  0.00  0.00    +0.000 F 
BRANCH  24  28
ATOM     28  C   UNL     1       0.489  11.363  20.581  0.00  0.00    +0.000 C 
ATOM     29  C   UNL     1      -0.965  11.792  20.338  0.00  0.00    +0.000 C 
ATOM     30  C   UNL     1      -0.379  11.951  21.702  0.00  0.00    +0.000 C 
BRANCH  28  31
ATOM     31  C   UNL     1       0.715   9.926  20.674  0.00  0.00    +0.000 C 
ATOM     32  N   UNL     1       0.893   8.790  20.779  0.00  0.00    +0.000 NA
ENDBRANCH  28  31
ENDBRANCH  24  28
ENDBRANCH  20  21
ENDBRANCH   1  20
TORSDOF 7
ENDMDL
