MODEL 1
REMARK VINA RESULT:      -7.6      0.000      0.000
REMARK  Name = 
REMARK  5 active torsions:
REMARK  status: ('A' for Active; 'I' for Inactive)
REMARK    1  A    between atoms: C_1  and  C_2
REMARK    2  A    between atoms: C_3  and  C_4
REMARK    3  A    between atoms: C_4  and  N_5
REMARK    4  A    between atoms: N_12  and  C_13
REMARK    5  A    between atoms: N_25  and  C_26
REMARK                            x       y       z     vdW  Elec       q    Type
REMARK                         _______ _______ _______ _____ _____    ______ ____
ROOT
ATOM      1  N   UNL     1      -0.613  10.147  18.447  0.00  0.00    +0.000 NA
ATOM      2  C   UNL     1      -0.933  10.017  19.875  0.00  0.00    +0.000 C 
ATOM      3  C   UNL     1       0.284  10.017  20.812  0.00  0.00    +0.000 C 
ATOM      4  C   UNL     1       1.228  11.213  20.585  0.00  0.00    +0.000 C 
ATOM      5  C   UNL     1       1.266  11.645  19.130  0.00  0.00    +0.000 C 
ATOM      6  C   UNL     1       0.792  10.515  18.208  0.00  0.00    +0.000 C 
ATOM      7  C   UNL     1       1.749   9.280  18.351  0.00  0.00    +0.000 C 
ATOM      8  N   UNL     1       1.500   8.253  19.384  0.00  0.00    +0.000 NA
ATOM      9  C   UNL     1       1.059   8.699  20.707  0.00  0.00    +0.000 C 
ENDROOT
BRANCH   8  10
ATOM     10  C   UNL     1       2.586   7.241  19.520  0.00  0.00    +0.000 C 
ATOM     11  C   UNL     1       2.781   6.352  18.256  0.00  0.00    +0.000 C 
ATOM     12  C   UNL     1       2.066   5.097  18.637  0.00  0.00    +0.000 A 
ATOM     13  C   UNL     1       1.575   4.117  17.794  0.00  0.00    +0.000 A 
ATOM     14  C   UNL     1       0.907   3.033  18.362  0.00  0.00    +0.000 A 
ATOM     15  C   UNL     1       0.764   2.932  19.759  0.00  0.00    +0.000 A 
ATOM     16  C   UNL     1       1.259   3.932  20.598  0.00  0.00    +0.000 A 
ATOM     17  C   UNL     1       1.883   5.022  20.020  0.00  0.00    +0.000 A 
ATOM     18  C   UNL     1       2.411   6.248  20.703  0.00  0.00    +0.000 C 
ENDBRANCH   8  10
BRANCH   1  19
ATOM     19  C   UNL     1      -1.575  10.993  17.725  0.00  0.00    +0.000 C 
BRANCH  19  22
ATOM     20  C   UNL     1      -4.962  10.940  17.984  0.00  0.00    +0.000 C 
ATOM     21  C   UNL     1      -3.914  11.654  18.767  0.00  0.00    +0.000 A 
ATOM     22  C   UNL     1      -2.527  11.694  18.652  0.00  0.00    +0.000 A 
ATOM     23  C   UNL     1      -2.144  12.645  19.634  0.00  0.00    +0.000 A 
ATOM     24  N   UNL     1      -3.169  13.090  20.360  0.00  0.00    +0.000 NA
ATOM     25  N   UNL     1      -4.222  12.432  19.851  0.00  0.00    +0.000 N 
ATOM     26  C   UNL     1      -5.503  12.532  20.515  0.00  0.00    +0.000 C 
ENDBRANCH  19  22
ENDBRANCH   1  19
TORSDOF 3
ENDMDL
MODEL 2
REMARK VINA RESULT:      -7.5      0.696      1.281
REMARK  Name = 
REMARK  5 active torsions:
REMARK  status: ('A' for Active; 'I' for Inactive)
REMARK    1  A    between atoms: C_1  and  C_2
REMARK    2  A    between atoms: C_3  and  C_4
REMARK    3  A    between atoms: C_4  and  N_5
REMARK    4  A    between atoms: N_12  and  C_13
REMARK    5  A    between atoms: N_25  and  C_26
REMARK                            x       y       z     vdW  Elec       q    Type
REMARK                         _______ _______ _______ _____ _____    ______ ____
ROOT
ATOM      1  N   UNL     1      -0.505  10.268  18.329  0.00  0.00    +0.000 NA
ATOM      2  C   UNL     1      -1.001  10.046  19.695  0.00  0.00    +0.000 C 
ATOM      3  C   UNL     1       0.088   9.988  20.776  0.00  0.00    +0.000 C 
ATOM      4  C   UNL     1       1.043  11.197  20.746  0.00  0.00    +0.000 C 
ATOM      5  C   UNL     1       1.260  11.720  19.337  0.00  0.00    +0.000 C 
ATOM      6  C   UNL     1       0.916  10.651  18.293  0.00  0.00    +0.000 C 
ATOM      7  C   UNL     1       1.858   9.410  18.478  0.00  0.00    +0.000 C 
ATOM      8  N   UNL     1       1.490   8.319  19.404  0.00  0.00    +0.000 NA
ATOM      9  C   UNL     1       0.882   8.680  20.686  0.00  0.00    +0.000 C 
ENDROOT
BRANCH   8  10
ATOM     10  C   UNL     1       2.559   7.302  19.611  0.00  0.00    +0.000 C 
ATOM     11  C   UNL     1       2.850   6.429  18.355  0.00  0.00    +0.000 C 
ATOM     12  C   UNL     1       2.105   5.171  18.662  0.00  0.00    +0.000 A 
ATOM     13  C   UNL     1       1.679   4.205  17.770  0.00  0.00    +0.000 A 
ATOM     14  C   UNL     1       0.966   3.116  18.269  0.00  0.00    +0.000 A 
ATOM     15  C   UNL     1       0.713   2.997  19.648  0.00  0.00    +0.000 A 
ATOM     16  C   UNL     1       1.142   3.984  20.537  0.00  0.00    +0.000 A 
ATOM     17  C   UNL     1       1.813   5.079  20.025  0.00  0.00    +0.000 A 
ATOM     18  C   UNL     1       2.288   6.294  20.763  0.00  0.00    +0.000 C 
ENDBRANCH   8  10
BRANCH   1  19
ATOM     19  C   UNL     1      -1.376  11.157  17.547  0.00  0.00    +0.000 C 
BRANCH  19  22
ATOM     20  C   UNL     1      -2.801  12.965  20.046  0.00  0.00    +0.000 C 
ATOM     21  C   UNL     1      -3.361  11.961  19.097  0.00  0.00    +0.000 A 
ATOM     22  C   UNL     1      -2.778  11.203  18.086  0.00  0.00    +0.000 A 
ATOM     23  C   UNL     1      -3.839  10.371  17.646  0.00  0.00    +0.000 A 
ATOM     24  N   UNL     1      -4.998  10.637  18.247  0.00  0.00    +0.000 NA
ATOM     25  N   UNL     1      -4.693  11.642  19.082  0.00  0.00    +0.000 N 
ATOM     26  C   UNL     1      -5.758  12.319  19.788  0.00  0.00    +0.000 C 
ENDBRANCH  19  22
ENDBRANCH   1  19
TORSDOF 3
ENDMDL
MODEL 3
REMARK VINA RESULT:      -7.4      3.322      6.757
REMARK  Name = 
REMARK  5 active torsions:
REMARK  status: ('A' for Active; 'I' for Inactive)
REMARK    1  A    between atoms: C_1  and  C_2
REMARK    2  A    between atoms: C_3  and  C_4
REMARK    3  A    between atoms: C_4  and  N_5
REMARK    4  A    between atoms: N_12  and  C_13
REMARK    5  A    between atoms: N_25  and  C_26
REMARK                            x       y       z     vdW  Elec       q    Type
REMARK                         _______ _______ _______ _____ _____    ______ ____
ROOT
ATOM      1  N   UNL     1       2.060   5.249  19.610  0.00  0.00    +0.000 NA
ATOM      2  C   UNL     1       1.428   4.424  18.572  0.00  0.00    +0.000 C 
ATOM      3  C   UNL     1       2.249   3.205  18.127  0.00  0.00    +0.000 C 
ATOM      4  C   UNL     1       2.713   2.321  19.300  0.00  0.00    +0.000 C 
ATOM      5  C   UNL     1       2.992   3.132  20.553  0.00  0.00    +0.000 C 
ATOM      6  C   UNL     1       3.240   4.606  20.211  0.00  0.00    +0.000 C 
ATOM      7  C   UNL     1       4.503   4.729  19.287  0.00  0.00    +0.000 C 
ATOM      8  N   UNL     1       4.371   4.631  17.818  0.00  0.00    +0.000 NA
ATOM      9  C   UNL     1       3.449   3.633  17.275  0.00  0.00    +0.000 C 
ENDROOT
BRANCH   8  10
ATOM     10  C   UNL     1       5.668   4.585  17.087  0.00  0.00    +0.000 C 
ATOM     11  C   UNL     1       6.910   4.436  18.014  0.00  0.00    +0.000 C 
ATOM     12  C   UNL     1       7.422   5.838  18.086  0.00  0.00    +0.000 A 
ATOM     13  C   UNL     1       8.250   6.384  19.050  0.00  0.00    +0.000 A 
ATOM     14  C   UNL     1       8.583   7.733  18.944  0.00  0.00    +0.000 A 
ATOM     15  C   UNL     1       8.109   8.506  17.868  0.00  0.00    +0.000 A 
ATOM     16  C   UNL     1       7.267   7.943  16.906  0.00  0.00    +0.000 A 
ATOM     17  C   UNL     1       6.911   6.615  17.044  0.00  0.00    +0.000 A 
ATOM     18  C   UNL     1       5.961   5.825  16.196  0.00  0.00    +0.000 C 
ENDBRANCH   8  10
BRANCH   1  19
ATOM     19  C   UNL     1       1.096   5.753  20.599  0.00  0.00    +0.000 C 
BRANCH  19  22
ATOM     20  C   UNL     1       2.216   8.122  18.436  0.00  0.00    +0.000 C 
ATOM     21  C   UNL     1       1.482   8.220  19.730  0.00  0.00    +0.000 A 
ATOM     22  C   UNL     1       1.039   7.254  20.629  0.00  0.00    +0.000 A 
ATOM     23  C   UNL     1       0.515   8.021  21.702  0.00  0.00    +0.000 A 
ATOM     24  N   UNL     1       0.536   9.332  21.469  0.00  0.00    +0.000 NA
ATOM     25  N   UNL     1       1.076   9.423  20.243  0.00  0.00    +0.000 N 
ATOM     26  C   UNL     1       1.098  10.706  19.576  0.00  0.00    +0.000 C 
ENDBRANCH  19  22
ENDBRANCH   1  19
TORSDOF 3
ENDMDL
MODEL 4
REMARK VINA RESULT:      -7.2      1.546      2.391
REMARK  Name = 
REMARK  5 active torsions:
REMARK  status: ('A' for Active; 'I' for Inactive)
REMARK    1  A    between atoms: C_1  and  C_2
REMARK    2  A    between atoms: C_3  and  C_4
REMARK    3  A    between atoms: C_4  and  N_5
REMARK    4  A    between atoms: N_12  and  C_13
REMARK    5  A    between atoms: N_25  and  C_26
REMARK                            x       y       z     vdW  Elec       q    Type
REMARK                         _______ _______ _______ _____ _____    ______ ____
ROOT
ATOM      1  N   UNL     1      -0.915  10.183  19.166  0.00  0.00    +0.000 NA
ATOM      2  C   UNL     1      -0.974  10.035  20.627  0.00  0.00    +0.000 C 
ATOM      3  C   UNL     1       0.388  10.075  21.335  0.00  0.00    +0.000 C 
ATOM      4  C   UNL     1       1.235  11.305  20.959  0.00  0.00    +0.000 C 
ATOM      5  C   UNL     1       1.001  11.745  19.524  0.00  0.00    +0.000 C 
ATOM      6  C   UNL     1       0.413  10.602  18.688  0.00  0.00    +0.000 C 
ATOM      7  C   UNL     1       1.423   9.402  18.648  0.00  0.00    +0.000 C 
ATOM      8  N   UNL     1       1.395   8.362  19.698  0.00  0.00    +0.000 NA
ATOM      9  C   UNL     1       1.177   8.787  21.081  0.00  0.00    +0.000 C 
ENDROOT
BRANCH   8  10
ATOM     10  C   UNL     1       2.522   7.390  19.629  0.00  0.00    +0.000 C 
ATOM     11  C   UNL     1       2.610   6.620  18.279  0.00  0.00    +0.000 C 
ATOM     12  C   UNL     1       1.984   5.308  18.620  0.00  0.00    +0.000 A 
ATOM     13  C   UNL     1       1.438   4.382  17.749  0.00  0.00    +0.000 A 
ATOM     14  C   UNL     1       0.872   3.227  18.286  0.00  0.00    +0.000 A 
ATOM     15  C   UNL     1       0.883   3.003  19.675  0.00  0.00    +0.000 A 
ATOM     16  C   UNL     1       1.430   3.949  20.544  0.00  0.00    +0.000 A 
ATOM     17  C   UNL     1       1.952   5.108  20.003  0.00  0.00    +0.000 A 
ATOM     18  C   UNL     1       2.508   6.294  20.732  0.00  0.00    +0.000 C 
ENDBRANCH   8  10
BRANCH   1  19
ATOM     19  C   UNL     1      -2.017  10.996  18.633  0.00  0.00    +0.000 C 
BRANCH  19  22
ATOM     20  C   UNL     1      -4.754  11.741  16.762  0.00  0.00    +0.000 C 
ATOM     21  C   UNL     1      -3.586  10.849  16.510  0.00  0.00    +0.000 A 
ATOM     22  C   UNL     1      -2.474  10.526  17.281  0.00  0.00    +0.000 A 
ATOM     23  C   UNL     1      -1.810   9.542  16.503  0.00  0.00    +0.000 A 
ATOM     24  N   UNL     1      -2.387   9.332  15.320  0.00  0.00    +0.000 NA
ATOM     25  N   UNL     1      -3.429  10.177  15.327  0.00  0.00    +0.000 N 
ATOM     26  C   UNL     1      -4.199  10.355  14.116  0.00  0.00    +0.000 C 
ENDBRANCH  19  22
ENDBRANCH   1  19
TORSDOF 3
ENDMDL
MODEL 5
REMARK VINA RESULT:      -6.8      5.728      7.970
REMARK  Name = 
REMARK  5 active torsions:
REMARK  status: ('A' for Active; 'I' for Inactive)
REMARK    1  A    between atoms: C_1  and  C_2
REMARK    2  A    between atoms: C_3  and  C_4
REMARK    3  A    between atoms: C_4  and  N_5
REMARK    4  A    between atoms: N_12  and  C_13
REMARK    5  A    between atoms: N_25  and  C_26
REMARK                            x       y       z     vdW  Elec       q    Type
REMARK                         _______ _______ _______ _____ _____    ______ ____
ROOT
ATOM      1  N   UNL     1       3.328  14.133  18.748  0.00  0.00    +0.000 NA
ATOM      2  C   UNL     1       3.367  14.585  20.146  0.00  0.00    +0.000 C 
ATOM      3  C   UNL     1       4.273  15.798  20.407  0.00  0.00    +0.000 C 
ATOM      4  C   UNL     1       3.986  16.987  19.471  0.00  0.00    +0.000 C 
ATOM      5  C   UNL     1       3.533  16.534  18.093  0.00  0.00    +0.000 C 
ATOM      6  C   UNL     1       3.959  15.087  17.821  0.00  0.00    +0.000 C 
ATOM      7  C   UNL     1       5.524  14.981  17.854  0.00  0.00    +0.000 C 
ATOM      8  N   UNL     1       6.233  14.726  19.126  0.00  0.00    +0.000 NA
ATOM      9  C   UNL     1       5.752  15.405  20.330  0.00  0.00    +0.000 C 
ENDROOT
BRANCH   8  10
ATOM     10  C   UNL     1       7.716  14.831  19.034  0.00  0.00    +0.000 C 
ATOM     11  C   UNL     1       8.342  13.960  17.905  0.00  0.00    +0.000 C 
ATOM     12  C   UNL     1       8.841  12.772  18.660  0.00  0.00    +0.000 A 
ATOM     13  C   UNL     1       9.130  11.516  18.160  0.00  0.00    +0.000 A 
ATOM     14  C   UNL     1       9.557  10.533  19.052  0.00  0.00    +0.000 A 
ATOM     15  C   UNL     1       9.713  10.827  20.419  0.00  0.00    +0.000 A 
ATOM     16  C   UNL     1       9.410  12.097  20.913  0.00  0.00    +0.000 A 
ATOM     17  C   UNL     1       8.949  13.050  20.025  0.00  0.00    +0.000 A 
ATOM     18  C   UNL     1       8.481  14.442  20.331  0.00  0.00    +0.000 C 
ENDBRANCH   8  10
BRANCH   1  19
ATOM     19  C   UNL     1       1.986  13.703  18.329  0.00  0.00    +0.000 C 
BRANCH  19  22
ATOM     20  C   UNL     1       0.401  12.510  21.088  0.00  0.00    +0.000 C 
ATOM     21  C   UNL     1       0.997  11.825  19.906  0.00  0.00    +0.000 A 
ATOM     22  C   UNL     1       1.665  12.307  18.784  0.00  0.00    +0.000 A 
ATOM     23  C   UNL     1       2.065  11.126  18.107  0.00  0.00    +0.000 A 
ATOM     24  N   UNL     1       1.617  10.013  18.686  0.00  0.00    +0.000 NA
ATOM     25  N   UNL     1       0.926  10.467  19.743  0.00  0.00    +0.000 N 
ATOM     26  C   UNL     1       0.139   9.537  20.522  0.00  0.00    +0.000 C 
ENDBRANCH  19  22
ENDBRANCH   1  19
TORSDOF 3
ENDMDL
MODEL 6
REMARK VINA RESULT:      -6.8      8.243     10.310
REMARK  Name = 
REMARK  5 active torsions:
REMARK  status: ('A' for Active; 'I' for Inactive)
REMARK    1  A    between atoms: C_1  and  C_2
REMARK    2  A    between atoms: C_3  and  C_4
REMARK    3  A    between atoms: C_4  and  N_5
REMARK    4  A    between atoms: N_12  and  C_13
REMARK    5  A    between atoms: N_25  and  C_26
REMARK                            x       y       z     vdW  Elec       q    Type
REMARK                         _______ _______ _______ _____ _____    ______ ____
ROOT
ATOM      1  N   UNL     1       6.630  14.353  21.920  0.00  0.00    +0.000 NA
ATOM      2  C   UNL     1       6.238  13.250  22.808  0.00  0.00    +0.000 C 
ATOM      3  C   UNL     1       7.406  12.530  23.498  0.00  0.00    +0.000 C 
ATOM      4  C   UNL     1       8.366  13.487  24.230  0.00  0.00    +0.000 C 
ATOM      5  C   UNL     1       8.478  14.831  23.531  0.00  0.00    +0.000 C 
ATOM      6  C   UNL     1       8.047  14.725  22.064  0.00  0.00    +0.000 C 
ATOM      7  C   UNL     1       8.990  13.726  21.306  0.00  0.00    +0.000 C 
ATOM      8  N   UNL     1       8.685  12.281  21.277  0.00  0.00    +0.000 NA
ATOM      9  C   UNL     1       8.179  11.659  22.502  0.00  0.00    +0.000 C 
ENDROOT
BRANCH   8  10
ATOM     10  C   UNL     1       9.758  11.438  20.678  0.00  0.00    +0.000 C 
ATOM     11  C   UNL     1      11.178  12.072  20.759  0.00  0.00    +0.000 C 
ATOM     12  C   UNL     1      11.356  12.628  19.384  0.00  0.00    +0.000 A 
ATOM     13  C   UNL     1      12.231  13.620  18.983  0.00  0.00    +0.000 A 
ATOM     14  C   UNL     1      12.212  14.014  17.646  0.00  0.00    +0.000 A 
ATOM     15  C   UNL     1      11.342  13.396  16.729  0.00  0.00    +0.000 A 
ATOM     16  C   UNL     1      10.457  12.400  17.149  0.00  0.00    +0.000 A 
ATOM     17  C   UNL     1      10.457  12.047  18.485  0.00  0.00    +0.000 A 
ATOM     18  C   UNL     1       9.548  11.079  19.180  0.00  0.00    +0.000 C 
ENDBRANCH   8  10
BRANCH   1  19
ATOM     19  C   UNL     1       5.709  15.497  21.997  0.00  0.00    +0.000 C 
BRANCH  19  22
ATOM     20  C   UNL     1       3.375  14.419  19.776  0.00  0.00    +0.000 C 
ATOM     21  C   UNL     1       4.331  15.561  19.741  0.00  0.00    +0.000 A 
ATOM     22  C   UNL     1       5.303  15.995  20.639  0.00  0.00    +0.000 A 
ATOM     23  C   UNL     1       5.929  17.067  19.952  0.00  0.00    +0.000 A 
ATOM     24  N   UNL     1       5.355  17.347  18.782  0.00  0.00    +0.000 NA
ATOM     25  N   UNL     1       4.354  16.456  18.704  0.00  0.00    +0.000 N 
ATOM     26  C   UNL     1       3.391  16.572  17.633  0.00  0.00    +0.000 C 
ENDBRANCH  19  22
ENDBRANCH   1  19
TORSDOF 3
ENDMDL
MODEL 7
REMARK VINA RESULT:      -6.8      3.151      6.315
REMARK  Name = 
REMARK  5 active torsions:
REMARK  status: ('A' for Active; 'I' for Inactive)
REMARK    1  A    between atoms: C_1  and  C_2
REMARK    2  A    between atoms: C_3  and  C_4
REMARK    3  A    between atoms: C_4  and  N_5
REMARK    4  A    between atoms: N_12  and  C_13
REMARK    5  A    between atoms: N_25  and  C_26
REMARK                            x       y       z     vdW  Elec       q    Type
REMARK                         _______ _______ _______ _____ _____    ______ ____
ROOT
ATOM      1  N   UNL     1       1.867   5.862  19.970  0.00  0.00    +0.000 NA
ATOM      2  C   UNL     1       1.095   5.084  18.990  0.00  0.00    +0.000 C 
ATOM      3  C   UNL     1       1.743   3.759  18.564  0.00  0.00    +0.000 C 
ATOM      4  C   UNL     1       2.146   2.866  19.753  0.00  0.00    +0.000 C 
ATOM      5  C   UNL     1       2.574   3.681  20.961  0.00  0.00    +0.000 C 
ATOM      6  C   UNL     1       2.985   5.100  20.551  0.00  0.00    +0.000 C 
ATOM      7  C   UNL     1       4.212   5.034  19.576  0.00  0.00    +0.000 C 
ATOM      8  N   UNL     1       4.007   4.901  18.118  0.00  0.00    +0.000 NA
ATOM      9  C   UNL     1       2.948   4.005  17.651  0.00  0.00    +0.000 C 
ENDROOT
BRANCH   8  10
ATOM     10  C   UNL     1       5.257   4.670  17.340  0.00  0.00    +0.000 C 
ATOM     11  C   UNL     1       6.519   4.452  18.225  0.00  0.00    +0.000 C 
ATOM     12  C   UNL     1       7.175   5.793  18.178  0.00  0.00    +0.000 A 
ATOM     13  C   UNL     1       8.099   6.311  19.067  0.00  0.00    +0.000 A 
ATOM     14  C   UNL     1       8.564   7.608  18.853  0.00  0.00    +0.000 A 
ATOM     15  C   UNL     1       8.121   8.354  17.745  0.00  0.00    +0.000 A 
ATOM     16  C   UNL     1       7.182   7.822  16.860  0.00  0.00    +0.000 A 
ATOM     17  C   UNL     1       6.698   6.551  17.105  0.00  0.00    +0.000 A 
ATOM     18  C   UNL     1       5.633   5.811  16.353  0.00  0.00    +0.000 C 
ENDBRANCH   8  10
BRANCH   1  19
ATOM     19  C   UNL     1       1.014   6.515  20.973  0.00  0.00    +0.000 C 
BRANCH  19  22
ATOM     20  C   UNL     1      -0.485   8.985  22.761  0.00  0.00    +0.000 C 
ATOM     21  C   UNL     1       0.295   9.006  21.491  0.00  0.00    +0.000 A 
ATOM     22  C   UNL     1       0.893   7.995  20.744  0.00  0.00    +0.000 A 
ATOM     23  C   UNL     1       1.374   8.676  19.596  0.00  0.00    +0.000 A 
ATOM     24  N   UNL     1       1.186   9.994  19.650  0.00  0.00    +0.000 NA
ATOM     25  N   UNL     1       0.580  10.174  20.834  0.00  0.00    +0.000 N 
ATOM     26  C   UNL     1       0.373  11.519  21.322  0.00  0.00    +0.000 C 
ENDBRANCH  19  22
ENDBRANCH   1  19
TORSDOF 3
ENDMDL
MODEL 8
REMARK VINA RESULT:      -6.8      5.665      7.902
REMARK  Name = 
REMARK  5 active torsions:
REMARK  status: ('A' for Active; 'I' for Inactive)
REMARK    1  A    between atoms: C_1  and  C_2
REMARK    2  A    between atoms: C_3  and  C_4
REMARK    3  A    between atoms: C_4  and  N_5
REMARK    4  A    between atoms: N_12  and  C_13
REMARK    5  A    between atoms: N_25  and  C_26
REMARK                            x       y       z     vdW  Elec       q    Type
REMARK                         _______ _______ _______ _____ _____    ______ ____
ROOT
ATOM      1  N   UNL     1       3.099  13.939  18.885  0.00  0.00    +0.000 NA
ATOM      2  C   UNL     1       3.373  14.281  20.288  0.00  0.00    +0.000 C 
ATOM      3  C   UNL     1       4.302  15.488  20.488  0.00  0.00    +0.000 C 
ATOM      4  C   UNL     1       3.849  16.740  19.714  0.00  0.00    +0.000 C 
ATOM      5  C   UNL     1       3.171  16.388  18.401  0.00  0.00    +0.000 C 
ATOM      6  C   UNL     1       3.555  14.976  17.945  0.00  0.00    +0.000 C 
ATOM      7  C   UNL     1       5.103  14.901  17.703  0.00  0.00    +0.000 C 
ATOM      8  N   UNL     1       6.021  14.561  18.810  0.00  0.00    +0.000 NA
ATOM      9  C   UNL     1       5.748  15.133  20.130  0.00  0.00    +0.000 C 
ENDROOT
BRANCH   8  10
ATOM     10  C   UNL     1       7.466  14.704  18.477  0.00  0.00    +0.000 C 
ATOM     11  C   UNL     1       8.005  13.599  17.522  0.00  0.00    +0.000 C 
ATOM     12  C   UNL     1       8.694  12.671  18.469  0.00  0.00    +0.000 A 
ATOM     13  C   UNL     1       9.015  11.342  18.262  0.00  0.00    +0.000 A 
ATOM     14  C   UNL     1       9.634  10.645  19.299  0.00  0.00    +0.000 A 
ATOM     15  C   UNL     1       9.944  11.290  20.510  0.00  0.00    +0.000 A 
ATOM     16  C   UNL     1       9.607  12.630  20.709  0.00  0.00    +0.000 A 
ATOM     17  C   UNL     1       8.958  13.299  19.689  0.00  0.00    +0.000 A 
ATOM     18  C   UNL     1       8.424  14.699  19.701  0.00  0.00    +0.000 C 
ENDBRANCH   8  10
BRANCH   1  19
ATOM     19  C   UNL     1       1.708  13.515  18.667  0.00  0.00    +0.000 C 
BRANCH  19  22
ATOM     20  C   UNL     1       1.655  10.149  18.209  0.00  0.00    +0.000 C 
ATOM     21  C   UNL     1       1.307  11.001  19.381  0.00  0.00    +0.000 A 
ATOM     22  C   UNL     1       1.308  12.381  19.567  0.00  0.00    +0.000 A 
ATOM     23  C   UNL     1       0.767  12.536  20.870  0.00  0.00    +0.000 A 
ATOM     24  N   UNL     1       0.536  11.377  21.484  0.00  0.00    +0.000 NA
ATOM     25  N   UNL     1       0.925  10.463  20.581  0.00  0.00    +0.000 N 
ATOM     26  C   UNL     1       0.982   9.071  20.968  0.00  0.00    +0.000 C 
ENDBRANCH  19  22
ENDBRANCH   1  19
TORSDOF 3
ENDMDL
MODEL 9
REMARK VINA RESULT:      -6.7      6.084      8.270
REMARK  Name = 
REMARK  5 active torsions:
REMARK  status: ('A' for Active; 'I' for Inactive)
REMARK    1  A    between atoms: C_1  and  C_2
REMARK    2  A    between atoms: C_3  and  C_4
REMARK    3  A    between atoms: C_4  and  N_5
REMARK    4  A    between atoms: N_12  and  C_13
REMARK    5  A    between atoms: N_25  and  C_26
REMARK                            x       y       z     vdW  Elec       q    Type
REMARK                         _______ _______ _______ _____ _____    ______ ____
ROOT
ATOM      1  N   UNL     1       3.637  14.471  19.815  0.00  0.00    +0.000 NA
ATOM      2  C   UNL     1       4.496  14.834  20.951  0.00  0.00    +0.000 C 
ATOM      3  C   UNL     1       5.606  15.843  20.623  0.00  0.00    +0.000 C 
ATOM      4  C   UNL     1       5.089  17.112  19.920  0.00  0.00    +0.000 C 
ATOM      5  C   UNL     1       3.899  16.824  19.021  0.00  0.00    +0.000 C 
ATOM      6  C   UNL     1       3.841  15.339  18.644  0.00  0.00    +0.000 C 
ATOM      7  C   UNL     1       5.133  14.945  17.846  0.00  0.00    +0.000 C 
ATOM      8  N   UNL     1       6.348  14.497  18.558  0.00  0.00    +0.000 NA
ATOM      9  C   UNL     1       6.716  15.189  19.794  0.00  0.00    +0.000 C 
ENDROOT
BRANCH   8  10
ATOM     10  C   UNL     1       7.545  14.331  17.686  0.00  0.00    +0.000 C 
ATOM     11  C   UNL     1       7.767  12.872  17.190  0.00  0.00    +0.000 C 
ATOM     12  C   UNL     1       8.830  12.380  18.116  0.00  0.00    +0.000 A 
ATOM     13  C   UNL     1       9.150  11.067  18.411  0.00  0.00    +0.000 A 
ATOM     14  C   UNL     1      10.165  10.829  19.336  0.00  0.00    +0.000 A 
ATOM     15  C   UNL     1      10.859  11.899  19.930  0.00  0.00    +0.000 A 
ATOM     16  C   UNL     1      10.521  13.220  19.629  0.00  0.00    +0.000 A 
ATOM     17  C   UNL     1       9.486  13.444  18.741  0.00  0.00    +0.000 A 
ATOM     18  C   UNL     1       8.891  14.759  18.335  0.00  0.00    +0.000 C 
ENDBRANCH   8  10
BRANCH   1  19
ATOM     19  C   UNL     1       2.225  14.318  20.198  0.00  0.00    +0.000 C 
BRANCH  19  22
ATOM     20  C   UNL     1      -0.081  12.294  21.658  0.00  0.00    +0.000 C 
ATOM     21  C   UNL     1       0.710  12.161  20.401  0.00  0.00    +0.000 A 
ATOM     22  C   UNL     1       1.670  12.977  19.809  0.00  0.00    +0.000 A 
ATOM     23  C   UNL     1       2.102  12.218  18.691  0.00  0.00    +0.000 A 
ATOM     24  N   UNL     1       1.422  11.083  18.534  0.00  0.00    +0.000 NA
ATOM     25  N   UNL     1       0.547  11.099  19.551  0.00  0.00    +0.000 N 
ATOM     26  C   UNL     1      -0.491  10.093  19.604  0.00  0.00    +0.000 C 
ENDBRANCH  19  22
ENDBRANCH   1  19
TORSDOF 3
ENDMDL
