MODEL 1
REMARK VINA RESULT:      -7.3      0.000      0.000
REMARK  Name = 
REMARK  10 active torsions:
REMARK  status: ('A' for Active; 'I' for Inactive)
REMARK    1  A    between atoms: C_1  and  C_2
REMARK    2  A    between atoms: C_2  and  C_3
REMARK    3  A    between atoms: C_2  and  C_4
REMARK    4  A    between atoms: C_4  and  N_5
REMARK    5  A    between atoms: N_8  and  C_9
REMARK    6  A    between atoms: C_9  and  C_10
REMARK    7  A    between atoms: C_16  and  N_17
REMARK    8  A    between atoms: C_23  and  C_24
REMARK    9  A    between atoms: C_24  and  C_25
REMARK   10  A    between atoms: C_25  and  O_26
REMARK                            x       y       z     vdW  Elec       q    Type
REMARK                         _______ _______ _______ _____ _____    ______ ____
ROOT
ATOM      1  N   UNL     1       6.490   5.880  15.554  0.00  0.00    +0.000 NA
ATOM      2  C   UNL     1       5.067   5.632  15.878  0.00  0.00    +0.000 C 
ATOM      3  C   UNL     1       4.809   4.464  16.865  0.00  0.00    +0.000 C 
ATOM      4  N   UNL     1       5.597   4.506  18.122  0.00  0.00    +0.000 NA
ATOM      5  C   UNL     1       6.995   4.876  17.812  0.00  0.00    +0.000 C 
ATOM      6  C   UNL     1       7.250   6.049  16.822  0.00  0.00    +0.000 C 
ENDROOT
BRANCH   1   7
ATOM      7  C   UNL     1       7.084   4.782  14.751  0.00  0.00    +0.000 C 
BRANCH   7   9
ATOM      8  C   UNL     1       7.956   5.257  12.417  0.00  0.00    +0.000 C 
ATOM      9  C   UNL     1       6.750   4.819  13.245  0.00  0.00    +0.000 C 
ATOM     10  C   UNL     1       6.261   3.440  12.791  0.00  0.00    +0.000 C 
ENDBRANCH   7   9
ENDBRANCH   1   7
BRANCH   4  11
ATOM     11  C   UNL     1       4.892   5.332  19.130  0.00  0.00    +0.000 C 
BRANCH  11  12
ATOM     12  C   UNL     1       3.639   4.746  19.774  0.00  0.00    +0.000 A 
ATOM     13  C   UNL     1       3.662   3.434  20.294  0.00  0.00    +0.000 A 
ATOM     14  C   UNL     1       2.594   2.931  21.026  0.00  0.00    +0.000 A 
ATOM     15  F   UNL     1       2.692   1.719  21.588  0.00  0.00    +0.000 F 
ATOM     16  C   UNL     1       1.440   3.672  21.202  0.00  0.00    +0.000 A 
ATOM     17  C   UNL     1       1.347   4.939  20.626  0.00  0.00    +0.000 A 
ATOM     18  C   UNL     1       2.431   5.481  19.900  0.00  0.00    +0.000 A 
BRANCH  18  19
ATOM     19  N   UNL     1       2.234   6.743  19.269  0.00  0.00    +0.000 N 
ATOM     20  C   UNL     1       2.470   7.063  17.945  0.00  0.00    +0.000 A 
ATOM     21  C   UNL     1       2.328   8.420  17.818  0.00  0.00    +0.000 A 
ATOM     22  C   UNL     1       1.979   8.856  19.103  0.00  0.00    +0.000 A 
ATOM     23  N   UNL     1       1.867   7.850  19.970  0.00  0.00    +0.000 NA
ENDBRANCH  18  19
ENDBRANCH  11  12
ENDBRANCH   4  11
BRANCH   6  24
ATOM     24  C   UNL     1       6.994   7.412  17.497  0.00  0.00    +0.000 C 
BRANCH  24  25
ATOM     25  C   UNL     1       8.217   8.006  18.176  0.00  0.00    +0.000 C 
BRANCH  25  26
ATOM     26  O   UNL     1       8.148   9.430  18.085  0.00  0.00    +0.000 OA
ATOM     27  H   UNL     1       7.359   9.709  18.578  0.00  0.00    +0.000 HD
ENDBRANCH  25  26
ENDBRANCH  24  25
ENDBRANCH   6  24
TORSDOF 8
ENDMDL
MODEL 2
REMARK VINA RESULT:      -6.9      2.912      6.873
REMARK  Name = 
REMARK  10 active torsions:
REMARK  status: ('A' for Active; 'I' for Inactive)
REMARK    1  A    between atoms: C_1  and  C_2
REMARK    2  A    between atoms: C_2  and  C_3
REMARK    3  A    between atoms: C_2  and  C_4
REMARK    4  A    between atoms: C_4  and  N_5
REMARK    5  A    between atoms: N_8  and  C_9
REMARK    6  A    between atoms: C_9  and  C_10
REMARK    7  A    between atoms: C_16  and  N_17
REMARK    8  A    between atoms: C_23  and  C_24
REMARK    9  A    between atoms: C_24  and  C_25
REMARK   10  A    between atoms: C_25  and  O_26
REMARK                            x       y       z     vdW  Elec       q    Type
REMARK                         _______ _______ _______ _____ _____    ______ ____
ROOT
ATOM      1  N   UNL     1       3.659   4.001  20.003  0.00  0.00    +0.000 NA
ATOM      2  C   UNL     1       4.866   3.733  19.187  0.00  0.00    +0.000 C 
ATOM      3  C   UNL     1       4.590   3.263  17.735  0.00  0.00    +0.000 C 
ATOM      4  N   UNL     1       3.651   4.111  16.958  0.00  0.00    +0.000 NA
ATOM      5  C   UNL     1       2.503   4.481  17.814  0.00  0.00    +0.000 C 
ATOM      6  C   UNL     1       2.784   4.954  19.269  0.00  0.00    +0.000 C 
ENDROOT
BRANCH   1   7
ATOM      7  C   UNL     1       2.906   2.761  20.317  0.00  0.00    +0.000 C 
BRANCH   7   9
ATOM      8  C   UNL     1       0.501   2.278  19.673  0.00  0.00    +0.000 C 
ATOM      9  C   UNL     1       1.421   2.971  20.676  0.00  0.00    +0.000 C 
ATOM     10  C   UNL     1       1.155   2.455  22.093  0.00  0.00    +0.000 C 
ENDBRANCH   7   9
ENDBRANCH   1   7
BRANCH   4  11
ATOM     11  C   UNL     1       4.392   5.218  16.312  0.00  0.00    +0.000 C 
BRANCH  11  12
ATOM     12  C   UNL     1       5.460   4.852  15.285  0.00  0.00    +0.000 A 
ATOM     13  C   UNL     1       5.107   4.115  14.134  0.00  0.00    +0.000 A 
ATOM     14  C   UNL     1       6.017   3.904  13.107  0.00  0.00    +0.000 A 
ATOM     15  F   UNL     1       5.618   3.286  11.987  0.00  0.00    +0.000 F 
ATOM     16  C   UNL     1       7.325   4.343  13.214  0.00  0.00    +0.000 A 
ATOM     17  C   UNL     1       7.733   4.997  14.376  0.00  0.00    +0.000 A 
ATOM     18  C   UNL     1       6.816   5.245  15.422  0.00  0.00    +0.000 A 
BRANCH  18  19
ATOM     19  N   UNL     1       7.324   5.842  16.613  0.00  0.00    +0.000 N 
ATOM     20  C   UNL     1       7.577   5.217  17.820  0.00  0.00    +0.000 A 
ATOM     21  C   UNL     1       7.871   6.194  18.735  0.00  0.00    +0.000 A 
ATOM     22  C   UNL     1       7.803   7.388  18.005  0.00  0.00    +0.000 A 
ATOM     23  N   UNL     1       7.528   7.183  16.716  0.00  0.00    +0.000 NA
ENDBRANCH  18  19
ENDBRANCH  11  12
ENDBRANCH   4  11
BRANCH   6  24
ATOM     24  C   UNL     1       3.322   6.400  19.290  0.00  0.00    +0.000 C 
BRANCH  24  25
ATOM     25  C   UNL     1       2.271   7.446  19.626  0.00  0.00    +0.000 C 
BRANCH  25  26
ATOM     26  O   UNL     1       1.854   7.259  20.980  0.00  0.00    +0.000 OA
ATOM     27  H   UNL     1       2.559   7.611  21.547  0.00  0.00    +0.000 HD
ENDBRANCH  25  26
ENDBRANCH  24  25
ENDBRANCH   6  24
TORSDOF 8
ENDMDL
MODEL 3
REMARK VINA RESULT:      -6.9      3.442      7.183
REMARK  Name = 
REMARK  10 active torsions:
REMARK  status: ('A' for Active; 'I' for Inactive)
REMARK    1  A    between atoms: C_1  and  C_2
REMARK    2  A    between atoms: C_2  and  C_3
REMARK    3  A    between atoms: C_2  and  C_4
REMARK    4  A    between atoms: C_4  and  N_5
REMARK    5  A    between atoms: N_8  and  C_9
REMARK    6  A    between atoms: C_9  and  C_10
REMARK    7  A    between atoms: C_16  and  N_17
REMARK    8  A    between atoms: C_23  and  C_24
REMARK    9  A    between atoms: C_24  and  C_25
REMARK   10  A    between atoms: C_25  and  O_26
REMARK                            x       y       z     vdW  Elec       q    Type
REMARK                         _______ _______ _______ _____ _____    ______ ____
ROOT
ATOM      1  N   UNL     1       2.375   2.804  19.074  0.00  0.00    +0.000 NA
ATOM      2  C   UNL     1       2.505   2.217  17.720  0.00  0.00    +0.000 C 
ATOM      3  C   UNL     1       2.892   3.219  16.601  0.00  0.00    +0.000 C 
ATOM      4  N   UNL     1       4.078   4.065  16.885  0.00  0.00    +0.000 NA
ATOM      5  C   UNL     1       4.011   4.552  18.280  0.00  0.00    +0.000 C 
ATOM      6  C   UNL     1       3.623   3.544  19.400  0.00  0.00    +0.000 C 
ENDROOT
BRANCH   1   7
ATOM      7  C   UNL     1       1.206   3.712  19.182  0.00  0.00    +0.000 C 
BRANCH   7   9
ATOM      8  C   UNL     1       1.332   3.177  21.658  0.00  0.00    +0.000 C 
ATOM      9  C   UNL     1       0.883   4.195  20.612  0.00  0.00    +0.000 C 
ATOM     10  C   UNL     1       1.552   5.550  20.862  0.00  0.00    +0.000 C 
ENDBRANCH   7   9
ENDBRANCH   1   7
BRANCH   4  11
ATOM     11  C   UNL     1       5.312   3.351  16.482  0.00  0.00    +0.000 C 
BRANCH  11  12
ATOM     12  C   UNL     1       6.067   3.873  15.263  0.00  0.00    +0.000 A 
ATOM     13  C   UNL     1       5.866   3.276  14.000  0.00  0.00    +0.000 A 
ATOM     14  C   UNL     1       6.412   3.826  12.848  0.00  0.00    +0.000 A 
ATOM     15  F   UNL     1       6.119   3.289  11.657  0.00  0.00    +0.000 F 
ATOM     16  C   UNL     1       7.238   4.934  12.911  0.00  0.00    +0.000 A 
ATOM     17  C   UNL     1       7.531   5.498  14.153  0.00  0.00    +0.000 A 
ATOM     18  C   UNL     1       6.965   4.970  15.335  0.00  0.00    +0.000 A 
BRANCH  18  19
ATOM     19  N   UNL     1       7.376   5.544  16.573  0.00  0.00    +0.000 N 
ATOM     20  C   UNL     1       7.604   4.884  17.766  0.00  0.00    +0.000 A 
ATOM     21  C   UNL     1       7.793   5.836  18.733  0.00  0.00    +0.000 A 
ATOM     22  C   UNL     1       7.692   7.054  18.049  0.00  0.00    +0.000 A 
ATOM     23  N   UNL     1       7.494   6.889  16.740  0.00  0.00    +0.000 NA
ENDBRANCH  18  19
ENDBRANCH  11  12
ENDBRANCH   4  11
BRANCH   6  24
ATOM     24  C   UNL     1       4.803   2.609  19.738  0.00  0.00    +0.000 C 
BRANCH  24  25
ATOM     25  C   UNL     1       4.493   1.589  20.821  0.00  0.00    +0.000 C 
BRANCH  25  26
ATOM     26  O   UNL     1       5.699   1.279  21.521  0.00  0.00    +0.000 OA
ATOM     27  H   UNL     1       5.917   2.051  22.069  0.00  0.00    +0.000 HD
ENDBRANCH  25  26
ENDBRANCH  24  25
ENDBRANCH   6  24
TORSDOF 8
ENDMDL
MODEL 4
REMARK VINA RESULT:      -6.8      0.698      1.167
REMARK  Name = 
REMARK  10 active torsions:
REMARK  status: ('A' for Active; 'I' for Inactive)
REMARK    1  A    between atoms: C_1  and  C_2
REMARK    2  A    between atoms: C_2  and  C_3
REMARK    3  A    between atoms: C_2  and  C_4
REMARK    4  A    between atoms: C_4  and  N_5
REMARK    5  A    between atoms: N_8  and  C_9
REMARK    6  A    between atoms: C_9  and  C_10
REMARK    7  A    between atoms: C_16  and  N_17
REMARK    8  A    between atoms: C_23  and  C_24
REMARK    9  A    between atoms: C_24  and  C_25
REMARK   10  A    between atoms: C_25  and  O_26
REMARK                            x       y       z     vdW  Elec       q    Type
REMARK                         _______ _______ _______ _____ _____    ______ ____
ROOT
ATOM      1  N   UNL     1       6.048   5.027  15.321  0.00  0.00    +0.000 NA
ATOM      2  C   UNL     1       4.703   4.760  15.881  0.00  0.00    +0.000 C 
ATOM      3  C   UNL     1       4.674   3.797  17.098  0.00  0.00    +0.000 C 
ATOM      4  N   UNL     1       5.606   4.138  18.202  0.00  0.00    +0.000 NA
ATOM      5  C   UNL     1       6.916   4.525  17.636  0.00  0.00    +0.000 C 
ATOM      6  C   UNL     1       6.942   5.491  16.416  0.00  0.00    +0.000 C 
ENDROOT
BRANCH   1   7
ATOM      7  C   UNL     1       6.631   3.830  14.665  0.00  0.00    +0.000 C 
BRANCH   7   9
ATOM      8  C   UNL     1       5.348   3.821  12.477  0.00  0.00    +0.000 C 
ATOM      9  C   UNL     1       6.728   3.909  13.127  0.00  0.00    +0.000 C 
ATOM     10  C   UNL     1       7.429   5.208  12.721  0.00  0.00    +0.000 C 
ENDBRANCH   7   9
ENDBRANCH   1   7
BRANCH   4  11
ATOM     11  C   UNL     1       4.961   5.101  19.123  0.00  0.00    +0.000 C 
BRANCH  11  12
ATOM     12  C   UNL     1       3.643   4.688  19.772  0.00  0.00    +0.000 A 
ATOM     13  C   UNL     1       3.502   3.395  20.320  0.00  0.00    +0.000 A 
ATOM     14  C   UNL     1       2.378   3.043  21.055  0.00  0.00    +0.000 A 
ATOM     15  F   UNL     1       2.324   1.841  21.643  0.00  0.00    +0.000 F 
ATOM     16  C   UNL     1       1.323   3.925  21.208  0.00  0.00    +0.000 A 
ATOM     17  C   UNL     1       1.389   5.181  20.605  0.00  0.00    +0.000 A 
ATOM     18  C   UNL     1       2.535   5.569  19.875  0.00  0.00    +0.000 A 
BRANCH  18  19
ATOM     19  N   UNL     1       2.497   6.832  19.216  0.00  0.00    +0.000 N 
ATOM     20  C   UNL     1       1.911   7.998  19.674  0.00  0.00    +0.000 A 
ATOM     21  C   UNL     1       1.944   8.905  18.648  0.00  0.00    +0.000 A 
ATOM     22  C   UNL     1       2.591   8.230  17.605  0.00  0.00    +0.000 A 
ATOM     23  N   UNL     1       2.975   7.001  17.954  0.00  0.00    +0.000 NA
ENDBRANCH  18  19
ENDBRANCH  11  12
ENDBRANCH   4  11
BRANCH   6  24
ATOM     24  C   UNL     1       6.652   6.943  16.851  0.00  0.00    +0.000 C 
BRANCH  24  25
ATOM     25  C   UNL     1       7.705   7.534  17.774  0.00  0.00    +0.000 C 
BRANCH  25  26
ATOM     26  O   UNL     1       7.694   8.955  17.634  0.00  0.00    +0.000 OA
ATOM     27  H   UNL     1       7.258   9.316  18.424  0.00  0.00    +0.000 HD
ENDBRANCH  25  26
ENDBRANCH  24  25
ENDBRANCH   6  24
TORSDOF 8
ENDMDL
MODEL 5
REMARK VINA RESULT:      -6.8      3.048      7.138
REMARK  Name = 
REMARK  10 active torsions:
REMARK  status: ('A' for Active; 'I' for Inactive)
REMARK    1  A    between atoms: C_1  and  C_2
REMARK    2  A    between atoms: C_2  and  C_3
REMARK    3  A    between atoms: C_2  and  C_4
REMARK    4  A    between atoms: C_4  and  N_5
REMARK    5  A    between atoms: N_8  and  C_9
REMARK    6  A    between atoms: C_9  and  C_10
REMARK    7  A    between atoms: C_16  and  N_17
REMARK    8  A    between atoms: C_23  and  C_24
REMARK    9  A    between atoms: C_24  and  C_25
REMARK   10  A    between atoms: C_25  and  O_26
REMARK                            x       y       z     vdW  Elec       q    Type
REMARK                         _______ _______ _______ _____ _____    ______ ____
ROOT
ATOM      1  N   UNL     1       1.835   6.273  19.388  0.00  0.00    +0.000 NA
ATOM      2  C   UNL     1       2.174   6.522  17.968  0.00  0.00    +0.000 C 
ATOM      3  C   UNL     1       3.691   6.548  17.647  0.00  0.00    +0.000 C 
ATOM      4  N   UNL     1       4.467   5.382  18.139  0.00  0.00    +0.000 NA
ATOM      5  C   UNL     1       4.041   5.056  19.517  0.00  0.00    +0.000 C 
ATOM      6  C   UNL     1       2.518   5.030  19.836  0.00  0.00    +0.000 C 
ENDROOT
BRANCH   1   7
ATOM      7  C   UNL     1       2.224   7.407  20.265  0.00  0.00    +0.000 C 
BRANCH   7   9
ATOM      8  C   UNL     1       1.271   8.912  22.070  0.00  0.00    +0.000 C 
ATOM      9  C   UNL     1       1.069   8.349  20.665  0.00  0.00    +0.000 C 
ATOM     10  C   UNL     1       0.953   9.484  19.644  0.00  0.00    +0.000 C 
ENDBRANCH   7   9
ENDBRANCH   1   7
BRANCH   4  11
ATOM     11  C   UNL     1       4.415   4.287  17.143  0.00  0.00    +0.000 C 
BRANCH  11  12
ATOM     12  C   UNL     1       5.394   4.345  15.974  0.00  0.00    +0.000 A 
ATOM     13  C   UNL     1       5.057   3.746  14.742  0.00  0.00    +0.000 A 
ATOM     14  C   UNL     1       5.851   3.917  13.616  0.00  0.00    +0.000 A 
ATOM     15  F   UNL     1       5.448   3.417  12.441  0.00  0.00    +0.000 F 
ATOM     16  C   UNL     1       7.043   4.617  13.686  0.00  0.00    +0.000 A 
ATOM     17  C   UNL     1       7.453   5.147  14.909  0.00  0.00    +0.000 A 
ATOM     18  C   UNL     1       6.647   5.007  16.061  0.00  0.00    +0.000 A 
BRANCH  18  19
ATOM     19  N   UNL     1       7.169   5.500  17.292  0.00  0.00    +0.000 N 
ATOM     20  C   UNL     1       7.435   6.817  17.621  0.00  0.00    +0.000 A 
ATOM     21  C   UNL     1       8.099   6.814  18.819  0.00  0.00    +0.000 A 
ATOM     22  C   UNL     1       8.178   5.461  19.173  0.00  0.00    +0.000 A 
ATOM     23  N   UNL     1       7.574   4.667  18.288  0.00  0.00    +0.000 NA
ENDBRANCH  18  19
ENDBRANCH  11  12
ENDBRANCH   4  11
BRANCH   6  24
ATOM     24  C   UNL     1       1.856   3.751  19.282  0.00  0.00    +0.000 C 
BRANCH  24  25
ATOM     25  C   UNL     1       2.527   2.463  19.731  0.00  0.00    +0.000 C 
BRANCH  25  26
ATOM     26  O   UNL     1       2.472   1.518  18.661  0.00  0.00    +0.000 OA
ATOM     27  H   UNL     1       1.992   0.741  18.991  0.00  0.00    +0.000 HD
ENDBRANCH  25  26
ENDBRANCH  24  25
ENDBRANCH   6  24
TORSDOF 8
ENDMDL
MODEL 6
REMARK VINA RESULT:      -6.7      3.004      7.112
REMARK  Name = 
REMARK  10 active torsions:
REMARK  status: ('A' for Active; 'I' for Inactive)
REMARK    1  A    between atoms: C_1  and  C_2
REMARK    2  A    between atoms: C_2  and  C_3
REMARK    3  A    between atoms: C_2  and  C_4
REMARK    4  A    between atoms: C_4  and  N_5
REMARK    5  A    between atoms: N_8  and  C_9
REMARK    6  A    between atoms: C_9  and  C_10
REMARK    7  A    between atoms: C_16  and  N_17
REMARK    8  A    between atoms: C_23  and  C_24
REMARK    9  A    between atoms: C_24  and  C_25
REMARK   10  A    between atoms: C_25  and  O_26
REMARK                            x       y       z     vdW  Elec       q    Type
REMARK                         _______ _______ _______ _____ _____    ______ ____
ROOT
ATOM      1  N   UNL     1       2.074   5.822  19.708  0.00  0.00    +0.000 NA
ATOM      2  C   UNL     1       2.047   5.913  18.230  0.00  0.00    +0.000 C 
ATOM      3  C   UNL     1       3.401   6.281  17.567  0.00  0.00    +0.000 C 
ATOM      4  N   UNL     1       4.561   5.454  17.986  0.00  0.00    +0.000 NA
ATOM      5  C   UNL     1       4.519   5.259  19.452  0.00  0.00    +0.000 C 
ATOM      6  C   UNL     1       3.160   4.890  20.113  0.00  0.00    +0.000 C 
ENDROOT
BRANCH   1   7
ATOM      7  C   UNL     1       2.277   7.145  20.349  0.00  0.00    +0.000 C 
BRANCH   7   9
ATOM      8  C   UNL     1       0.759   8.705  21.650  0.00  0.00    +0.000 C 
ATOM      9  C   UNL     1       1.065   8.097  20.283  0.00  0.00    +0.000 C 
ATOM     10  C   UNL     1       1.330   9.199  19.253  0.00  0.00    +0.000 C 
ENDBRANCH   7   9
ENDBRANCH   1   7
BRANCH   4  11
ATOM     11  C   UNL     1       4.638   4.236  17.148  0.00  0.00    +0.000 C 
BRANCH  11  12
ATOM     12  C   UNL     1       5.490   4.298  15.884  0.00  0.00    +0.000 A 
ATOM     13  C   UNL     1       5.041   3.673  14.700  0.00  0.00    +0.000 A 
ATOM     14  C   UNL     1       5.711   3.846  13.496  0.00  0.00    +0.000 A 
ATOM     15  F   UNL     1       5.200   3.320  12.375  0.00  0.00    +0.000 F 
ATOM     16  C   UNL     1       6.887   4.572  13.434  0.00  0.00    +0.000 A 
ATOM     17  C   UNL     1       7.409   5.129  14.602  0.00  0.00    +0.000 A 
ATOM     18  C   UNL     1       6.729   4.988  15.832  0.00  0.00    +0.000 A 
BRANCH  18  19
ATOM     19  N   UNL     1       7.363   5.511  16.997  0.00  0.00    +0.000 N 
ATOM     20  C   UNL     1       7.777   4.806  18.112  0.00  0.00    +0.000 A 
ATOM     21  C   UNL     1       8.156   5.721  19.059  0.00  0.00    +0.000 A 
ATOM     22  C   UNL     1       7.971   6.963  18.439  0.00  0.00    +0.000 A 
ATOM     23  N   UNL     1       7.545   6.847  17.180  0.00  0.00    +0.000 NA
ENDBRANCH  18  19
ENDBRANCH  11  12
ENDBRANCH   4  11
BRANCH   6  24
ATOM     24  C   UNL     1       2.804   3.410  19.862  0.00  0.00    +0.000 C 
BRANCH  24  25
ATOM     25  C   UNL     1       1.694   2.881  20.756  0.00  0.00    +0.000 C 
BRANCH  25  26
ATOM     26  O   UNL     1       2.160   2.864  22.106  0.00  0.00    +0.000 OA
ATOM     27  H   UNL     1       1.428   2.538  22.656  0.00  0.00    +0.000 HD
ENDBRANCH  25  26
ENDBRANCH  24  25
ENDBRANCH   6  24
TORSDOF 8
ENDMDL
MODEL 7
REMARK VINA RESULT:      -6.6      2.706      6.781
REMARK  Name = 
REMARK  10 active torsions:
REMARK  status: ('A' for Active; 'I' for Inactive)
REMARK    1  A    between atoms: C_1  and  C_2
REMARK    2  A    between atoms: C_2  and  C_3
REMARK    3  A    between atoms: C_2  and  C_4
REMARK    4  A    between atoms: C_4  and  N_5
REMARK    5  A    between atoms: N_8  and  C_9
REMARK    6  A    between atoms: C_9  and  C_10
REMARK    7  A    between atoms: C_16  and  N_17
REMARK    8  A    between atoms: C_23  and  C_24
REMARK    9  A    between atoms: C_24  and  C_25
REMARK   10  A    between atoms: C_25  and  O_26
REMARK                            x       y       z     vdW  Elec       q    Type
REMARK                         _______ _______ _______ _____ _____    ______ ____
ROOT
ATOM      1  N   UNL     1       2.171   5.651  20.178  0.00  0.00    +0.000 NA
ATOM      2  C   UNL     1       3.546   5.136  19.982  0.00  0.00    +0.000 C 
ATOM      3  C   UNL     1       3.759   4.301  18.692  0.00  0.00    +0.000 C 
ATOM      4  N   UNL     1       3.289   4.936  17.436  0.00  0.00    +0.000 NA
ATOM      5  C   UNL     1       1.967   5.559  17.666  0.00  0.00    +0.000 C 
ATOM      6  C   UNL     1       1.757   6.397  18.960  0.00  0.00    +0.000 C 
ENDROOT
BRANCH   1   7
ATOM      7  C   UNL     1       1.199   4.564  20.460  0.00  0.00    +0.000 C 
BRANCH   7   9
ATOM      8  C   UNL     1       1.700   2.528  21.888  0.00  0.00    +0.000 C 
ATOM      9  C   UNL     1       1.800   3.143  20.493  0.00  0.00    +0.000 C 
ATOM     10  C   UNL     1       1.088   2.258  19.466  0.00  0.00    +0.000 C 
ENDBRANCH   7   9
ENDBRANCH   1   7
BRANCH   4  11
ATOM     11  C   UNL     1       4.354   5.806  16.884  0.00  0.00    +0.000 C 
BRANCH  11  12
ATOM     12  C   UNL     1       5.289   5.205  15.839  0.00  0.00    +0.000 A 
ATOM     13  C   UNL     1       4.756   4.506  14.735  0.00  0.00    +0.000 A 
ATOM     14  C   UNL     1       5.567   4.087  13.688  0.00  0.00    +0.000 A 
ATOM     15  F   UNL     1       5.012   3.516  12.611  0.00  0.00    +0.000 F 
ATOM     16  C   UNL     1       6.937   4.272  13.732  0.00  0.00    +0.000 A 
ATOM     17  C   UNL     1       7.510   4.879  14.849  0.00  0.00    +0.000 A 
ATOM     18  C   UNL     1       6.701   5.337  15.914  0.00  0.00    +0.000 A 
BRANCH  18  19
ATOM     19  N   UNL     1       7.361   5.869  17.058  0.00  0.00    +0.000 N 
ATOM     20  C   UNL     1       7.626   5.220  18.250  0.00  0.00    +0.000 A 
ATOM     21  C   UNL     1       8.099   6.155  19.132  0.00  0.00    +0.000 A 
ATOM     22  C   UNL     1       8.119   7.348  18.398  0.00  0.00    +0.000 A 
ATOM     23  N   UNL     1       7.729   7.177  17.135  0.00  0.00    +0.000 NA
ENDBRANCH  18  19
ENDBRANCH  11  12
ENDBRANCH   4  11
BRANCH   6  24
ATOM     24  C   UNL     1       2.435   7.778  18.844  0.00  0.00    +0.000 C 
BRANCH  24  25
ATOM     25  C   UNL     1       1.633   8.796  18.050  0.00  0.00    +0.000 C 
BRANCH  25  26
ATOM     26  O   UNL     1       0.834   9.559  18.955  0.00  0.00    +0.000 OA
ATOM     27  H   UNL     1      -0.051   9.159  18.961  0.00  0.00    +0.000 HD
ENDBRANCH  25  26
ENDBRANCH  24  25
ENDBRANCH   6  24
TORSDOF 8
ENDMDL
MODEL 8
REMARK VINA RESULT:      -6.4      1.129      1.156
REMARK  Name = 
REMARK  10 active torsions:
REMARK  status: ('A' for Active; 'I' for Inactive)
REMARK    1  A    between atoms: C_1  and  C_2
REMARK    2  A    between atoms: C_2  and  C_3
REMARK    3  A    between atoms: C_2  and  C_4
REMARK    4  A    between atoms: C_4  and  N_5
REMARK    5  A    between atoms: N_8  and  C_9
REMARK    6  A    between atoms: C_9  and  C_10
REMARK    7  A    between atoms: C_16  and  N_17
REMARK    8  A    between atoms: C_23  and  C_24
REMARK    9  A    between atoms: C_24  and  C_25
REMARK   10  A    between atoms: C_25  and  O_26
REMARK                            x       y       z     vdW  Elec       q    Type
REMARK                         _______ _______ _______ _____ _____    ______ ____
ROOT
ATOM      1  N   UNL     1       7.173   5.624  15.746  0.00  0.00    +0.000 NA
ATOM      2  C   UNL     1       5.764   6.080  15.776  0.00  0.00    +0.000 C 
ATOM      3  C   UNL     1       4.742   5.032  16.288  0.00  0.00    +0.000 C 
ATOM      4  N   UNL     1       5.079   4.394  17.586  0.00  0.00    +0.000 NA
ATOM      5  C   UNL     1       6.517   4.050  17.604  0.00  0.00    +0.000 C 
ATOM      6  C   UNL     1       7.540   5.104  17.090  0.00  0.00    +0.000 C 
ENDROOT
BRANCH   1   7
ATOM      7  C   UNL     1       7.403   4.577  14.719  0.00  0.00    +0.000 C 
BRANCH   7   9
ATOM      8  C   UNL     1       7.848   5.457  12.382  0.00  0.00    +0.000 C 
ATOM      9  C   UNL     1       6.800   4.879  13.331  0.00  0.00    +0.000 C 
ATOM     10  C   UNL     1       6.191   3.603  12.744  0.00  0.00    +0.000 C 
ENDBRANCH   7   9
ENDBRANCH   1   7
BRANCH   4  11
ATOM     11  C   UNL     1       4.574   5.228  18.701  0.00  0.00    +0.000 C 
BRANCH  11  12
ATOM     12  C   UNL     1       3.399   4.691  19.512  0.00  0.00    +0.000 A 
ATOM     13  C   UNL     1       3.417   3.360  19.981  0.00  0.00    +0.000 A 
ATOM     14  C   UNL     1       2.444   2.890  20.853  0.00  0.00    +0.000 A 
ATOM     15  F   UNL     1       2.548   1.652  21.355  0.00  0.00    +0.000 F 
ATOM     16  C   UNL     1       1.379   3.690  21.228  0.00  0.00    +0.000 A 
ATOM     17  C   UNL     1       1.280   4.982  20.713  0.00  0.00    +0.000 A 
ATOM     18  C   UNL     1       2.274   5.489  19.846  0.00  0.00    +0.000 A 
BRANCH  18  19
ATOM     19  N   UNL     1       2.064   6.785  19.293  0.00  0.00    +0.000 N 
ATOM     20  C   UNL     1       2.235   7.172  17.976  0.00  0.00    +0.000 A 
ATOM     21  C   UNL     1       2.108   8.535  17.928  0.00  0.00    +0.000 A 
ATOM     22  C   UNL     1       1.835   8.908  19.250  0.00  0.00    +0.000 A 
ATOM     23  N   UNL     1       1.752   7.858  20.070  0.00  0.00    +0.000 NA
ENDBRANCH  18  19
ENDBRANCH  11  12
ENDBRANCH   4  11
BRANCH   6  24
ATOM     24  C   UNL     1       7.751   6.225  18.129  0.00  0.00    +0.000 C 
BRANCH  24  25
ATOM     25  C   UNL     1       8.489   5.778  19.380  0.00  0.00    +0.000 C 
BRANCH  25  26
ATOM     26  O   UNL     1       7.552   5.670  20.453  0.00  0.00    +0.000 OA
ATOM     27  H   UNL     1       7.731   6.404  21.064  0.00  0.00    +0.000 HD
ENDBRANCH  25  26
ENDBRANCH  24  25
ENDBRANCH   6  24
TORSDOF 8
ENDMDL
MODEL 9
REMARK VINA RESULT:      -6.3      3.280      7.110
REMARK  Name = 
REMARK  10 active torsions:
REMARK  status: ('A' for Active; 'I' for Inactive)
REMARK    1  A    between atoms: C_1  and  C_2
REMARK    2  A    between atoms: C_2  and  C_3
REMARK    3  A    between atoms: C_2  and  C_4
REMARK    4  A    between atoms: C_4  and  N_5
REMARK    5  A    between atoms: N_8  and  C_9
REMARK    6  A    between atoms: C_9  and  C_10
REMARK    7  A    between atoms: C_16  and  N_17
REMARK    8  A    between atoms: C_23  and  C_24
REMARK    9  A    between atoms: C_24  and  C_25
REMARK   10  A    between atoms: C_25  and  O_26
REMARK                            x       y       z     vdW  Elec       q    Type
REMARK                         _______ _______ _______ _____ _____    ______ ____
ROOT
ATOM      1  N   UNL     1       0.682  10.265  19.569  0.00  0.00    +0.000 NA
ATOM      2  C   UNL     1       1.415   9.328  20.451  0.00  0.00    +0.000 C 
ATOM      3  C   UNL     1       1.407   7.846  19.992  0.00  0.00    +0.000 C 
ATOM      4  N   UNL     1       1.815   7.614  18.583  0.00  0.00    +0.000 NA
ATOM      5  C   UNL     1       1.179   8.628  17.715  0.00  0.00    +0.000 C 
ATOM      6  C   UNL     1       1.188  10.114  18.179  0.00  0.00    +0.000 C 
ENDROOT
BRANCH   1   7
ATOM      7  C   UNL     1      -0.785  10.035  19.600  0.00  0.00    +0.000 C 
BRANCH   7   9
ATOM      8  C   UNL     1      -2.575   9.927  17.807  0.00  0.00    +0.000 C 
ATOM      9  C   UNL     1      -1.593  10.828  18.553  0.00  0.00    +0.000 C 
ATOM     10  C   UNL     1      -2.337  11.979  19.238  0.00  0.00    +0.000 C 
ENDBRANCH   7   9
ENDBRANCH   1   7
BRANCH   4  11
ATOM     11  C   UNL     1       3.288   7.489  18.501  0.00  0.00    +0.000 C 
BRANCH  11  12
ATOM     12  C   UNL     1       3.857   6.343  17.669  0.00  0.00    +0.000 A 
ATOM     13  C   UNL     1       4.609   6.622  16.508  0.00  0.00    +0.000 A 
ATOM     14  C   UNL     1       5.273   5.614  15.820  0.00  0.00    +0.000 A 
ATOM     15  F   UNL     1       6.057   5.929  14.781  0.00  0.00    +0.000 F 
ATOM     16  C   UNL     1       5.153   4.291  16.207  0.00  0.00    +0.000 A 
ATOM     17  C   UNL     1       4.345   3.968  17.297  0.00  0.00    +0.000 A 
ATOM     18  C   UNL     1       3.682   4.981  18.027  0.00  0.00    +0.000 A 
BRANCH  18  19
ATOM     19  N   UNL     1       2.808   4.570  19.075  0.00  0.00    +0.000 N 
ATOM     20  C   UNL     1       1.504   4.127  18.952  0.00  0.00    +0.000 A 
ATOM     21  C   UNL     1       0.984   4.025  20.215  0.00  0.00    +0.000 A 
ATOM     22  C   UNL     1       2.038   4.396  21.058  0.00  0.00    +0.000 A 
ATOM     23  N   UNL     1       3.156   4.674  20.386  0.00  0.00    +0.000 NA
ENDBRANCH  18  19
ENDBRANCH  11  12
ENDBRANCH   4  11
BRANCH   6  24
ATOM     24  C   UNL     1       2.580  10.750  17.976  0.00  0.00    +0.000 C 
BRANCH  24  25
ATOM     25  C   UNL     1       2.578  12.269  18.022  0.00  0.00    +0.000 C 
BRANCH  25  26
ATOM     26  O   UNL     1       1.224  12.726  18.044  0.00  0.00    +0.000 OA
ATOM     27  H   UNL     1       0.721  12.103  18.595  0.00  0.00    +0.000 HD
ENDBRANCH  25  26
ENDBRANCH  24  25
ENDBRANCH   6  24
TORSDOF 8
ENDMDL
