MODEL 1
REMARK VINA RESULT:      -6.9      0.000      0.000
REMARK  Name = 
REMARK  10 active torsions:
REMARK  status: ('A' for Active; 'I' for Inactive)
REMARK    1  A    between atoms: C_1  and  C_2
REMARK    2  A    between atoms: C_6  and  S_7
REMARK    3  A    between atoms: S_7  and  C_8
REMARK    4  A    between atoms: C_8  and  C_9
REMARK    5  A    between atoms: C_13  and  O_14
REMARK    6  A    between atoms: O_14  and  C_15
REMARK    7  A    between atoms: C_15  and  C_17
REMARK    8  A    between atoms: C_17  and  C_18
REMARK    9  A    between atoms: C_17  and  C_19
REMARK   10  A    between atoms: C_17  and  C_20
REMARK                            x       y       z     vdW  Elec       q    Type
REMARK                         _______ _______ _______ _____ _____    ______ ____
ROOT
ATOM      1  C   UNL     1       7.381   6.659  18.207  0.00  0.00    +0.000 A 
ATOM      2  C   UNL     1       6.874   6.611  16.963  0.00  0.00    +0.000 A 
ATOM      3  C   UNL     1       5.805   5.638  16.632  0.00  0.00    +0.000 A 
ATOM      4  O   UNL     1       5.200   5.713  15.568  0.00  0.00    +0.000 OA
ATOM      5  C   UNL     1       5.456   4.652  17.690  0.00  0.00    +0.000 A 
ATOM      6  C   UNL     1       6.037   4.814  18.884  0.00  0.00    +0.000 A 
ATOM      7  O   UNL     1       6.960   5.783  19.205  0.00  0.00    +0.000 OA
ENDROOT
BRANCH   1   8
ATOM      8  C   UNL     1       8.368   7.716  18.651  0.00  0.00    +0.000 C 
BRANCH   8   9
ATOM      9  S   UNL     1       8.118   9.275  17.751  0.00  0.00    +0.000 S 
BRANCH   9  15
ATOM     10  C   UNL     1      11.874  12.680  17.628  0.00  0.00    +0.000 C 
ATOM     11  C   UNL     1      10.930  11.906  18.497  0.00  0.00    +0.000 A 
ATOM     12  C   UNL     1      10.931  12.060  19.868  0.00  0.00    +0.000 A 
ATOM     13  C   UNL     1      10.018  11.295  20.558  0.00  0.00    +0.000 A 
ATOM     14  N   UNL     1       9.158  10.437  19.971  0.00  0.00    +0.000 NA
ATOM     15  C   UNL     1       9.228  10.354  18.632  0.00  0.00    +0.000 A 
ATOM     16  N   UNL     1      10.087  11.058  17.871  0.00  0.00    +0.000 NA
ENDBRANCH   9  15
ENDBRANCH   8   9
ENDBRANCH   1   8
BRANCH   5  17
ATOM     17  O   UNL     1       4.431   3.703  17.507  0.00  0.00    +0.000 OA
BRANCH  17  18
ATOM     18  C   UNL     1       3.198   3.985  18.048  0.00  0.00    +0.000 C 
ATOM     19  O   UNL     1       2.538   4.993  17.833  0.00  0.00    +0.000 OA
BRANCH  18  20
ATOM     20  C   UNL     1       2.698   2.768  18.856  0.00  0.00    +0.000 C 
ATOM     21  C   UNL     1       3.469   1.501  18.462  0.00  0.00    +0.000 C 
ATOM     22  C   UNL     1       2.872   2.994  20.369  0.00  0.00    +0.000 C 
ATOM     23  C   UNL     1       1.198   2.585  18.571  0.00  0.00    +0.000 C 
ENDBRANCH  18  20
ENDBRANCH  17  18
ENDBRANCH   5  17
TORSDOF 6
ENDMDL
MODEL 2
REMARK VINA RESULT:      -6.8      3.227      4.433
REMARK  Name = 
REMARK  10 active torsions:
REMARK  status: ('A' for Active; 'I' for Inactive)
REMARK    1  A    between atoms: C_1  and  C_2
REMARK    2  A    between atoms: C_6  and  S_7
REMARK    3  A    between atoms: S_7  and  C_8
REMARK    4  A    between atoms: C_8  and  C_9
REMARK    5  A    between atoms: C_13  and  O_14
REMARK    6  A    between atoms: O_14  and  C_15
REMARK    7  A    between atoms: C_15  and  C_17
REMARK    8  A    between atoms: C_17  and  C_18
REMARK    9  A    between atoms: C_17  and  C_19
REMARK   10  A    between atoms: C_17  and  C_20
REMARK                            x       y       z     vdW  Elec       q    Type
REMARK                         _______ _______ _______ _____ _____    ______ ____
ROOT
ATOM      1  C   UNL     1       4.822   4.776  15.974  0.00  0.00    +0.000 A 
ATOM      2  C   UNL     1       4.436   5.923  16.558  0.00  0.00    +0.000 A 
ATOM      3  C   UNL     1       3.976   5.923  17.968  0.00  0.00    +0.000 A 
ATOM      4  O   UNL     1       3.809   6.978  18.570  0.00  0.00    +0.000 OA
ATOM      5  C   UNL     1       3.833   4.592  18.617  0.00  0.00    +0.000 A 
ATOM      6  C   UNL     1       4.256   3.530  17.923  0.00  0.00    +0.000 A 
ATOM      7  O   UNL     1       4.768   3.556  16.646  0.00  0.00    +0.000 OA
ENDROOT
BRANCH   1   8
ATOM      8  C   UNL     1       5.433   4.723  14.591  0.00  0.00    +0.000 C 
BRANCH   8   9
ATOM      9  S   UNL     1       7.249   4.693  14.670  0.00  0.00    +0.000 S 
BRANCH   9  15
ATOM     10  C   UNL     1       7.763   8.696  17.742  0.00  0.00    +0.000 C 
ATOM     11  C   UNL     1       7.737   7.200  17.647  0.00  0.00    +0.000 A 
ATOM     12  C   UNL     1       7.893   6.411  18.767  0.00  0.00    +0.000 A 
ATOM     13  C   UNL     1       7.852   5.051  18.553  0.00  0.00    +0.000 A 
ATOM     14  N   UNL     1       7.670   4.485  17.342  0.00  0.00    +0.000 NA
ATOM     15  C   UNL     1       7.525   5.332  16.310  0.00  0.00    +0.000 A 
ATOM     16  N   UNL     1       7.554   6.673  16.418  0.00  0.00    +0.000 NA
ENDBRANCH   9  15
ENDBRANCH   8   9
ENDBRANCH   1   8
BRANCH   5  17
ATOM     17  O   UNL     1       3.442   4.466  19.965  0.00  0.00    +0.000 OA
BRANCH  17  18
ATOM     18  C   UNL     1       3.124   3.208  20.421  0.00  0.00    +0.000 C 
ATOM     19  O   UNL     1       3.926   2.354  20.777  0.00  0.00    +0.000 OA
BRANCH  18  20
ATOM     20  C   UNL     1       1.591   3.079  20.556  0.00  0.00    +0.000 C 
ATOM     21  C   UNL     1       1.218   2.410  21.886  0.00  0.00    +0.000 C 
ATOM     22  C   UNL     1       0.908   4.457  20.494  0.00  0.00    +0.000 C 
ATOM     23  C   UNL     1       1.075   2.237  19.377  0.00  0.00    +0.000 C 
ENDBRANCH  18  20
ENDBRANCH  17  18
ENDBRANCH   5  17
TORSDOF 6
ENDMDL
MODEL 3
REMARK VINA RESULT:      -6.7      1.687      2.705
REMARK  Name = 
REMARK  10 active torsions:
REMARK  status: ('A' for Active; 'I' for Inactive)
REMARK    1  A    between atoms: C_1  and  C_2
REMARK    2  A    between atoms: C_6  and  S_7
REMARK    3  A    between atoms: S_7  and  C_8
REMARK    4  A    between atoms: C_8  and  C_9
REMARK    5  A    between atoms: C_13  and  O_14
REMARK    6  A    between atoms: O_14  and  C_15
REMARK    7  A    between atoms: C_15  and  C_17
REMARK    8  A    between atoms: C_17  and  C_18
REMARK    9  A    between atoms: C_17  and  C_19
REMARK   10  A    between atoms: C_17  and  C_20
REMARK                            x       y       z     vdW  Elec       q    Type
REMARK                         _______ _______ _______ _____ _____    ______ ____
ROOT
ATOM      1  C   UNL     1       7.748   8.203  17.789  0.00  0.00    +0.000 A 
ATOM      2  C   UNL     1       8.210   7.345  18.715  0.00  0.00    +0.000 A 
ATOM      3  C   UNL     1       7.678   5.962  18.781  0.00  0.00    +0.000 A 
ATOM      4  O   UNL     1       8.222   5.116  19.482  0.00  0.00    +0.000 OA
ATOM      5  C   UNL     1       6.532   5.651  17.884  0.00  0.00    +0.000 A 
ATOM      6  C   UNL     1       6.172   6.597  17.010  0.00  0.00    +0.000 A 
ATOM      7  O   UNL     1       6.738   7.846  16.898  0.00  0.00    +0.000 OA
ENDROOT
BRANCH   1   8
ATOM      8  C   UNL     1       8.342   9.578  17.574  0.00  0.00    +0.000 C 
BRANCH   8   9
ATOM      9  S   UNL     1       9.224  10.156  19.053  0.00  0.00    +0.000 S 
BRANCH   9  15
ATOM     10  C   UNL     1       8.793  15.116  18.085  0.00  0.00    +0.000 C 
ATOM     11  C   UNL     1       9.691  13.916  18.039  0.00  0.00    +0.000 A 
ATOM     12  C   UNL     1      10.986  14.012  17.575  0.00  0.00    +0.000 A 
ATOM     13  C   UNL     1      11.712  12.842  17.580  0.00  0.00    +0.000 A 
ATOM     14  N   UNL     1      11.227  11.657  18.004  0.00  0.00    +0.000 NA
ATOM     15  C   UNL     1       9.956  11.661  18.441  0.00  0.00    +0.000 A 
ATOM     16  N   UNL     1       9.167  12.750  18.471  0.00  0.00    +0.000 NA
ENDBRANCH   9  15
ENDBRANCH   8   9
ENDBRANCH   1   8
BRANCH   5  17
ATOM     17  O   UNL     1       5.967   4.361  17.829  0.00  0.00    +0.000 OA
BRANCH  17  18
ATOM     18  C   UNL     1       4.828   4.197  17.074  0.00  0.00    +0.000 C 
ATOM     19  O   UNL     1       4.792   4.060  15.859  0.00  0.00    +0.000 OA
BRANCH  18  20
ATOM     20  C   UNL     1       3.605   4.064  18.007  0.00  0.00    +0.000 C 
ATOM     21  C   UNL     1       4.038   3.601  19.406  0.00  0.00    +0.000 C 
ATOM     22  C   UNL     1       2.861   5.404  18.146  0.00  0.00    +0.000 C 
ATOM     23  C   UNL     1       2.637   3.042  17.387  0.00  0.00    +0.000 C 
ENDBRANCH  18  20
ENDBRANCH  17  18
ENDBRANCH   5  17
TORSDOF 6
ENDMDL
MODEL 4
REMARK VINA RESULT:      -6.7      1.677      2.740
REMARK  Name = 
REMARK  10 active torsions:
REMARK  status: ('A' for Active; 'I' for Inactive)
REMARK    1  A    between atoms: C_1  and  C_2
REMARK    2  A    between atoms: C_6  and  S_7
REMARK    3  A    between atoms: S_7  and  C_8
REMARK    4  A    between atoms: C_8  and  C_9
REMARK    5  A    between atoms: C_13  and  O_14
REMARK    6  A    between atoms: O_14  and  C_15
REMARK    7  A    between atoms: C_15  and  C_17
REMARK    8  A    between atoms: C_17  and  C_18
REMARK    9  A    between atoms: C_17  and  C_19
REMARK   10  A    between atoms: C_17  and  C_20
REMARK                            x       y       z     vdW  Elec       q    Type
REMARK                         _______ _______ _______ _____ _____    ______ ____
ROOT
ATOM      1  C   UNL     1       7.637   8.071  17.816  0.00  0.00    +0.000 A 
ATOM      2  C   UNL     1       8.186   7.187  18.668  0.00  0.00    +0.000 A 
ATOM      3  C   UNL     1       7.619   5.822  18.793  0.00  0.00    +0.000 A 
ATOM      4  O   UNL     1       8.220   4.951  19.412  0.00  0.00    +0.000 OA
ATOM      5  C   UNL     1       6.357   5.559  18.051  0.00  0.00    +0.000 A 
ATOM      6  C   UNL     1       5.919   6.527  17.237  0.00  0.00    +0.000 A 
ATOM      7  O   UNL     1       6.509   7.757  17.061  0.00  0.00    +0.000 OA
ENDROOT
BRANCH   1   8
ATOM      8  C   UNL     1       8.246   9.426  17.535  0.00  0.00    +0.000 C 
BRANCH   8   9
ATOM      9  S   UNL     1       9.100  10.085  18.997  0.00  0.00    +0.000 S 
BRANCH   9  15
ATOM     10  C   UNL     1       8.613  15.057  18.122  0.00  0.00    +0.000 C 
ATOM     11  C   UNL     1       9.496  13.854  17.984  0.00  0.00    +0.000 A 
ATOM     12  C   UNL     1      10.745  13.947  17.406  0.00  0.00    +0.000 A 
ATOM     13  C   UNL     1      11.462  12.774  17.335  0.00  0.00    +0.000 A 
ATOM     14  N   UNL     1      11.009  11.587  17.789  0.00  0.00    +0.000 NA
ATOM     15  C   UNL     1       9.783  11.593  18.337  0.00  0.00    +0.000 A 
ATOM     16  N   UNL     1       9.006  12.686  18.449  0.00  0.00    +0.000 NA
ENDBRANCH   9  15
ENDBRANCH   8   9
ENDBRANCH   1   8
BRANCH   5  17
ATOM     17  O   UNL     1       5.744   4.290  18.061  0.00  0.00    +0.000 OA
BRANCH  17  18
ATOM     18  C   UNL     1       4.678   4.091  17.215  0.00  0.00    +0.000 C 
ATOM     19  O   UNL     1       4.740   4.018  15.995  0.00  0.00    +0.000 OA
BRANCH  18  20
ATOM     20  C   UNL     1       3.404   3.824  18.044  0.00  0.00    +0.000 C 
ATOM     21  C   UNL     1       2.397   4.971  17.874  0.00  0.00    +0.000 C 
ATOM     22  C   UNL     1       2.724   2.511  17.617  0.00  0.00    +0.000 C 
ATOM     23  C   UNL     1       3.811   3.692  19.522  0.00  0.00    +0.000 C 
ENDBRANCH  18  20
ENDBRANCH  17  18
ENDBRANCH   5  17
TORSDOF 6
ENDMDL
MODEL 5
REMARK VINA RESULT:      -6.7      6.332      8.127
REMARK  Name = 
REMARK  10 active torsions:
REMARK  status: ('A' for Active; 'I' for Inactive)
REMARK    1  A    between atoms: C_1  and  C_2
REMARK    2  A    between atoms: C_6  and  S_7
REMARK    3  A    between atoms: S_7  and  C_8
REMARK    4  A    between atoms: C_8  and  C_9
REMARK    5  A    between atoms: C_13  and  O_14
REMARK    6  A    between atoms: O_14  and  C_15
REMARK    7  A    between atoms: C_15  and  C_17
REMARK    8  A    between atoms: C_17  and  C_18
REMARK    9  A    between atoms: C_17  and  C_19
REMARK   10  A    between atoms: C_17  and  C_20
REMARK                            x       y       z     vdW  Elec       q    Type
REMARK                         _______ _______ _______ _____ _____    ______ ____
ROOT
ATOM      1  C   UNL     1       2.320   7.128  19.529  0.00  0.00    +0.000 A 
ATOM      2  C   UNL     1       2.370   7.892  18.424  0.00  0.00    +0.000 A 
ATOM      3  C   UNL     1       1.743   9.236  18.418  0.00  0.00    +0.000 A 
ATOM      4  O   UNL     1       1.946  10.016  17.495  0.00  0.00    +0.000 OA
ATOM      5  C   UNL     1       0.954   9.603  19.625  0.00  0.00    +0.000 A 
ATOM      6  C   UNL     1       0.989   8.751  20.655  0.00  0.00    +0.000 A 
ATOM      7  O   UNL     1       1.654   7.546  20.680  0.00  0.00    +0.000 OA
ENDROOT
BRANCH   1   8
ATOM      8  C   UNL     1       3.056   5.812  19.652  0.00  0.00    +0.000 C 
BRANCH   8   9
ATOM      9  S   UNL     1       2.876   4.811  18.147  0.00  0.00    +0.000 S 
BRANCH   9  15
ATOM     10  C   UNL     1       6.216   3.964  14.425  0.00  0.00    +0.000 C 
ATOM     11  C   UNL     1       6.032   4.306  15.873  0.00  0.00    +0.000 A 
ATOM     12  C   UNL     1       7.115   4.530  16.697  0.00  0.00    +0.000 A 
ATOM     13  C   UNL     1       6.820   4.836  18.006  0.00  0.00    +0.000 A 
ATOM     14  N   UNL     1       5.564   4.924  18.493  0.00  0.00    +0.000 NA
ATOM     15  C   UNL     1       4.573   4.692  17.617  0.00  0.00    +0.000 A 
ATOM     16  N   UNL     1       4.762   4.383  16.321  0.00  0.00    +0.000 NA
ENDBRANCH   9  15
ENDBRANCH   8   9
ENDBRANCH   1   8
BRANCH   5  17
ATOM     17  O   UNL     1       0.344  10.867  19.753  0.00  0.00    +0.000 OA
BRANCH  17  18
ATOM     18  C   UNL     1       0.675  11.626  20.852  0.00  0.00    +0.000 C 
ATOM     19  O   UNL     1       1.799  12.021  21.134  0.00  0.00    +0.000 OA
BRANCH  18  20
ATOM     20  C   UNL     1      -0.611  12.031  21.605  0.00  0.00    +0.000 C 
ATOM     21  C   UNL     1      -1.815  12.045  20.653  0.00  0.00    +0.000 C 
ATOM     22  C   UNL     1      -0.911  11.059  22.759  0.00  0.00    +0.000 C 
ATOM     23  C   UNL     1      -0.394  13.431  22.204  0.00  0.00    +0.000 C 
ENDBRANCH  18  20
ENDBRANCH  17  18
ENDBRANCH   5  17
TORSDOF 6
ENDMDL
MODEL 6
REMARK VINA RESULT:      -6.7      6.331      7.956
REMARK  Name = 
REMARK  10 active torsions:
REMARK  status: ('A' for Active; 'I' for Inactive)
REMARK    1  A    between atoms: C_1  and  C_2
REMARK    2  A    between atoms: C_6  and  S_7
REMARK    3  A    between atoms: S_7  and  C_8
REMARK    4  A    between atoms: C_8  and  C_9
REMARK    5  A    between atoms: C_13  and  O_14
REMARK    6  A    between atoms: O_14  and  C_15
REMARK    7  A    between atoms: C_15  and  C_17
REMARK    8  A    between atoms: C_17  and  C_18
REMARK    9  A    between atoms: C_17  and  C_19
REMARK   10  A    between atoms: C_17  and  C_20
REMARK                            x       y       z     vdW  Elec       q    Type
REMARK                         _______ _______ _______ _____ _____    ______ ____
ROOT
ATOM      1  C   UNL     1       2.393   7.225  19.412  0.00  0.00    +0.000 A 
ATOM      2  C   UNL     1       2.407   8.041  18.343  0.00  0.00    +0.000 A 
ATOM      3  C   UNL     1       1.706   9.346  18.394  0.00  0.00    +0.000 A 
ATOM      4  O   UNL     1       1.872  10.179  17.510  0.00  0.00    +0.000 OA
ATOM      5  C   UNL     1       0.890   9.612  19.610  0.00  0.00    +0.000 A 
ATOM      6  C   UNL     1       0.967   8.716  20.599  0.00  0.00    +0.000 A 
ATOM      7  O   UNL     1       1.697   7.550  20.574  0.00  0.00    +0.000 OA
ENDROOT
BRANCH   1   8
ATOM      8  C   UNL     1       3.201   5.947  19.480  0.00  0.00    +0.000 C 
BRANCH   8   9
ATOM      9  S   UNL     1       2.889   4.889  18.036  0.00  0.00    +0.000 S 
BRANCH   9  15
ATOM     10  C   UNL     1       7.445   7.057  17.519  0.00  0.00    +0.000 C 
ATOM     11  C   UNL     1       6.543   5.944  17.077  0.00  0.00    +0.000 A 
ATOM     12  C   UNL     1       6.961   5.012  16.150  0.00  0.00    +0.000 A 
ATOM     13  C   UNL     1       6.044   4.039  15.823  0.00  0.00    +0.000 A 
ATOM     14  N   UNL     1       4.805   3.963  16.354  0.00  0.00    +0.000 NA
ATOM     15  C   UNL     1       4.488   4.912  17.250  0.00  0.00    +0.000 A 
ATOM     16  N   UNL     1       5.313   5.904  17.631  0.00  0.00    +0.000 NA
ENDBRANCH   9  15
ENDBRANCH   8   9
ENDBRANCH   1   8
BRANCH   5  17
ATOM     17  O   UNL     1       0.210  10.833  19.790  0.00  0.00    +0.000 OA
BRANCH  17  18
ATOM     18  C   UNL     1       0.578  11.615  20.860  0.00  0.00    +0.000 C 
ATOM     19  O   UNL     1       1.710  12.016  21.094  0.00  0.00    +0.000 OA
BRANCH  18  20
ATOM     20  C   UNL     1      -0.681  12.037  21.649  0.00  0.00    +0.000 C 
ATOM     21  C   UNL     1      -1.899  12.128  20.719  0.00  0.00    +0.000 C 
ATOM     22  C   UNL     1      -0.999  11.032  22.771  0.00  0.00    +0.000 C 
ATOM     23  C   UNL     1      -0.406  13.404  22.297  0.00  0.00    +0.000 C 
ENDBRANCH  18  20
ENDBRANCH  17  18
ENDBRANCH   5  17
TORSDOF 6
ENDMDL
MODEL 7
REMARK VINA RESULT:      -6.7      6.078      7.949
REMARK  Name = 
REMARK  10 active torsions:
REMARK  status: ('A' for Active; 'I' for Inactive)
REMARK    1  A    between atoms: C_1  and  C_2
REMARK    2  A    between atoms: C_6  and  S_7
REMARK    3  A    between atoms: S_7  and  C_8
REMARK    4  A    between atoms: C_8  and  C_9
REMARK    5  A    between atoms: C_13  and  O_14
REMARK    6  A    between atoms: O_14  and  C_15
REMARK    7  A    between atoms: C_15  and  C_17
REMARK    8  A    between atoms: C_17  and  C_18
REMARK    9  A    between atoms: C_17  and  C_19
REMARK   10  A    between atoms: C_17  and  C_20
REMARK                            x       y       z     vdW  Elec       q    Type
REMARK                         _______ _______ _______ _____ _____    ______ ____
ROOT
ATOM      1  C   UNL     1       2.387   6.690  19.479  0.00  0.00    +0.000 A 
ATOM      2  C   UNL     1       2.433   7.398  18.337  0.00  0.00    +0.000 A 
ATOM      3  C   UNL     1       1.954   8.802  18.311  0.00  0.00    +0.000 A 
ATOM      4  O   UNL     1       2.168   9.517  17.339  0.00  0.00    +0.000 OA
ATOM      5  C   UNL     1       1.302   9.301  19.552  0.00  0.00    +0.000 A 
ATOM      6  C   UNL     1       1.325   8.492  20.617  0.00  0.00    +0.000 A 
ATOM      7  O   UNL     1       1.858   7.223  20.652  0.00  0.00    +0.000 OA
ENDROOT
BRANCH   1   8
ATOM      8  C   UNL     1       2.986   5.307  19.612  0.00  0.00    +0.000 C 
BRANCH   8   9
ATOM      9  S   UNL     1       2.891   4.391  18.046  0.00  0.00    +0.000 S 
BRANCH   9  15
ATOM     10  C   UNL     1       6.304   4.014  14.314  0.00  0.00    +0.000 C 
ATOM     11  C   UNL     1       6.087   4.262  15.776  0.00  0.00    +0.000 A 
ATOM     12  C   UNL     1       7.145   4.525  16.620  0.00  0.00    +0.000 A 
ATOM     13  C   UNL     1       6.820   4.735  17.942  0.00  0.00    +0.000 A 
ATOM     14  N   UNL     1       5.560   4.696  18.422  0.00  0.00    +0.000 NA
ATOM     15  C   UNL     1       4.594   4.435  17.526  0.00  0.00    +0.000 A 
ATOM     16  N   UNL     1       4.812   4.213  16.216  0.00  0.00    +0.000 NA
ENDBRANCH   9  15
ENDBRANCH   8   9
ENDBRANCH   1   8
BRANCH   5  17
ATOM     17  O   UNL     1       0.842  10.628  19.662  0.00  0.00    +0.000 OA
BRANCH  17  18
ATOM     18  C   UNL     1      -0.510  10.822  19.829  0.00  0.00    +0.000 C 
ATOM     19  O   UNL     1      -1.395  10.238  19.217  0.00  0.00    +0.000 OA
BRANCH  18  20
ATOM     20  C   UNL     1      -0.752  11.785  21.012  0.00  0.00    +0.000 C 
ATOM     21  C   UNL     1       0.401  12.791  21.136  0.00  0.00    +0.000 C 
ATOM     22  C   UNL     1      -2.065  12.567  20.834  0.00  0.00    +0.000 C 
ATOM     23  C   UNL     1      -0.864  10.948  22.297  0.00  0.00    +0.000 C 
ENDBRANCH  18  20
ENDBRANCH  17  18
ENDBRANCH   5  17
TORSDOF 6
ENDMDL
MODEL 8
REMARK VINA RESULT:      -6.7      6.113      7.858
REMARK  Name = 
REMARK  10 active torsions:
REMARK  status: ('A' for Active; 'I' for Inactive)
REMARK    1  A    between atoms: C_1  and  C_2
REMARK    2  A    between atoms: C_6  and  S_7
REMARK    3  A    between atoms: S_7  and  C_8
REMARK    4  A    between atoms: C_8  and  C_9
REMARK    5  A    between atoms: C_13  and  O_14
REMARK    6  A    between atoms: O_14  and  C_15
REMARK    7  A    between atoms: C_15  and  C_17
REMARK    8  A    between atoms: C_17  and  C_18
REMARK    9  A    between atoms: C_17  and  C_19
REMARK   10  A    between atoms: C_17  and  C_20
REMARK                            x       y       z     vdW  Elec       q    Type
REMARK                         _______ _______ _______ _____ _____    ______ ____
ROOT
ATOM      1  C   UNL     1       2.362   6.814  19.415  0.00  0.00    +0.000 A 
ATOM      2  C   UNL     1       2.392   7.570  18.304  0.00  0.00    +0.000 A 
ATOM      3  C   UNL     1       1.897   8.968  18.340  0.00  0.00    +0.000 A 
ATOM      4  O   UNL     1       2.097   9.726  17.398  0.00  0.00    +0.000 OA
ATOM      5  C   UNL     1       1.250   9.408  19.605  0.00  0.00    +0.000 A 
ATOM      6  C   UNL     1       1.290   8.555  20.635  0.00  0.00    +0.000 A 
ATOM      7  O   UNL     1       1.836   7.292  20.613  0.00  0.00    +0.000 OA
ENDROOT
BRANCH   1   8
ATOM      8  C   UNL     1       2.976   5.433  19.486  0.00  0.00    +0.000 C 
BRANCH   8   9
ATOM      9  S   UNL     1       2.904   4.593  17.876  0.00  0.00    +0.000 S 
BRANCH   9  15
ATOM     10  C   UNL     1       7.708   5.735  19.036  0.00  0.00    +0.000 C 
ATOM     11  C   UNL     1       6.786   5.142  18.014  0.00  0.00    +0.000 A 
ATOM     12  C   UNL     1       7.269   4.633  16.827  0.00  0.00    +0.000 A 
ATOM     13  C   UNL     1       6.325   4.116  15.968  0.00  0.00    +0.000 A 
ATOM     14  N   UNL     1       5.002   4.089  16.232  0.00  0.00    +0.000 NA
ATOM     15  C   UNL     1       4.624   4.605  17.413  0.00  0.00    +0.000 A 
ATOM     16  N   UNL     1       5.470   5.135  18.315  0.00  0.00    +0.000 NA
ENDBRANCH   9  15
ENDBRANCH   8   9
ENDBRANCH   1   8
BRANCH   5  17
ATOM     17  O   UNL     1       0.776  10.724  19.774  0.00  0.00    +0.000 OA
BRANCH  17  18
ATOM     18  C   UNL     1      -0.585  10.904  19.865  0.00  0.00    +0.000 C 
ATOM     19  O   UNL     1      -1.426  10.341  19.177  0.00  0.00    +0.000 OA
BRANCH  18  20
ATOM     20  C   UNL     1      -0.906  11.818  21.067  0.00  0.00    +0.000 C 
ATOM     21  C   UNL     1      -2.275  12.489  20.888  0.00  0.00    +0.000 C 
ATOM     22  C   UNL     1      -0.921  11.023  22.384  0.00  0.00    +0.000 C 
ATOM     23  C   UNL     1       0.198  12.886  21.166  0.00  0.00    +0.000 C 
ENDBRANCH  18  20
ENDBRANCH  17  18
ENDBRANCH   5  17
TORSDOF 6
ENDMDL
MODEL 9
REMARK VINA RESULT:      -6.6      6.280      9.388
REMARK  Name = 
REMARK  10 active torsions:
REMARK  status: ('A' for Active; 'I' for Inactive)
REMARK    1  A    between atoms: C_1  and  C_2
REMARK    2  A    between atoms: C_6  and  S_7
REMARK    3  A    between atoms: S_7  and  C_8
REMARK    4  A    between atoms: C_8  and  C_9
REMARK    5  A    between atoms: C_13  and  O_14
REMARK    6  A    between atoms: O_14  and  C_15
REMARK    7  A    between atoms: C_15  and  C_17
REMARK    8  A    between atoms: C_17  and  C_18
REMARK    9  A    between atoms: C_17  and  C_19
REMARK   10  A    between atoms: C_17  and  C_20
REMARK                            x       y       z     vdW  Elec       q    Type
REMARK                         _______ _______ _______ _____ _____    ______ ____
ROOT
ATOM      1  C   UNL     1       2.740   7.607  18.244  0.00  0.00    +0.000 A 
ATOM      2  C   UNL     1       2.313   7.493  19.514  0.00  0.00    +0.000 A 
ATOM      3  C   UNL     1       1.371   8.491  20.075  0.00  0.00    +0.000 A 
ATOM      4  O   UNL     1       0.824   8.295  21.155  0.00  0.00    +0.000 OA
ATOM      5  C   UNL     1       1.063   9.666  19.217  0.00  0.00    +0.000 A 
ATOM      6  C   UNL     1       1.554   9.654  17.973  0.00  0.00    +0.000 A 
ATOM      7  O   UNL     1       2.354   8.673  17.434  0.00  0.00    +0.000 OA
ENDROOT
BRANCH   1   8
ATOM      8  C   UNL     1       3.586   6.554  17.564  0.00  0.00    +0.000 C 
BRANCH   8   9
ATOM      9  S   UNL     1       4.486   5.543  18.777  0.00  0.00    +0.000 S 
BRANCH   9  15
ATOM     10  C   UNL     1       1.401   2.642  21.567  0.00  0.00    +0.000 C 
ATOM     11  C   UNL     1       2.018   2.857  20.218  0.00  0.00    +0.000 A 
ATOM     12  C   UNL     1       1.737   2.015  19.162  0.00  0.00    +0.000 A 
ATOM     13  C   UNL     1       2.364   2.315  17.974  0.00  0.00    +0.000 A 
ATOM     14  N   UNL     1       3.205   3.357  17.808  0.00  0.00    +0.000 NA
ATOM     15  C   UNL     1       3.417   4.123  18.891  0.00  0.00    +0.000 A 
ATOM     16  N   UNL     1       2.854   3.909  20.095  0.00  0.00    +0.000 NA
ENDBRANCH   9  15
ENDBRANCH   8   9
ENDBRANCH   1   8
BRANCH   5  17
ATOM     17  O   UNL     1       0.153  10.661  19.626  0.00  0.00    +0.000 OA
BRANCH  17  18
ATOM     18  C   UNL     1       0.671  11.820  20.155  0.00  0.00    +0.000 C 
ATOM     19  O   UNL     1       1.406  11.892  21.131  0.00  0.00    +0.000 OA
BRANCH  18  20
ATOM     20  C   UNL     1       0.303  13.013  19.246  0.00  0.00    +0.000 C 
ATOM     21  C   UNL     1      -0.847  12.639  18.300  0.00  0.00    +0.000 C 
ATOM     22  C   UNL     1      -0.126  14.236  20.076  0.00  0.00    +0.000 C 
ATOM     23  C   UNL     1       1.551  13.401  18.435  0.00  0.00    +0.000 C 
ENDBRANCH  18  20
ENDBRANCH  17  18
ENDBRANCH   5  17
TORSDOF 6
ENDMDL
