MODEL 1
REMARK VINA RESULT:      -6.3      0.000      0.000
REMARK  Name = 
REMARK  1 active torsions:
REMARK  status: ('A' for Active; 'I' for Inactive)
REMARK    1  A    between atoms: C_5  and  C_6
REMARK                            x       y       z     vdW  Elec       q    Type
REMARK                         _______ _______ _______ _____ _____    ______ ____
ROOT
ATOM      1  N   UNL     1       8.295   5.601  19.901  0.00  0.00    +0.000 N 
ATOM      2  C   UNL     1       7.464   5.071  19.012  0.00  0.00    +0.000 A 
ATOM      3  N   UNL     1       7.809   4.571  17.831  0.00  0.00    +0.000 NA
ATOM      4  N   UNL     1       6.623   4.156  17.366  0.00  0.00    +0.000 N 
ATOM      5  C   UNL     1       5.612   4.410  18.254  0.00  0.00    +0.000 A 
ATOM      6  N   UNL     1       6.135   5.034  19.293  0.00  0.00    +0.000 NA
ATOM      7  H   UNL     1       9.213   5.873  19.579  0.00  0.00    +0.000 HD
ATOM      8  H   UNL     1       7.898   6.180  20.627  0.00  0.00    +0.000 HD
ATOM      9  H   UNL     1       6.572   3.729  16.451  0.00  0.00    +0.000 HD
ENDROOT
BRANCH   5  10
ATOM     10  C   UNL     1       4.211   4.063  18.040  0.00  0.00    +0.000 A 
ATOM     11  C   UNL     1       3.802   2.743  17.830  0.00  0.00    +0.000 A 
ATOM     12  C   UNL     1       2.453   2.490  17.642  0.00  0.00    +0.000 A 
ATOM     13  N   UNL     1       1.503   3.445  17.644  0.00  0.00    +0.000 NA
ATOM     14  C   UNL     1       1.914   4.713  17.862  0.00  0.00    +0.000 A 
ATOM     15  C   UNL     1       3.237   5.065  18.068  0.00  0.00    +0.000 A 
ENDBRANCH   5  10
TORSDOF 1
ENDMDL
MODEL 2
REMARK VINA RESULT:      -6.2      0.192      1.364
REMARK  Name = 
REMARK  1 active torsions:
REMARK  status: ('A' for Active; 'I' for Inactive)
REMARK    1  A    between atoms: C_5  and  C_6
REMARK                            x       y       z     vdW  Elec       q    Type
REMARK                         _______ _______ _______ _____ _____    ______ ____
ROOT
ATOM      1  N   UNL     1       8.334   5.490  19.727  0.00  0.00    +0.000 N 
ATOM      2  C   UNL     1       7.453   5.020  18.854  0.00  0.00    +0.000 A 
ATOM      3  N   UNL     1       7.721   4.643  17.609  0.00  0.00    +0.000 NA
ATOM      4  N   UNL     1       6.515   4.237  17.192  0.00  0.00    +0.000 N 
ATOM      5  C   UNL     1       5.566   4.377  18.169  0.00  0.00    +0.000 A 
ATOM      6  N   UNL     1       6.149   4.916  19.224  0.00  0.00    +0.000 NA
ATOM      7  H   UNL     1       9.219   5.819  19.368  0.00  0.00    +0.000 HD
ATOM      8  H   UNL     1       7.978   5.987  20.531  0.00  0.00    +0.000 HD
ATOM      9  H   UNL     1       6.406   3.896  16.246  0.00  0.00    +0.000 HD
ENDROOT
BRANCH   5  10
ATOM     10  C   UNL     1       4.161   4.008  18.024  0.00  0.00    +0.000 A 
ATOM     11  C   UNL     1       3.155   4.971  17.906  0.00  0.00    +0.000 A 
ATOM     12  C   UNL     1       1.844   4.545  17.763  0.00  0.00    +0.000 A 
ATOM     13  N   UNL     1       1.476   3.248  17.737  0.00  0.00    +0.000 NA
ATOM     14  C   UNL     1       2.463   2.333  17.839  0.00  0.00    +0.000 A 
ATOM     15  C   UNL     1       3.801   2.660  17.976  0.00  0.00    +0.000 A 
ENDBRANCH   5  10
TORSDOF 1
ENDMDL
MODEL 3
REMARK VINA RESULT:      -6.2      1.573      2.585
REMARK  Name = 
REMARK  1 active torsions:
REMARK  status: ('A' for Active; 'I' for Inactive)
REMARK    1  A    between atoms: C_5  and  C_6
REMARK                            x       y       z     vdW  Elec       q    Type
REMARK                         _______ _______ _______ _____ _____    ______ ____
ROOT
ATOM      1  N   UNL     1       7.534   5.271  14.650  0.00  0.00    +0.000 N 
ATOM      2  C   UNL     1       6.919   4.812  15.732  0.00  0.00    +0.000 A 
ATOM      3  N   UNL     1       7.498   4.544  16.897  0.00  0.00    +0.000 NA
ATOM      4  N   UNL     1       6.447   4.149  17.627  0.00  0.00    +0.000 N 
ATOM      5  C   UNL     1       5.285   4.183  16.904  0.00  0.00    +0.000 A 
ATOM      6  N   UNL     1       5.584   4.567  15.677  0.00  0.00    +0.000 NA
ATOM      7  H   UNL     1       8.540   5.186  14.612  0.00  0.00    +0.000 HD
ATOM      8  H   UNL     1       7.055   5.182  13.765  0.00  0.00    +0.000 HD
ATOM      9  H   UNL     1       6.590   3.861  18.586  0.00  0.00    +0.000 HD
ENDROOT
BRANCH   5  10
ATOM     10  C   UNL     1       3.969   3.825  17.426  0.00  0.00    +0.000 A 
ATOM     11  C   UNL     1       2.971   4.781  17.630  0.00  0.00    +0.000 A 
ATOM     12  C   UNL     1       1.745   4.365  18.121  0.00  0.00    +0.000 A 
ATOM     13  N   UNL     1       1.454   3.084  18.423  0.00  0.00    +0.000 NA
ATOM     14  C   UNL     1       2.426   2.172  18.208  0.00  0.00    +0.000 A 
ATOM     15  C   UNL     1       3.679   2.489  17.713  0.00  0.00    +0.000 A 
ENDBRANCH   5  10
TORSDOF 1
ENDMDL
MODEL 4
REMARK VINA RESULT:      -6.1      1.139      1.423
REMARK  Name = 
REMARK  1 active torsions:
REMARK  status: ('A' for Active; 'I' for Inactive)
REMARK    1  A    between atoms: C_5  and  C_6
REMARK                            x       y       z     vdW  Elec       q    Type
REMARK                         _______ _______ _______ _____ _____    ______ ____
ROOT
ATOM      1  N   UNL     1       7.655   6.660  16.735  0.00  0.00    +0.000 N 
ATOM      2  C   UNL     1       6.963   5.658  17.262  0.00  0.00    +0.000 A 
ATOM      3  N   UNL     1       7.455   4.704  18.044  0.00  0.00    +0.000 NA
ATOM      4  N   UNL     1       6.355   3.988  18.308  0.00  0.00    +0.000 N 
ATOM      5  C   UNL     1       5.249   4.511  17.692  0.00  0.00    +0.000 A 
ATOM      6  N   UNL     1       5.637   5.557  16.986  0.00  0.00    +0.000 NA
ATOM      7  H   UNL     1       8.662   6.574  16.713  0.00  0.00    +0.000 HD
ATOM      8  H   UNL     1       7.243   7.156  15.957  0.00  0.00    +0.000 HD
ATOM      9  H   UNL     1       6.427   3.165  18.891  0.00  0.00    +0.000 HD
ENDROOT
BRANCH   5  10
ATOM     10  C   UNL     1       3.900   3.963  17.800  0.00  0.00    +0.000 A 
ATOM     11  C   UNL     1       3.671   2.593  17.947  0.00  0.00    +0.000 A 
ATOM     12  C   UNL     1       2.362   2.147  18.050  0.00  0.00    +0.000 A 
ATOM     13  N   UNL     1       1.288   2.961  18.011  0.00  0.00    +0.000 NA
ATOM     14  C   UNL     1       1.530   4.283  17.882  0.00  0.00    +0.000 A 
ATOM     15  C   UNL     1       2.800   4.824  17.780  0.00  0.00    +0.000 A 
ENDBRANCH   5  10
TORSDOF 1
ENDMDL
MODEL 5
REMARK VINA RESULT:      -6.1      1.142      1.952
REMARK  Name = 
REMARK  1 active torsions:
REMARK  status: ('A' for Active; 'I' for Inactive)
REMARK    1  A    between atoms: C_5  and  C_6
REMARK                            x       y       z     vdW  Elec       q    Type
REMARK                         _______ _______ _______ _____ _____    ______ ____
ROOT
ATOM      1  N   UNL     1       7.672   6.680  16.748  0.00  0.00    +0.000 N 
ATOM      2  C   UNL     1       6.974   5.676  17.262  0.00  0.00    +0.000 A 
ATOM      3  N   UNL     1       7.463   4.700  18.019  0.00  0.00    +0.000 NA
ATOM      4  N   UNL     1       6.356   3.992  18.281  0.00  0.00    +0.000 N 
ATOM      5  C   UNL     1       5.251   4.540  17.688  0.00  0.00    +0.000 A 
ATOM      6  N   UNL     1       5.644   5.596  16.999  0.00  0.00    +0.000 NA
ATOM      7  H   UNL     1       8.678   6.582  16.714  0.00  0.00    +0.000 HD
ATOM      8  H   UNL     1       7.258   7.197  15.985  0.00  0.00    +0.000 HD
ATOM      9  H   UNL     1       6.425   3.156  18.846  0.00  0.00    +0.000 HD
ENDROOT
BRANCH   5  10
ATOM     10  C   UNL     1       3.897   4.007  17.799  0.00  0.00    +0.000 A 
ATOM     11  C   UNL     1       2.773   4.837  17.781  0.00  0.00    +0.000 A 
ATOM     12  C   UNL     1       1.519   4.258  17.884  0.00  0.00    +0.000 A 
ATOM     13  N   UNL     1       1.313   2.931  18.006  0.00  0.00    +0.000 NA
ATOM     14  C   UNL     1       2.410   2.143  18.008  0.00  0.00    +0.000 A 
ATOM     15  C   UNL     1       3.703   2.627  17.902  0.00  0.00    +0.000 A 
ENDBRANCH   5  10
TORSDOF 1
ENDMDL
MODEL 6
REMARK VINA RESULT:      -6.1      2.814      4.683
REMARK  Name = 
REMARK  1 active torsions:
REMARK  status: ('A' for Active; 'I' for Inactive)
REMARK    1  A    between atoms: C_5  and  C_6
REMARK                            x       y       z     vdW  Elec       q    Type
REMARK                         _______ _______ _______ _____ _____    ______ ____
ROOT
ATOM      1  N   UNL     1       6.289   3.329  12.539  0.00  0.00    +0.000 N 
ATOM      2  C   UNL     1       6.669   4.080  13.564  0.00  0.00    +0.000 A 
ATOM      3  N   UNL     1       7.458   5.147  13.493  0.00  0.00    +0.000 NA
ATOM      4  N   UNL     1       7.494   5.532  14.775  0.00  0.00    +0.000 N 
ATOM      5  C   UNL     1       6.747   4.709  15.574  0.00  0.00    +0.000 A 
ATOM      6  N   UNL     1       6.249   3.752  14.814  0.00  0.00    +0.000 NA
ATOM      7  H   UNL     1       6.815   3.408  11.680  0.00  0.00    +0.000 HD
ATOM      8  H   UNL     1       5.921   2.410  12.742  0.00  0.00    +0.000 HD
ATOM      9  H   UNL     1       8.046   6.339  15.035  0.00  0.00    +0.000 HD
ENDROOT
BRANCH   5  10
ATOM     10  C   UNL     1       6.578   4.876  17.015  0.00  0.00    +0.000 A 
ATOM     11  C   UNL     1       5.475   4.352  17.693  0.00  0.00    +0.000 A 
ATOM     12  C   UNL     1       5.387   4.545  19.063  0.00  0.00    +0.000 A 
ATOM     13  N   UNL     1       6.304   5.218  19.786  0.00  0.00    +0.000 NA
ATOM     14  C   UNL     1       7.369   5.706  19.115  0.00  0.00    +0.000 A 
ATOM     15  C   UNL     1       7.550   5.557  17.751  0.00  0.00    +0.000 A 
ENDBRANCH   5  10
TORSDOF 1
ENDMDL
MODEL 7
REMARK VINA RESULT:      -6.1      2.804      4.734
REMARK  Name = 
REMARK  1 active torsions:
REMARK  status: ('A' for Active; 'I' for Inactive)
REMARK    1  A    between atoms: C_5  and  C_6
REMARK                            x       y       z     vdW  Elec       q    Type
REMARK                         _______ _______ _______ _____ _____    ______ ____
ROOT
ATOM      1  N   UNL     1       6.271   3.300  12.570  0.00  0.00    +0.000 N 
ATOM      2  C   UNL     1       6.657   4.065  13.583  0.00  0.00    +0.000 A 
ATOM      3  N   UNL     1       7.424   5.145  13.491  0.00  0.00    +0.000 NA
ATOM      4  N   UNL     1       7.477   5.539  14.770  0.00  0.00    +0.000 N 
ATOM      5  C   UNL     1       6.761   4.707  15.588  0.00  0.00    +0.000 A 
ATOM      6  N   UNL     1       6.266   3.736  14.842  0.00  0.00    +0.000 NA
ATOM      7  H   UNL     1       6.780   3.384  11.701  0.00  0.00    +0.000 HD
ATOM      8  H   UNL     1       5.925   2.376  12.785  0.00  0.00    +0.000 HD
ATOM      9  H   UNL     1       8.019   6.357  15.014  0.00  0.00    +0.000 HD
ENDROOT
BRANCH   5  10
ATOM     10  C   UNL     1       6.615   4.881  17.030  0.00  0.00    +0.000 A 
ATOM     11  C   UNL     1       7.565   5.570  17.788  0.00  0.00    +0.000 A 
ATOM     12  C   UNL     1       7.355   5.701  19.152  0.00  0.00    +0.000 A 
ATOM     13  N   UNL     1       6.286   5.196  19.798  0.00  0.00    +0.000 NA
ATOM     14  C   UNL     1       5.372   4.545  19.047  0.00  0.00    +0.000 A 
ATOM     15  C   UNL     1       5.489   4.369  17.678  0.00  0.00    +0.000 A 
ENDBRANCH   5  10
TORSDOF 1
ENDMDL
MODEL 8
REMARK VINA RESULT:      -6.0      1.912      2.431
REMARK  Name = 
REMARK  1 active torsions:
REMARK  status: ('A' for Active; 'I' for Inactive)
REMARK    1  A    between atoms: C_5  and  C_6
REMARK                            x       y       z     vdW  Elec       q    Type
REMARK                         _______ _______ _______ _____ _____    ______ ____
ROOT
ATOM      1  N   UNL     1       7.312   5.345  15.033  0.00  0.00    +0.000 N 
ATOM      2  C   UNL     1       7.022   4.916  16.254  0.00  0.00    +0.000 A 
ATOM      3  N   UNL     1       7.901   4.489  17.155  0.00  0.00    +0.000 NA
ATOM      4  N   UNL     1       7.099   4.212  18.191  0.00  0.00    +0.000 N 
ATOM      5  C   UNL     1       5.786   4.467  17.901  0.00  0.00    +0.000 A 
ATOM      6  N   UNL     1       5.722   4.880  16.649  0.00  0.00    +0.000 NA
ATOM      7  H   UNL     1       8.221   5.112  14.658  0.00  0.00    +0.000 HD
ATOM      8  H   UNL     1       6.560   5.386  14.359  0.00  0.00    +0.000 HD
ATOM      9  H   UNL     1       7.501   3.845  19.044  0.00  0.00    +0.000 HD
ENDROOT
BRANCH   5  10
ATOM     10  C   UNL     1       4.677   4.279  18.831  0.00  0.00    +0.000 A 
ATOM     11  C   UNL     1       4.340   3.019  19.331  0.00  0.00    +0.000 A 
ATOM     12  C   UNL     1       3.278   2.919  20.216  0.00  0.00    +0.000 A 
ATOM     13  N   UNL     1       2.541   3.971  20.624  0.00  0.00    +0.000 NA
ATOM     14  C   UNL     1       2.889   5.183  20.140  0.00  0.00    +0.000 A 
ATOM     15  C   UNL     1       3.938   5.384  19.259  0.00  0.00    +0.000 A 
ENDBRANCH   5  10
TORSDOF 1
ENDMDL
MODEL 9
REMARK VINA RESULT:      -5.9      2.196      4.610
REMARK  Name = 
REMARK  1 active torsions:
REMARK  status: ('A' for Active; 'I' for Inactive)
REMARK    1  A    between atoms: C_5  and  C_6
REMARK                            x       y       z     vdW  Elec       q    Type
REMARK                         _______ _______ _______ _____ _____    ______ ____
ROOT
ATOM      1  N   UNL     1       1.971   1.728  18.767  0.00  0.00    +0.000 N 
ATOM      2  C   UNL     1       3.147   2.339  18.839  0.00  0.00    +0.000 A 
ATOM      3  N   UNL     1       3.996   2.269  19.858  0.00  0.00    +0.000 NA
ATOM      4  N   UNL     1       5.005   3.027  19.411  0.00  0.00    +0.000 N 
ATOM      5  C   UNL     1       4.750   3.529  18.163  0.00  0.00    +0.000 A 
ATOM      6  N   UNL     1       3.544   3.127  17.806  0.00  0.00    +0.000 NA
ATOM      7  H   UNL     1       1.570   1.383  19.628  0.00  0.00    +0.000 HD
ATOM      8  H   UNL     1       1.310   2.063  18.081  0.00  0.00    +0.000 HD
ATOM      9  H   UNL     1       5.815   3.171  19.999  0.00  0.00    +0.000 HD
ENDROOT
BRANCH   5  10
ATOM     10  C   UNL     1       5.663   4.378  17.405  0.00  0.00    +0.000 A 
ATOM     11  C   UNL     1       5.930   4.149  16.052  0.00  0.00    +0.000 A 
ATOM     12  C   UNL     1       6.803   5.002  15.396  0.00  0.00    +0.000 A 
ATOM     13  N   UNL     1       7.421   6.043  15.987  0.00  0.00    +0.000 NA
ATOM     14  C   UNL     1       7.141   6.257  17.291  0.00  0.00    +0.000 A 
ATOM     15  C   UNL     1       6.277   5.466  18.029  0.00  0.00    +0.000 A 
ENDBRANCH   5  10
TORSDOF 1
ENDMDL
