MODEL 1
REMARK VINA RESULT:      -8.2      0.000      0.000
REMARK  Name = 
REMARK  9 active torsions:
REMARK  status: ('A' for Active; 'I' for Inactive)
REMARK    1  A    between atoms: C_2  and  C_3
REMARK    2  A    between atoms: C_3  and  O_4
REMARK    3  A    between atoms: O_4  and  C_5
REMARK    4  A    between atoms: C_5  and  C_7
REMARK    5  A    between atoms: C_12  and  N_13
REMARK    6  A    between atoms: N_13  and  C_14
REMARK    7  A    between atoms: N_21  and  C_22
REMARK    8  A    between atoms: C_22  and  C_23
REMARK    9  A    between atoms: C_23  and  N_24
REMARK                            x       y       z     vdW  Elec       q    Type
REMARK                         _______ _______ _______ _____ _____    ______ ____
ROOT
ATOM      1  C   UNL     1       4.749   6.675  16.523  0.00  0.00    +0.000 C 
ATOM      2  O   UNL     1       4.929   7.350  15.517  0.00  0.00    +0.000 OA
ENDROOT
BRANCH   1   3
ATOM      3  C   UNL     1       5.849   5.951  17.218  0.00  0.00    +0.000 A 
ATOM      4  C   UNL     1       5.692   5.755  18.603  0.00  0.00    +0.000 A 
ATOM      5  C   UNL     1       6.657   5.069  19.333  0.00  0.00    +0.000 A 
ATOM      6  C   UNL     1       7.753   4.589  18.653  0.00  0.00    +0.000 A 
ATOM      7  N   UNL     1       7.943   4.782  17.333  0.00  0.00    +0.000 NA
ATOM      8  C   UNL     1       7.016   5.469  16.609  0.00  0.00    +0.000 A 
BRANCH   8   9
ATOM      9  N   UNL     1       7.322   5.723  15.258  0.00  0.00    +0.000 N 
ATOM     10  H   UNL     1       7.317   6.715  15.035  0.00  0.00    +0.000 HD
BRANCH   9  11
ATOM     11  C   UNL     1       6.958   4.907  14.164  0.00  0.00    +0.000 A 
ATOM     12  C   UNL     1       5.845   4.056  14.238  0.00  0.00    +0.000 A 
ATOM     13  C   UNL     1       5.439   3.306  13.135  0.00  0.00    +0.000 A 
ATOM     14  C   UNL     1       6.145   3.390  11.936  0.00  0.00    +0.000 A 
ATOM     15  C   UNL     1       7.269   4.212  11.851  0.00  0.00    +0.000 A 
ATOM     16  C   UNL     1       7.669   4.954  12.961  0.00  0.00    +0.000 A 
ATOM     17  F   UNL     1       8.744   5.754  12.856  0.00  0.00    +0.000 F 
ENDBRANCH   9  11
ENDBRANCH   8   9
ENDBRANCH   1   3
BRANCH   1  18
ATOM     18  O   UNL     1       3.558   6.541  17.148  0.00  0.00    +0.000 OA
BRANCH  18  19
ATOM     19  C   UNL     1       3.099   7.690  17.859  0.00  0.00    +0.000 C 
BRANCH  19  21
ATOM     20  O   UNL     1       1.806   8.275  19.821  0.00  0.00    +0.000 OA
ATOM     21  C   UNL     1       2.324   7.391  19.148  0.00  0.00    +0.000 C 
ATOM     22  N   UNL     1       2.239   6.053  19.467  0.00  0.00    +0.000 N 
ATOM     23  H   UNL     1       2.871   5.414  18.983  0.00  0.00    +0.000 HD
BRANCH  22  24
ATOM     24  C   UNL     1       1.553   5.587  20.659  0.00  0.00    +0.000 C 
BRANCH  24  25
ATOM     25  C   UNL     1       1.146   4.110  20.562  0.00  0.00    +0.000 C 
BRANCH  25  26
ATOM     26  N   UNL     1       2.107   3.318  19.809  0.00  0.00    +0.000 N 
ATOM     27  C   UNL     1       3.083   2.583  20.435  0.00  0.00    +0.000 C 
ATOM     28  O   UNL     1       3.240   2.523  21.653  0.00  0.00    +0.000 OA
ATOM     29  C   UNL     1       3.952   1.836  19.465  0.00  0.00    +0.000 C 
ATOM     30  S   UNL     1       3.265   2.153  17.829  0.00  0.00    +0.000 S 
ATOM     31  C   UNL     1       2.002   3.188  18.452  0.00  0.00    +0.000 C 
ATOM     32  O   UNL     1       1.156   3.686  17.731  0.00  0.00    +0.000 OA
ENDBRANCH  25  26
ENDBRANCH  24  25
ENDBRANCH  22  24
ENDBRANCH  19  21
ENDBRANCH  18  19
ENDBRANCH   1  18
TORSDOF 9
ENDMDL
MODEL 2
REMARK VINA RESULT:      -8.1      3.664      5.973
REMARK  Name = 
REMARK  9 active torsions:
REMARK  status: ('A' for Active; 'I' for Inactive)
REMARK    1  A    between atoms: C_2  and  C_3
REMARK    2  A    between atoms: C_3  and  O_4
REMARK    3  A    between atoms: O_4  and  C_5
REMARK    4  A    between atoms: C_5  and  C_7
REMARK    5  A    between atoms: C_12  and  N_13
REMARK    6  A    between atoms: N_13  and  C_14
REMARK    7  A    between atoms: N_21  and  C_22
REMARK    8  A    between atoms: C_22  and  C_23
REMARK    9  A    between atoms: C_23  and  N_24
REMARK                            x       y       z     vdW  Elec       q    Type
REMARK                         _______ _______ _______ _____ _____    ______ ____
ROOT
ATOM      1  C   UNL     1       1.861   4.181  17.752  0.00  0.00    +0.000 C 
ATOM      2  O   UNL     1       1.850   3.526  16.717  0.00  0.00    +0.000 OA
ENDROOT
BRANCH   1   3
ATOM      3  C   UNL     1       2.273   3.612  19.064  0.00  0.00    +0.000 A 
ATOM      4  C   UNL     1       1.358   3.757  20.124  0.00  0.00    +0.000 A 
ATOM      5  C   UNL     1       1.646   3.238  21.382  0.00  0.00    +0.000 A 
ATOM      6  C   UNL     1       2.842   2.577  21.543  0.00  0.00    +0.000 A 
ATOM      7  N   UNL     1       3.749   2.445  20.556  0.00  0.00    +0.000 NA
ATOM      8  C   UNL     1       3.489   2.966  19.324  0.00  0.00    +0.000 A 
BRANCH   8   9
ATOM      9  N   UNL     1       4.518   2.881  18.365  0.00  0.00    +0.000 N 
ATOM     10  H   UNL     1       5.127   2.080  18.515  0.00  0.00    +0.000 HD
BRANCH   9  11
ATOM     11  C   UNL     1       5.177   3.976  17.766  0.00  0.00    +0.000 A 
ATOM     12  C   UNL     1       5.144   4.165  16.377  0.00  0.00    +0.000 A 
ATOM     13  C   UNL     1       5.730   5.286  15.789  0.00  0.00    +0.000 A 
ATOM     14  C   UNL     1       6.367   6.238  16.584  0.00  0.00    +0.000 A 
ATOM     15  C   UNL     1       6.432   6.054  17.966  0.00  0.00    +0.000 A 
ATOM     16  C   UNL     1       5.846   4.928  18.543  0.00  0.00    +0.000 A 
ATOM     17  F   UNL     1       5.904   4.775  19.876  0.00  0.00    +0.000 F 
ENDBRANCH   9  11
ENDBRANCH   8   9
ENDBRANCH   1   3
BRANCH   1  18
ATOM     18  O   UNL     1       1.550   5.495  17.826  0.00  0.00    +0.000 OA
BRANCH  18  19
ATOM     19  C   UNL     1       2.624   6.365  18.183  0.00  0.00    +0.000 C 
BRANCH  19  21
ATOM     20  O   UNL     1       2.140   8.716  18.504  0.00  0.00    +0.000 OA
ATOM     21  C   UNL     1       2.217   7.597  18.999  0.00  0.00    +0.000 C 
ATOM     22  N   UNL     1       1.924   7.337  20.321  0.00  0.00    +0.000 N 
ATOM     23  H   UNL     1       2.219   6.436  20.698  0.00  0.00    +0.000 HD
BRANCH  22  24
ATOM     24  C   UNL     1       1.532   8.386  21.245  0.00  0.00    +0.000 C 
BRANCH  24  25
ATOM     25  C   UNL     1       0.008   8.531  21.356  0.00  0.00    +0.000 C 
BRANCH  25  26
ATOM     26  N   UNL     1      -0.412   9.922  21.444  0.00  0.00    +0.000 N 
ATOM     27  C   UNL     1      -0.427  10.596  22.640  0.00  0.00    +0.000 C 
ATOM     28  O   UNL     1      -0.100  10.110  23.720  0.00  0.00    +0.000 OA
ATOM     29  C   UNL     1      -0.884  12.019  22.492  0.00  0.00    +0.000 C 
ATOM     30  S   UNL     1      -1.139  12.283  20.728  0.00  0.00    +0.000 S 
ATOM     31  C   UNL     1      -0.702  10.642  20.318  0.00  0.00    +0.000 C 
ATOM     32  O   UNL     1      -0.659  10.249  19.166  0.00  0.00    +0.000 OA
ENDBRANCH  25  26
ENDBRANCH  24  25
ENDBRANCH  22  24
ENDBRANCH  19  21
ENDBRANCH  18  19
ENDBRANCH   1  18
TORSDOF 9
ENDMDL
MODEL 3
REMARK VINA RESULT:      -7.8      4.499      7.773
REMARK  Name = 
REMARK  9 active torsions:
REMARK  status: ('A' for Active; 'I' for Inactive)
REMARK    1  A    between atoms: C_2  and  C_3
REMARK    2  A    between atoms: C_3  and  O_4
REMARK    3  A    between atoms: O_4  and  C_5
REMARK    4  A    between atoms: C_5  and  C_7
REMARK    5  A    between atoms: C_12  and  N_13
REMARK    6  A    between atoms: N_13  and  C_14
REMARK    7  A    between atoms: N_21  and  C_22
REMARK    8  A    between atoms: C_22  and  C_23
REMARK    9  A    between atoms: C_23  and  N_24
REMARK                            x       y       z     vdW  Elec       q    Type
REMARK                         _______ _______ _______ _____ _____    ______ ____
ROOT
ATOM      1  C   UNL     1       2.069   8.916  18.129  0.00  0.00    +0.000 C 
ATOM      2  O   UNL     1       2.158   9.848  17.340  0.00  0.00    +0.000 OA
ENDROOT
BRANCH   1   3
ATOM      3  C   UNL     1       1.294   9.002  19.397  0.00  0.00    +0.000 A 
ATOM      4  C   UNL     1       1.606   8.052  20.388  0.00  0.00    +0.000 A 
ATOM      5  C   UNL     1       0.951   8.067  21.614  0.00  0.00    +0.000 A 
ATOM      6  C   UNL     1       0.003   9.043  21.821  0.00  0.00    +0.000 A 
ATOM      7  N   UNL     1      -0.335   9.950  20.884  0.00  0.00    +0.000 NA
ATOM      8  C   UNL     1       0.284   9.934  19.671  0.00  0.00    +0.000 A 
BRANCH   8   9
ATOM      9  N   UNL     1      -0.185  10.844  18.703  0.00  0.00    +0.000 N 
ATOM     10  H   UNL     1       0.191  11.781  18.832  0.00  0.00    +0.000 HD
BRANCH   9  11
ATOM     11  C   UNL     1      -1.471  10.837  18.121  0.00  0.00    +0.000 A 
ATOM     12  C   UNL     1      -1.794   9.934  17.097  0.00  0.00    +0.000 A 
ATOM     13  C   UNL     1      -3.085   9.873  16.573  0.00  0.00    +0.000 A 
ATOM     14  C   UNL     1      -4.077  10.721  17.062  0.00  0.00    +0.000 A 
ATOM     15  C   UNL     1      -3.769  11.643  18.063  0.00  0.00    +0.000 A 
ATOM     16  C   UNL     1      -2.474  11.699  18.577  0.00  0.00    +0.000 A 
ATOM     17  F   UNL     1      -2.199  12.580  19.552  0.00  0.00    +0.000 F 
ENDBRANCH   9  11
ENDBRANCH   8   9
ENDBRANCH   1   3
BRANCH   1  18
ATOM     18  O   UNL     1       2.615   7.695  17.932  0.00  0.00    +0.000 OA
BRANCH  18  19
ATOM     19  C   UNL     1       3.863   7.680  17.241  0.00  0.00    +0.000 C 
BRANCH  19  21
ATOM     20  O   UNL     1       5.499   6.012  16.600  0.00  0.00    +0.000 OA
ATOM     21  C   UNL     1       4.702   6.412  17.442  0.00  0.00    +0.000 C 
ATOM     22  N   UNL     1       4.504   5.781  18.652  0.00  0.00    +0.000 N 
ATOM     23  H   UNL     1       3.681   6.050  19.192  0.00  0.00    +0.000 HD
BRANCH  22  24
ATOM     24  C   UNL     1       5.206   4.561  19.008  0.00  0.00    +0.000 C 
BRANCH  24  25
ATOM     25  C   UNL     1       4.356   3.304  18.771  0.00  0.00    +0.000 C 
BRANCH  25  26
ATOM     26  N   UNL     1       3.148   3.290  19.582  0.00  0.00    +0.000 N 
ATOM     27  C   UNL     1       1.960   3.798  19.115  0.00  0.00    +0.000 C 
ATOM     28  O   UNL     1       1.804   4.301  18.004  0.00  0.00    +0.000 OA
ATOM     29  C   UNL     1       0.847   3.668  20.114  0.00  0.00    +0.000 C 
ATOM     30  S   UNL     1       1.537   2.779  21.521  0.00  0.00    +0.000 S 
ATOM     31  C   UNL     1       3.124   2.667  20.798  0.00  0.00    +0.000 C 
ATOM     32  O   UNL     1       4.045   2.083  21.341  0.00  0.00    +0.000 OA
ENDBRANCH  25  26
ENDBRANCH  24  25
ENDBRANCH  22  24
ENDBRANCH  19  21
ENDBRANCH  18  19
ENDBRANCH   1  18
TORSDOF 9
ENDMDL
MODEL 4
REMARK VINA RESULT:      -7.6      4.972      8.380
REMARK  Name = 
REMARK  9 active torsions:
REMARK  status: ('A' for Active; 'I' for Inactive)
REMARK    1  A    between atoms: C_2  and  C_3
REMARK    2  A    between atoms: C_3  and  O_4
REMARK    3  A    between atoms: O_4  and  C_5
REMARK    4  A    between atoms: C_5  and  C_7
REMARK    5  A    between atoms: C_12  and  N_13
REMARK    6  A    between atoms: N_13  and  C_14
REMARK    7  A    between atoms: N_21  and  C_22
REMARK    8  A    between atoms: C_22  and  C_23
REMARK    9  A    between atoms: C_23  and  N_24
REMARK                            x       y       z     vdW  Elec       q    Type
REMARK                         _______ _______ _______ _____ _____    ______ ____
ROOT
ATOM      1  C   UNL     1       4.754   5.210  16.960  0.00  0.00    +0.000 C 
ATOM      2  O   UNL     1       4.982   4.991  15.777  0.00  0.00    +0.000 OA
ENDROOT
BRANCH   1   3
ATOM      3  C   UNL     1       3.664   4.531  17.713  0.00  0.00    +0.000 A 
ATOM      4  C   UNL     1       3.230   3.292  17.205  0.00  0.00    +0.000 A 
ATOM      5  C   UNL     1       2.232   2.572  17.853  0.00  0.00    +0.000 A 
ATOM      6  C   UNL     1       1.700   3.110  19.002  0.00  0.00    +0.000 A 
ATOM      7  N   UNL     1       2.076   4.304  19.499  0.00  0.00    +0.000 NA
ATOM      8  C   UNL     1       3.038   5.029  18.864  0.00  0.00    +0.000 A 
BRANCH   8   9
ATOM      9  N   UNL     1       3.314   6.311  19.377  0.00  0.00    +0.000 N 
ATOM     10  H   UNL     1       3.877   6.282  20.224  0.00  0.00    +0.000 HD
BRANCH   9  11
ATOM     11  C   UNL     1       2.445   7.423  19.327  0.00  0.00    +0.000 A 
ATOM     12  C   UNL     1       1.667   7.780  20.438  0.00  0.00    +0.000 A 
ATOM     13  C   UNL     1       0.864   8.921  20.417  0.00  0.00    +0.000 A 
ATOM     14  C   UNL     1       0.823   9.724  19.278  0.00  0.00    +0.000 A 
ATOM     15  C   UNL     1       1.572   9.372  18.155  0.00  0.00    +0.000 A 
ATOM     16  C   UNL     1       2.367   8.227  18.185  0.00  0.00    +0.000 A 
ATOM     17  F   UNL     1       3.094   7.911  17.100  0.00  0.00    +0.000 F 
ENDBRANCH   9  11
ENDBRANCH   8   9
ENDBRANCH   1   3
BRANCH   1  18
ATOM     18  O   UNL     1       5.479   6.049  17.734  0.00  0.00    +0.000 OA
BRANCH  18  19
ATOM     19  C   UNL     1       6.541   6.737  17.074  0.00  0.00    +0.000 C 
BRANCH  19  21
ATOM     20  O   UNL     1       8.232   6.715  18.808  0.00  0.00    +0.000 OA
ATOM     21  C   UNL     1       7.580   7.374  18.004  0.00  0.00    +0.000 C 
ATOM     22  N   UNL     1       7.736   8.734  17.843  0.00  0.00    +0.000 N 
ATOM     23  H   UNL     1       7.015   9.230  17.318  0.00  0.00    +0.000 HD
BRANCH  22  24
ATOM     24  C   UNL     1       8.668   9.504  18.647  0.00  0.00    +0.000 C 
BRANCH  24  25
ATOM     25  C   UNL     1       9.422  10.557  17.824  0.00  0.00    +0.000 C 
BRANCH  25  26
ATOM     26  N   UNL     1       9.263  11.900  18.362  0.00  0.00    +0.000 N 
ATOM     27  C   UNL     1      10.095  12.388  19.340  0.00  0.00    +0.000 C 
ATOM     28  O   UNL     1      11.024  11.761  19.844  0.00  0.00    +0.000 OA
ATOM     29  C   UNL     1       9.755  13.797  19.734  0.00  0.00    +0.000 C 
ATOM     30  S   UNL     1       8.409  14.309  18.651  0.00  0.00    +0.000 S 
ATOM     31  C   UNL     1       8.348  12.767  17.832  0.00  0.00    +0.000 C 
ATOM     32  O   UNL     1       7.586  12.552  16.907  0.00  0.00    +0.000 OA
ENDBRANCH  25  26
ENDBRANCH  24  25
ENDBRANCH  22  24
ENDBRANCH  19  21
ENDBRANCH  18  19
ENDBRANCH   1  18
TORSDOF 9
ENDMDL
MODEL 5
REMARK VINA RESULT:      -7.6      3.938      6.420
REMARK  Name = 
REMARK  9 active torsions:
REMARK  status: ('A' for Active; 'I' for Inactive)
REMARK    1  A    between atoms: C_2  and  C_3
REMARK    2  A    between atoms: C_3  and  O_4
REMARK    3  A    between atoms: O_4  and  C_5
REMARK    4  A    between atoms: C_5  and  C_7
REMARK    5  A    between atoms: C_12  and  N_13
REMARK    6  A    between atoms: N_13  and  C_14
REMARK    7  A    between atoms: N_21  and  C_22
REMARK    8  A    between atoms: C_22  and  C_23
REMARK    9  A    between atoms: C_23  and  N_24
REMARK                            x       y       z     vdW  Elec       q    Type
REMARK                         _______ _______ _______ _____ _____    ______ ____
ROOT
ATOM      1  C   UNL     1       3.896   5.062  17.185  0.00  0.00    +0.000 C 
ATOM      2  O   UNL     1       3.707   4.146  16.396  0.00  0.00    +0.000 OA
ENDROOT
BRANCH   1   3
ATOM      3  C   UNL     1       5.200   5.287  17.867  0.00  0.00    +0.000 A 
ATOM      4  C   UNL     1       5.894   6.462  17.520  0.00  0.00    +0.000 A 
ATOM      5  C   UNL     1       7.111   6.768  18.121  0.00  0.00    +0.000 A 
ATOM      6  C   UNL     1       7.597   5.891  19.063  0.00  0.00    +0.000 A 
ATOM      7  N   UNL     1       6.970   4.747  19.398  0.00  0.00    +0.000 NA
ATOM      8  C   UNL     1       5.788   4.424  18.803  0.00  0.00    +0.000 A 
BRANCH   8   9
ATOM      9  N   UNL     1       5.234   3.169  19.122  0.00  0.00    +0.000 N 
ATOM     10  H   UNL     1       5.518   2.439  18.474  0.00  0.00    +0.000 HD
BRANCH   9  11
ATOM     11  C   UNL     1       3.953   2.951  19.676  0.00  0.00    +0.000 A 
ATOM     12  C   UNL     1       3.570   3.574  20.874  0.00  0.00    +0.000 A 
ATOM     13  C   UNL     1       2.281   3.420  21.383  0.00  0.00    +0.000 A 
ATOM     14  C   UNL     1       1.351   2.635  20.704  0.00  0.00    +0.000 A 
ATOM     15  C   UNL     1       1.721   1.988  19.525  0.00  0.00    +0.000 A 
ATOM     16  C   UNL     1       3.014   2.144  19.026  0.00  0.00    +0.000 A 
ATOM     17  F   UNL     1       3.348   1.528  17.880  0.00  0.00    +0.000 F 
ENDBRANCH   9  11
ENDBRANCH   8   9
ENDBRANCH   1   3
BRANCH   1  18
ATOM     18  O   UNL     1       2.974   6.000  17.500  0.00  0.00    +0.000 OA
BRANCH  18  19
ATOM     19  C   UNL     1       2.588   6.052  18.873  0.00  0.00    +0.000 C 
BRANCH  19  21
ATOM     20  O   UNL     1       2.295   8.449  18.691  0.00  0.00    +0.000 OA
ATOM     21  C   UNL     1       2.209   7.445  19.389  0.00  0.00    +0.000 C 
ATOM     22  N   UNL     1       1.741   7.467  20.686  0.00  0.00    +0.000 N 
ATOM     23  H   UNL     1       1.904   6.636  21.257  0.00  0.00    +0.000 HD
BRANCH  22  24
ATOM     24  C   UNL     1       1.346   8.700  21.342  0.00  0.00    +0.000 C 
BRANCH  24  25
ATOM     25  C   UNL     1      -0.176   8.893  21.361  0.00  0.00    +0.000 C 
BRANCH  25  26
ATOM     26  N   UNL     1      -0.563  10.277  21.128  0.00  0.00    +0.000 N 
ATOM     27  C   UNL     1      -0.640  11.186  22.155  0.00  0.00    +0.000 C 
ATOM     28  O   UNL     1      -0.400  10.931  23.334  0.00  0.00    +0.000 OA
ATOM     29  C   UNL     1      -1.046  12.553  21.684  0.00  0.00    +0.000 C 
ATOM     30  S   UNL     1      -1.172  12.447  19.890  0.00  0.00    +0.000 S 
ATOM     31  C   UNL     1      -0.755  10.751  19.861  0.00  0.00    +0.000 C 
ATOM     32  O   UNL     1      -0.646  10.126  18.821  0.00  0.00    +0.000 OA
ENDBRANCH  25  26
ENDBRANCH  24  25
ENDBRANCH  22  24
ENDBRANCH  19  21
ENDBRANCH  18  19
ENDBRANCH   1  18
TORSDOF 9
ENDMDL
MODEL 6
REMARK VINA RESULT:      -7.6      3.922      6.734
REMARK  Name = 
REMARK  9 active torsions:
REMARK  status: ('A' for Active; 'I' for Inactive)
REMARK    1  A    between atoms: C_2  and  C_3
REMARK    2  A    between atoms: C_3  and  O_4
REMARK    3  A    between atoms: O_4  and  C_5
REMARK    4  A    between atoms: C_5  and  C_7
REMARK    5  A    between atoms: C_12  and  N_13
REMARK    6  A    between atoms: N_13  and  C_14
REMARK    7  A    between atoms: N_21  and  C_22
REMARK    8  A    between atoms: C_22  and  C_23
REMARK    9  A    between atoms: C_23  and  N_24
REMARK                            x       y       z     vdW  Elec       q    Type
REMARK                         _______ _______ _______ _____ _____    ______ ____
ROOT
ATOM      1  C   UNL     1       4.398   5.152  16.918  0.00  0.00    +0.000 C 
ATOM      2  O   UNL     1       4.415   4.395  15.955  0.00  0.00    +0.000 OA
ENDROOT
BRANCH   1   3
ATOM      3  C   UNL     1       5.592   5.398  17.773  0.00  0.00    +0.000 A 
ATOM      4  C   UNL     1       6.459   6.427  17.357  0.00  0.00    +0.000 A 
ATOM      5  C   UNL     1       7.588   6.745  18.104  0.00  0.00    +0.000 A 
ATOM      6  C   UNL     1       7.816   6.028  19.256  0.00  0.00    +0.000 A 
ATOM      7  N   UNL     1       7.020   5.022  19.666  0.00  0.00    +0.000 NA
ATOM      8  C   UNL     1       5.921   4.686  18.934  0.00  0.00    +0.000 A 
BRANCH   8   9
ATOM      9  N   UNL     1       5.188   3.562  19.362  0.00  0.00    +0.000 N 
ATOM     10  H   UNL     1       5.543   2.691  18.975  0.00  0.00    +0.000 HD
BRANCH   9  11
ATOM     11  C   UNL     1       3.798   3.532  19.612  0.00  0.00    +0.000 A 
ATOM     12  C   UNL     1       3.193   4.490  20.439  0.00  0.00    +0.000 A 
ATOM     13  C   UNL     1       1.811   4.508  20.626  0.00  0.00    +0.000 A 
ATOM     14  C   UNL     1       1.008   3.562  19.991  0.00  0.00    +0.000 A 
ATOM     15  C   UNL     1       1.594   2.586  19.185  0.00  0.00    +0.000 A 
ATOM     16  C   UNL     1       2.977   2.574  19.007  0.00  0.00    +0.000 A 
ATOM     17  F   UNL     1       3.524   1.638  18.214  0.00  0.00    +0.000 F 
ENDBRANCH   9  11
ENDBRANCH   8   9
ENDBRANCH   1   3
BRANCH   1  18
ATOM     18  O   UNL     1       3.326   5.884  17.295  0.00  0.00    +0.000 OA
BRANCH  18  19
ATOM     19  C   UNL     1       3.588   7.254  17.594  0.00  0.00    +0.000 C 
BRANCH  19  21
ATOM     20  O   UNL     1       2.218   7.693  19.543  0.00  0.00    +0.000 OA
ATOM     21  C   UNL     1       2.481   7.971  18.378  0.00  0.00    +0.000 C 
ATOM     22  N   UNL     1       1.832   8.963  17.675  0.00  0.00    +0.000 N 
ATOM     23  H   UNL     1       1.961   8.981  16.663  0.00  0.00    +0.000 HD
BRANCH  22  24
ATOM     24  C   UNL     1       0.750   9.737  18.256  0.00  0.00    +0.000 C 
BRANCH  24  25
ATOM     25  C   UNL     1       1.236  11.059  18.867  0.00  0.00    +0.000 C 
BRANCH  25  26
ATOM     26  N   UNL     1       0.319  11.577  19.871  0.00  0.00    +0.000 N 
ATOM     27  C   UNL     1      -0.739  12.384  19.531  0.00  0.00    +0.000 C 
ATOM     28  O   UNL     1      -1.008  12.740  18.386  0.00  0.00    +0.000 OA
ATOM     29  C   UNL     1      -1.557  12.791  20.724  0.00  0.00    +0.000 C 
ATOM     30  S   UNL     1      -0.838  11.939  22.139  0.00  0.00    +0.000 S 
ATOM     31  C   UNL     1       0.412  11.187  21.178  0.00  0.00    +0.000 C 
ATOM     32  O   UNL     1       1.221  10.412  21.655  0.00  0.00    +0.000 OA
ENDBRANCH  25  26
ENDBRANCH  24  25
ENDBRANCH  22  24
ENDBRANCH  19  21
ENDBRANCH  18  19
ENDBRANCH   1  18
TORSDOF 9
ENDMDL
MODEL 7
REMARK VINA RESULT:      -7.5      4.273      7.722
REMARK  Name = 
REMARK  9 active torsions:
REMARK  status: ('A' for Active; 'I' for Inactive)
REMARK    1  A    between atoms: C_2  and  C_3
REMARK    2  A    between atoms: C_3  and  O_4
REMARK    3  A    between atoms: O_4  and  C_5
REMARK    4  A    between atoms: C_5  and  C_7
REMARK    5  A    between atoms: C_12  and  N_13
REMARK    6  A    between atoms: N_13  and  C_14
REMARK    7  A    between atoms: N_21  and  C_22
REMARK    8  A    between atoms: C_22  and  C_23
REMARK    9  A    between atoms: C_23  and  N_24
REMARK                            x       y       z     vdW  Elec       q    Type
REMARK                         _______ _______ _______ _____ _____    ______ ____
ROOT
ATOM      1  C   UNL     1       1.852   8.947  18.364  0.00  0.00    +0.000 C 
ATOM      2  O   UNL     1       1.908   9.774  17.462  0.00  0.00    +0.000 OA
ENDROOT
BRANCH   1   3
ATOM      3  C   UNL     1       1.152   9.202  19.652  0.00  0.00    +0.000 A 
ATOM      4  C   UNL     1       1.513   8.378  20.735  0.00  0.00    +0.000 A 
ATOM      5  C   UNL     1       0.930   8.556  21.985  0.00  0.00    +0.000 A 
ATOM      6  C   UNL     1       0.003   9.564  22.120  0.00  0.00    +0.000 A 
ATOM      7  N   UNL     1      -0.382  10.352  21.098  0.00  0.00    +0.000 NA
ATOM      8  C   UNL     1       0.166  10.176  19.864  0.00  0.00    +0.000 A 
BRANCH   8   9
ATOM      9  N   UNL     1      -0.351  10.964  18.817  0.00  0.00    +0.000 N 
ATOM     10  H   UNL     1       0.047  11.900  18.798  0.00  0.00    +0.000 HD
BRANCH   9  11
ATOM     11  C   UNL     1      -1.673  10.913  18.323  0.00  0.00    +0.000 A 
ATOM     12  C   UNL     1      -2.668  11.757  18.837  0.00  0.00    +0.000 A 
ATOM     13  C   UNL     1      -3.955  11.762  18.300  0.00  0.00    +0.000 A 
ATOM     14  C   UNL     1      -4.271  10.915  17.239  0.00  0.00    +0.000 A 
ATOM     15  C   UNL     1      -3.302  10.050  16.731  0.00  0.00    +0.000 A 
ATOM     16  C   UNL     1      -2.019  10.051  17.277  0.00  0.00    +0.000 A 
ATOM     17  F   UNL     1      -1.093   9.224  16.765  0.00  0.00    +0.000 F 
ENDBRANCH   9  11
ENDBRANCH   8   9
ENDBRANCH   1   3
BRANCH   1  18
ATOM     18  O   UNL     1       2.370   7.700  18.288  0.00  0.00    +0.000 OA
BRANCH  18  19
ATOM     19  C   UNL     1       3.368   7.505  17.287  0.00  0.00    +0.000 C 
BRANCH  19  21
ATOM     20  O   UNL     1       5.549   6.480  17.046  0.00  0.00    +0.000 OA
ATOM     21  C   UNL     1       4.499   6.545  17.676  0.00  0.00    +0.000 C 
ATOM     22  N   UNL     1       4.245   5.786  18.799  0.00  0.00    +0.000 N 
ATOM     23  H   UNL     1       3.280   5.744  19.128  0.00  0.00    +0.000 HD
BRANCH  22  24
ATOM     24  C   UNL     1       5.200   4.816  19.305  0.00  0.00    +0.000 C 
BRANCH  24  25
ATOM     25  C   UNL     1       4.751   3.369  19.061  0.00  0.00    +0.000 C 
BRANCH  25  26
ATOM     26  N   UNL     1       3.316   3.195  19.238  0.00  0.00    +0.000 N 
ATOM     27  C   UNL     1       2.443   3.292  18.183  0.00  0.00    +0.000 C 
ATOM     28  O   UNL     1       2.772   3.529  17.023  0.00  0.00    +0.000 OA
ATOM     29  C   UNL     1       1.017   3.066  18.595  0.00  0.00    +0.000 C 
ATOM     30  S   UNL     1       1.060   2.652  20.348  0.00  0.00    +0.000 S 
ATOM     31  C   UNL     1       2.797   2.817  20.445  0.00  0.00    +0.000 C 
ATOM     32  O   UNL     1       3.415   2.595  21.471  0.00  0.00    +0.000 OA
ENDBRANCH  25  26
ENDBRANCH  24  25
ENDBRANCH  22  24
ENDBRANCH  19  21
ENDBRANCH  18  19
ENDBRANCH   1  18
TORSDOF 9
ENDMDL
MODEL 8
REMARK VINA RESULT:      -7.5      3.710      6.191
REMARK  Name = 
REMARK  9 active torsions:
REMARK  status: ('A' for Active; 'I' for Inactive)
REMARK    1  A    between atoms: C_2  and  C_3
REMARK    2  A    between atoms: C_3  and  O_4
REMARK    3  A    between atoms: O_4  and  C_5
REMARK    4  A    between atoms: C_5  and  C_7
REMARK    5  A    between atoms: C_12  and  N_13
REMARK    6  A    between atoms: N_13  and  C_14
REMARK    7  A    between atoms: N_21  and  C_22
REMARK    8  A    between atoms: C_22  and  C_23
REMARK    9  A    between atoms: C_23  and  N_24
REMARK                            x       y       z     vdW  Elec       q    Type
REMARK                         _______ _______ _______ _____ _____    ______ ____
ROOT
ATOM      1  C   UNL     1       2.171   4.097  17.769  0.00  0.00    +0.000 C 
ATOM      2  O   UNL     1       2.155   3.574  16.662  0.00  0.00    +0.000 OA
ENDROOT
BRANCH   1   3
ATOM      3  C   UNL     1       2.773   3.443  18.963  0.00  0.00    +0.000 A 
ATOM      4  C   UNL     1       1.928   3.268  20.075  0.00  0.00    +0.000 A 
ATOM      5  C   UNL     1       2.395   2.646  21.228  0.00  0.00    +0.000 A 
ATOM      6  C   UNL     1       3.700   2.207  21.234  0.00  0.00    +0.000 A 
ATOM      7  N   UNL     1       4.540   2.383  20.196  0.00  0.00    +0.000 NA
ATOM      8  C   UNL     1       4.102   3.008  19.068  0.00  0.00    +0.000 A 
BRANCH   8   9
ATOM      9  N   UNL     1       5.056   3.249  18.060  0.00  0.00    +0.000 N 
ATOM     10  H   UNL     1       5.594   2.419  17.823  0.00  0.00    +0.000 HD
BRANCH   9  11
ATOM     11  C   UNL     1       5.778   4.449  17.880  0.00  0.00    +0.000 A 
ATOM     12  C   UNL     1       6.610   4.949  18.893  0.00  0.00    +0.000 A 
ATOM     13  C   UNL     1       7.382   6.093  18.691  0.00  0.00    +0.000 A 
ATOM     14  C   UNL     1       7.331   6.761  17.468  0.00  0.00    +0.000 A 
ATOM     15  C   UNL     1       6.491   6.293  16.457  0.00  0.00    +0.000 A 
ATOM     16  C   UNL     1       5.720   5.152  16.671  0.00  0.00    +0.000 A 
ATOM     17  F   UNL     1       4.930   4.705  15.681  0.00  0.00    +0.000 F 
ENDBRANCH   9  11
ENDBRANCH   8   9
ENDBRANCH   1   3
BRANCH   1  18
ATOM     18  O   UNL     1       1.693   5.333  18.036  0.00  0.00    +0.000 OA
BRANCH  18  19
ATOM     19  C   UNL     1       2.658   6.384  18.027  0.00  0.00    +0.000 C 
BRANCH  19  21
ATOM     20  O   UNL     1       2.105   7.780  19.928  0.00  0.00    +0.000 OA
ATOM     21  C   UNL     1       2.212   7.683  18.710  0.00  0.00    +0.000 C 
ATOM     22  N   UNL     1       1.968   8.729  17.846  0.00  0.00    +0.000 N 
ATOM     23  H   UNL     1       1.870   8.506  16.855  0.00  0.00    +0.000 HD
BRANCH  22  24
ATOM     24  C   UNL     1       1.526  10.030  18.316  0.00  0.00    +0.000 C 
BRANCH  24  25
ATOM     25  C   UNL     1      -0.003  10.136  18.399  0.00  0.00    +0.000 C 
BRANCH  25  26
ATOM     26  N   UNL     1      -0.440  11.092  19.405  0.00  0.00    +0.000 N 
ATOM     27  C   UNL     1      -0.517  10.754  20.735  0.00  0.00    +0.000 C 
ATOM     28  O   UNL     1      -0.236   9.648  21.192  0.00  0.00    +0.000 OA
ATOM     29  C   UNL     1      -0.979  11.897  21.592  0.00  0.00    +0.000 C 
ATOM     30  S   UNL     1      -1.154  13.312  20.490  0.00  0.00    +0.000 S 
ATOM     31  C   UNL     1      -0.684  12.396  19.078  0.00  0.00    +0.000 C 
ATOM     32  O   UNL     1      -0.584  12.906  17.977  0.00  0.00    +0.000 OA
ENDBRANCH  25  26
ENDBRANCH  24  25
ENDBRANCH  22  24
ENDBRANCH  19  21
ENDBRANCH  18  19
ENDBRANCH   1  18
TORSDOF 9
ENDMDL
MODEL 9
REMARK VINA RESULT:      -7.5      3.960      6.454
REMARK  Name = 
REMARK  9 active torsions:
REMARK  status: ('A' for Active; 'I' for Inactive)
REMARK    1  A    between atoms: C_2  and  C_3
REMARK    2  A    between atoms: C_3  and  O_4
REMARK    3  A    between atoms: O_4  and  C_5
REMARK    4  A    between atoms: C_5  and  C_7
REMARK    5  A    between atoms: C_12  and  N_13
REMARK    6  A    between atoms: N_13  and  C_14
REMARK    7  A    between atoms: N_21  and  C_22
REMARK    8  A    between atoms: C_22  and  C_23
REMARK    9  A    between atoms: C_23  and  N_24
REMARK                            x       y       z     vdW  Elec       q    Type
REMARK                         _______ _______ _______ _____ _____    ______ ____
ROOT
ATOM      1  C   UNL     1       4.798   5.946  16.493  0.00  0.00    +0.000 C 
ATOM      2  O   UNL     1       4.993   5.640  15.324  0.00  0.00    +0.000 OA
ENDROOT
BRANCH   1   3
ATOM      3  C   UNL     1       5.845   5.830  17.545  0.00  0.00    +0.000 A 
ATOM      4  C   UNL     1       6.873   6.791  17.515  0.00  0.00    +0.000 A 
ATOM      5  C   UNL     1       7.883   6.777  18.471  0.00  0.00    +0.000 A 
ATOM      6  C   UNL     1       7.832   5.802  19.440  0.00  0.00    +0.000 A 
ATOM      7  N   UNL     1       6.877   4.853  19.481  0.00  0.00    +0.000 NA
ATOM      8  C   UNL     1       5.892   4.843  18.540  0.00  0.00    +0.000 A 
BRANCH   8   9
ATOM      9  N   UNL     1       4.983   3.768  18.579  0.00  0.00    +0.000 N 
ATOM     10  H   UNL     1       4.966   3.237  17.712  0.00  0.00    +0.000 HD
BRANCH   9  11
ATOM     11  C   UNL     1       3.744   3.763  19.256  0.00  0.00    +0.000 A 
ATOM     12  C   UNL     1       3.379   4.821  20.101  0.00  0.00    +0.000 A 
ATOM     13  C   UNL     1       2.125   4.855  20.712  0.00  0.00    +0.000 A 
ATOM     14  C   UNL     1       1.214   3.824  20.491  0.00  0.00    +0.000 A 
ATOM     15  C   UNL     1       1.568   2.750  19.674  0.00  0.00    +0.000 A 
ATOM     16  C   UNL     1       2.825   2.724  19.072  0.00  0.00    +0.000 A 
ATOM     17  F   UNL     1       3.143   1.691  18.274  0.00  0.00    +0.000 F 
ENDBRANCH   9  11
ENDBRANCH   8   9
ENDBRANCH   1   3
BRANCH   1  18
ATOM     18  O   UNL     1       3.640   6.462  16.964  0.00  0.00    +0.000 OA
BRANCH  18  19
ATOM     19  C   UNL     1       3.775   7.545  17.883  0.00  0.00    +0.000 C 
BRANCH  19  21
ATOM     20  O   UNL     1       1.857   8.897  17.282  0.00  0.00    +0.000 OA
ATOM     21  C   UNL     1       2.484   8.322  18.166  0.00  0.00    +0.000 C 
ATOM     22  N   UNL     1       2.078   8.298  19.483  0.00  0.00    +0.000 N 
ATOM     23  H   UNL     1       2.758   7.988  20.178  0.00  0.00    +0.000 HD
BRANCH  22  24
ATOM     24  C   UNL     1       0.883   8.989  19.934  0.00  0.00    +0.000 C 
BRANCH  24  25
ATOM     25  C   UNL     1       1.186  10.044  21.008  0.00  0.00    +0.000 C 
BRANCH  25  26
ATOM     26  N   UNL     1      -0.006  10.769  21.425  0.00  0.00    +0.000 N 
ATOM     27  C   UNL     1      -0.495  10.675  22.705  0.00  0.00    +0.000 C 
ATOM     28  O   UNL     1       0.005   9.991  23.595  0.00  0.00    +0.000 OA
ATOM     29  C   UNL     1      -1.722  11.515  22.914  0.00  0.00    +0.000 C 
ATOM     30  S   UNL     1      -1.992  12.401  21.369  0.00  0.00    +0.000 S 
ATOM     31  C   UNL     1      -0.617  11.659  20.587  0.00  0.00    +0.000 C 
ATOM     32  O   UNL     1      -0.281  11.946  19.452  0.00  0.00    +0.000 OA
ENDBRANCH  25  26
ENDBRANCH  24  25
ENDBRANCH  22  24
ENDBRANCH  19  21
ENDBRANCH  18  19
ENDBRANCH   1  18
TORSDOF 9
ENDMDL
