MODEL 1
REMARK VINA RESULT:      -6.5      0.000      0.000
REMARK  Name = 
REMARK  9 active torsions:
REMARK  status: ('A' for Active; 'I' for Inactive)
REMARK    1  A    between atoms: C_1  and  C_2
REMARK    2  A    between atoms: C_2  and  C_3
REMARK    3  A    between atoms: C_2  and  C_5
REMARK    4  A    between atoms: C_3  and  S_4
REMARK    5  A    between atoms: N_7  and  CA_8
REMARK    6  A    between atoms: CA_8  and  C_9
REMARK    7  A    between atoms: CA_8  and  C_12
REMARK    8  A    between atoms: C_9  and  OXT_11
REMARK    9  A    between atoms: C_15  and  O_16
REMARK                            x       y       z     vdW  Elec       q    Type
REMARK                         _______ _______ _______ _____ _____    ______ ____
ROOT
ATOM      1  CA  UNL     1       5.156   4.737  17.345  0.00  0.00    +0.000 C 
ENDROOT
BRANCH   1   2
ATOM      2  C   UNL     1       3.852   4.074  17.767  0.00  0.00    +0.000 A 
ATOM      3  C   UNL     1       3.771   2.672  17.804  0.00  0.00    +0.000 A 
ATOM      4  C   UNL     1       2.573   2.032  18.130  0.00  0.00    +0.000 A 
ATOM      5  C   UNL     1       1.450   2.796  18.430  0.00  0.00    +0.000 A 
ATOM      6  C   UNL     1       1.512   4.183  18.425  0.00  0.00    +0.000 A 
ATOM      7  C   UNL     1       2.713   4.824  18.105  0.00  0.00    +0.000 A 
BRANCH   5   8
ATOM      8  O   UNL     1       0.259   2.211  18.738  0.00  0.00    +0.000 OA
ATOM      9  H   UNL     1      -0.099   1.792  17.936  0.00  0.00    +0.000 HD
ENDBRANCH   5   8
ENDBRANCH   1   2
BRANCH   1  12
ATOM     10  C   UNL     1       5.858   4.919  14.982  0.00  0.00    +0.000 C 
ATOM     11  O   UNL     1       5.610   6.120  14.958  0.00  0.00    +0.000 OA
ATOM     12  N   UNL     1       5.655   4.149  16.107  0.00  0.00    +0.000 N 
ATOM     13  H   UNL     1       6.130   3.258  16.189  0.00  0.00    +0.000 HD
BRANCH  10  15
ATOM     14  C   UNL     1       7.526   4.984  13.078  0.00  0.00    +0.000 C 
ATOM     15  C   UNL     1       6.446   4.160  13.790  0.00  0.00    +0.000 C 
BRANCH  15  16
ATOM     16  C   UNL     1       5.364   3.674  12.814  0.00  0.00    +0.000 C 
BRANCH  16  17
ATOM     17  S   UNL     1       5.892   2.376  11.651  0.00  0.00    +0.000 S 
ATOM     18  H   UNL     1       6.299   3.190  10.666  0.00  0.00    +0.000 HD
ENDBRANCH  16  17
ENDBRANCH  15  16
ENDBRANCH  10  15
ENDBRANCH   1  12
BRANCH   1  19
ATOM     19  C   UNL     1       6.258   4.683  18.425  0.00  0.00    +0.000 C 
ATOM     20  O   UNL     1       6.073   5.017  19.590  0.00  0.00    +0.000 OA
BRANCH  19  21
ATOM     21  OXT UNL     1       7.455   4.195  18.016  0.00  0.00    +0.000 OA
ATOM     22  HXT UNL     1       7.558   3.226  18.121  0.00  0.00    +0.000 HD
ENDBRANCH  19  21
ENDBRANCH   1  19
TORSDOF 8
ENDMDL
MODEL 2
REMARK VINA RESULT:      -6.4      0.136      1.142
REMARK  Name = 
REMARK  9 active torsions:
REMARK  status: ('A' for Active; 'I' for Inactive)
REMARK    1  A    between atoms: C_1  and  C_2
REMARK    2  A    between atoms: C_2  and  C_3
REMARK    3  A    between atoms: C_2  and  C_5
REMARK    4  A    between atoms: C_3  and  S_4
REMARK    5  A    between atoms: N_7  and  CA_8
REMARK    6  A    between atoms: CA_8  and  C_9
REMARK    7  A    between atoms: CA_8  and  C_12
REMARK    8  A    between atoms: C_9  and  OXT_11
REMARK    9  A    between atoms: C_15  and  O_16
REMARK                            x       y       z     vdW  Elec       q    Type
REMARK                         _______ _______ _______ _____ _____    ______ ____
ROOT
ATOM      1  CA  UNL     1       5.190   4.688  17.292  0.00  0.00    +0.000 C 
ENDROOT
BRANCH   1   2
ATOM      2  C   UNL     1       3.871   4.017  17.649  0.00  0.00    +0.000 A 
ATOM      3  C   UNL     1       2.719   4.803  17.811  0.00  0.00    +0.000 A 
ATOM      4  C   UNL     1       1.506   4.226  18.197  0.00  0.00    +0.000 A 
ATOM      5  C   UNL     1       1.440   2.854  18.411  0.00  0.00    +0.000 A 
ATOM      6  C   UNL     1       2.560   2.052  18.232  0.00  0.00    +0.000 A 
ATOM      7  C   UNL     1       3.773   2.628  17.841  0.00  0.00    +0.000 A 
BRANCH   5   8
ATOM      8  O   UNL     1       0.282   2.253  18.803  0.00  0.00    +0.000 OA
ATOM      9  H   UNL     1       0.481   1.635  19.526  0.00  0.00    +0.000 HD
ENDBRANCH   5   8
ENDBRANCH   1   2
BRANCH   1  12
ATOM     10  C   UNL     1       5.886   4.892  14.929  0.00  0.00    +0.000 C 
ATOM     11  O   UNL     1       5.545   6.070  14.888  0.00  0.00    +0.000 OA
ATOM     12  N   UNL     1       5.739   4.124  16.063  0.00  0.00    +0.000 N 
ATOM     13  H   UNL     1       6.281   3.274  16.159  0.00  0.00    +0.000 HD
BRANCH  10  15
ATOM     14  C   UNL     1       7.596   5.040  13.068  0.00  0.00    +0.000 C 
ATOM     15  C   UNL     1       6.536   4.166  13.748  0.00  0.00    +0.000 C 
BRANCH  15  16
ATOM     16  C   UNL     1       5.500   3.639  12.743  0.00  0.00    +0.000 C 
BRANCH  16  17
ATOM     17  S   UNL     1       6.089   2.309  11.647  0.00  0.00    +0.000 S 
ATOM     18  H   UNL     1       7.378   2.350  12.011  0.00  0.00    +0.000 HD
ENDBRANCH  16  17
ENDBRANCH  15  16
ENDBRANCH  10  15
ENDBRANCH   1  12
BRANCH   1  19
ATOM     19  C   UNL     1       6.249   4.613  18.413  0.00  0.00    +0.000 C 
ATOM     20  O   UNL     1       6.004   4.874  19.586  0.00  0.00    +0.000 OA
BRANCH  19  21
ATOM     21  OXT UNL     1       7.479   4.190  18.030  0.00  0.00    +0.000 OA
ATOM     22  HXT UNL     1       7.858   3.480  18.587  0.00  0.00    +0.000 HD
ENDBRANCH  19  21
ENDBRANCH   1  19
TORSDOF 8
ENDMDL
MODEL 3
REMARK VINA RESULT:      -6.1      3.309      6.139
REMARK  Name = 
REMARK  9 active torsions:
REMARK  status: ('A' for Active; 'I' for Inactive)
REMARK    1  A    between atoms: C_1  and  C_2
REMARK    2  A    between atoms: C_2  and  C_3
REMARK    3  A    between atoms: C_2  and  C_5
REMARK    4  A    between atoms: C_3  and  S_4
REMARK    5  A    between atoms: N_7  and  CA_8
REMARK    6  A    between atoms: CA_8  and  C_9
REMARK    7  A    between atoms: CA_8  and  C_12
REMARK    8  A    between atoms: C_9  and  OXT_11
REMARK    9  A    between atoms: C_15  and  O_16
REMARK                            x       y       z     vdW  Elec       q    Type
REMARK                         _______ _______ _______ _____ _____    ______ ____
ROOT
ATOM      1  CA  UNL     1       5.883   5.017  16.117  0.00  0.00    +0.000 C 
ENDROOT
BRANCH   1   2
ATOM      2  C   UNL     1       6.680   5.958  17.009  0.00  0.00    +0.000 A 
ATOM      3  C   UNL     1       6.708   7.331  16.713  0.00  0.00    +0.000 A 
ATOM      4  C   UNL     1       7.477   8.213  17.476  0.00  0.00    +0.000 A 
ATOM      5  C   UNL     1       8.214   7.724  18.549  0.00  0.00    +0.000 A 
ATOM      6  C   UNL     1       8.182   6.375  18.877  0.00  0.00    +0.000 A 
ATOM      7  C   UNL     1       7.408   5.493  18.117  0.00  0.00    +0.000 A 
BRANCH   5   8
ATOM      8  O   UNL     1       8.989   8.547  19.309  0.00  0.00    +0.000 OA
ATOM      9  H   UNL     1       9.638   8.007  19.791  0.00  0.00    +0.000 HD
ENDBRANCH   5   8
ENDBRANCH   1   2
BRANCH   1  12
ATOM     10  C   UNL     1       4.174   3.856  17.474  0.00  0.00    +0.000 C 
ATOM     11  O   UNL     1       3.418   4.821  17.421  0.00  0.00    +0.000 OA
ATOM     12  N   UNL     1       5.415   3.862  16.875  0.00  0.00    +0.000 N 
ATOM     13  H   UNL     1       5.878   2.981  16.687  0.00  0.00    +0.000 HD
BRANCH  10  15
ATOM     14  C   UNL     1       2.366   2.130  17.875  0.00  0.00    +0.000 C 
ATOM     15  C   UNL     1       3.812   2.545  18.174  0.00  0.00    +0.000 C 
BRANCH  15  16
ATOM     16  C   UNL     1       4.091   2.590  19.685  0.00  0.00    +0.000 C 
BRANCH  16  17
ATOM     17  S   UNL     1       2.627   2.841  20.738  0.00  0.00    +0.000 S 
ATOM     18  H   UNL     1       1.869   1.872  20.205  0.00  0.00    +0.000 HD
ENDBRANCH  16  17
ENDBRANCH  15  16
ENDBRANCH  10  15
ENDBRANCH   1  12
BRANCH   1  19
ATOM     19  C   UNL     1       6.659   4.538  14.870  0.00  0.00    +0.000 C 
ATOM     20  O   UNL     1       7.627   5.135  14.412  0.00  0.00    +0.000 OA
BRANCH  19  21
ATOM     21  OXT UNL     1       6.229   3.373  14.325  0.00  0.00    +0.000 OA
ATOM     22  HXT UNL     1       6.310   2.593  14.912  0.00  0.00    +0.000 HD
ENDBRANCH  19  21
ENDBRANCH   1  19
TORSDOF 8
ENDMDL
MODEL 4
REMARK VINA RESULT:      -6.0      3.985      6.074
REMARK  Name = 
REMARK  9 active torsions:
REMARK  status: ('A' for Active; 'I' for Inactive)
REMARK    1  A    between atoms: C_1  and  C_2
REMARK    2  A    between atoms: C_2  and  C_3
REMARK    3  A    between atoms: C_2  and  C_5
REMARK    4  A    between atoms: C_3  and  S_4
REMARK    5  A    between atoms: N_7  and  CA_8
REMARK    6  A    between atoms: CA_8  and  C_9
REMARK    7  A    between atoms: CA_8  and  C_12
REMARK    8  A    between atoms: C_9  and  OXT_11
REMARK    9  A    between atoms: C_15  and  O_16
REMARK                            x       y       z     vdW  Elec       q    Type
REMARK                         _______ _______ _______ _____ _____    ______ ____
ROOT
ATOM      1  CA  UNL     1       2.871   6.185  18.199  0.00  0.00    +0.000 C 
ENDROOT
BRANCH   1   2
ATOM      2  C   UNL     1       2.278   7.513  18.648  0.00  0.00    +0.000 A 
ATOM      3  C   UNL     1       1.873   7.671  19.983  0.00  0.00    +0.000 A 
ATOM      4  C   UNL     1       1.271   8.856  20.413  0.00  0.00    +0.000 A 
ATOM      5  C   UNL     1       1.080   9.894  19.507  0.00  0.00    +0.000 A 
ATOM      6  C   UNL     1       1.495   9.770  18.188  0.00  0.00    +0.000 A 
ATOM      7  C   UNL     1       2.103   8.586  17.758  0.00  0.00    +0.000 A 
BRANCH   5   8
ATOM      8  O   UNL     1       0.483  11.059  19.882  0.00  0.00    +0.000 OA
ATOM      9  H   UNL     1      -0.251  10.853  20.486  0.00  0.00    +0.000 HD
ENDBRANCH   5   8
ENDBRANCH   1   2
BRANCH   1  12
ATOM     10  C   UNL     1       1.482   4.153  18.426  0.00  0.00    +0.000 C 
ATOM     11  O   UNL     1       1.129   4.214  17.253  0.00  0.00    +0.000 OA
ATOM     12  N   UNL     1       2.328   5.085  18.988  0.00  0.00    +0.000 N 
ATOM     13  H   UNL     1       2.822   4.854  19.841  0.00  0.00    +0.000 HD
BRANCH  10  15
ATOM     14  C   UNL     1       1.279   3.416  20.840  0.00  0.00    +0.000 C 
ATOM     15  C   UNL     1       1.054   3.030  19.373  0.00  0.00    +0.000 C 
BRANCH  15  16
ATOM     16  C   UNL     1       1.717   1.688  19.028  0.00  0.00    +0.000 C 
BRANCH  16  17
ATOM     17  S   UNL     1       3.466   1.791  18.530  0.00  0.00    +0.000 S 
ATOM     18  H   UNL     1       3.945   2.246  19.696  0.00  0.00    +0.000 HD
ENDBRANCH  16  17
ENDBRANCH  15  16
ENDBRANCH  10  15
ENDBRANCH   1  12
BRANCH   1  19
ATOM     19  C   UNL     1       4.414   6.145  18.250  0.00  0.00    +0.000 C 
ATOM     20  O   UNL     1       5.128   6.749  17.457  0.00  0.00    +0.000 OA
BRANCH  19  21
ATOM     21  OXT UNL     1       4.948   5.426  19.268  0.00  0.00    +0.000 OA
ATOM     22  HXT UNL     1       4.861   5.842  20.151  0.00  0.00    +0.000 HD
ENDBRANCH  19  21
ENDBRANCH   1  19
TORSDOF 8
ENDMDL
MODEL 5
REMARK VINA RESULT:      -6.0      2.760      4.377
REMARK  Name = 
REMARK  9 active torsions:
REMARK  status: ('A' for Active; 'I' for Inactive)
REMARK    1  A    between atoms: C_1  and  C_2
REMARK    2  A    between atoms: C_2  and  C_3
REMARK    3  A    between atoms: C_2  and  C_5
REMARK    4  A    between atoms: C_3  and  S_4
REMARK    5  A    between atoms: N_7  and  CA_8
REMARK    6  A    between atoms: CA_8  and  C_9
REMARK    7  A    between atoms: CA_8  and  C_12
REMARK    8  A    between atoms: C_9  and  OXT_11
REMARK    9  A    between atoms: C_15  and  O_16
REMARK                            x       y       z     vdW  Elec       q    Type
REMARK                         _______ _______ _______ _____ _____    ______ ____
ROOT
ATOM      1  CA  UNL     1       3.126   4.414  18.712  0.00  0.00    +0.000 C 
ENDROOT
BRANCH   1   2
ATOM      2  C   UNL     1       2.631   5.804  19.088  0.00  0.00    +0.000 A 
ATOM      3  C   UNL     1       2.029   6.006  20.341  0.00  0.00    +0.000 A 
ATOM      4  C   UNL     1       1.511   7.254  20.694  0.00  0.00    +0.000 A 
ATOM      5  C   UNL     1       1.601   8.311  19.794  0.00  0.00    +0.000 A 
ATOM      6  C   UNL     1       2.213   8.142  18.559  0.00  0.00    +0.000 A 
ATOM      7  C   UNL     1       2.738   6.894  18.208  0.00  0.00    +0.000 A 
BRANCH   5   8
ATOM      8  O   UNL     1       1.094   9.540  20.092  0.00  0.00    +0.000 OA
ATOM      9  H   UNL     1       1.651  10.217  19.671  0.00  0.00    +0.000 HD
ENDBRANCH   5   8
ENDBRANCH   1   2
BRANCH   1  12
ATOM     10  C   UNL     1       5.528   4.425  18.131  0.00  0.00    +0.000 C 
ATOM     11  O   UNL     1       5.855   4.306  19.307  0.00  0.00    +0.000 OA
ATOM     12  N   UNL     1       4.210   4.500  17.739  0.00  0.00    +0.000 N 
ATOM     13  H   UNL     1       3.968   4.305  16.775  0.00  0.00    +0.000 HD
BRANCH  10  15
ATOM     14  C   UNL     1       7.057   5.889  16.743  0.00  0.00    +0.000 C 
ATOM     15  C   UNL     1       6.538   4.466  16.981  0.00  0.00    +0.000 C 
BRANCH  15  16
ATOM     16  C   UNL     1       5.985   3.837  15.693  0.00  0.00    +0.000 C 
BRANCH  16  17
ATOM     17  S   UNL     1       6.660   4.516  14.144  0.00  0.00    +0.000 S 
ATOM     18  H   UNL     1       5.580   5.225  13.787  0.00  0.00    +0.000 HD
ENDBRANCH  16  17
ENDBRANCH  15  16
ENDBRANCH  10  15
ENDBRANCH   1  12
BRANCH   1  19
ATOM     19  C   UNL     1       2.018   3.485  18.171  0.00  0.00    +0.000 C 
ATOM     20  O   UNL     1       1.886   2.319  18.529  0.00  0.00    +0.000 OA
BRANCH  19  21
ATOM     21  OXT UNL     1       1.154   4.052  17.294  0.00  0.00    +0.000 OA
ATOM     22  HXT UNL     1       1.300   3.803  16.358  0.00  0.00    +0.000 HD
ENDBRANCH  19  21
ENDBRANCH   1  19
TORSDOF 8
ENDMDL
MODEL 6
REMARK VINA RESULT:      -5.9      2.985      5.902
REMARK  Name = 
REMARK  9 active torsions:
REMARK  status: ('A' for Active; 'I' for Inactive)
REMARK    1  A    between atoms: C_1  and  C_2
REMARK    2  A    between atoms: C_2  and  C_3
REMARK    3  A    between atoms: C_2  and  C_5
REMARK    4  A    between atoms: C_3  and  S_4
REMARK    5  A    between atoms: N_7  and  CA_8
REMARK    6  A    between atoms: CA_8  and  C_9
REMARK    7  A    between atoms: CA_8  and  C_12
REMARK    8  A    between atoms: C_9  and  OXT_11
REMARK    9  A    between atoms: C_15  and  O_16
REMARK                            x       y       z     vdW  Elec       q    Type
REMARK                         _______ _______ _______ _____ _____    ______ ____
ROOT
ATOM      1  CA  UNL     1       5.231   3.970  18.283  0.00  0.00    +0.000 C 
ENDROOT
BRANCH   1   2
ATOM      2  C   UNL     1       5.819   4.260  16.909  0.00  0.00    +0.000 A 
ATOM      3  C   UNL     1       7.150   4.695  16.806  0.00  0.00    +0.000 A 
ATOM      4  C   UNL     1       7.702   5.026  15.565  0.00  0.00    +0.000 A 
ATOM      5  C   UNL     1       6.923   4.912  14.419  0.00  0.00    +0.000 A 
ATOM      6  C   UNL     1       5.612   4.460  14.493  0.00  0.00    +0.000 A 
ATOM      7  C   UNL     1       5.061   4.123  15.733  0.00  0.00    +0.000 A 
BRANCH   5   8
ATOM      8  O   UNL     1       7.417   5.239  13.193  0.00  0.00    +0.000 OA
ATOM      9  H   UNL     1       6.759   5.000  12.518  0.00  0.00    +0.000 HD
ENDBRANCH   5   8
ENDBRANCH   1   2
BRANCH   1  12
ATOM     10  C   UNL     1       3.175   2.617  18.501  0.00  0.00    +0.000 C 
ATOM     11  O   UNL     1       3.815   1.622  18.825  0.00  0.00    +0.000 OA
ATOM     12  N   UNL     1       3.783   3.816  18.202  0.00  0.00    +0.000 N 
ATOM     13  H   UNL     1       3.236   4.669  18.226  0.00  0.00    +0.000 HD
BRANCH  10  15
ATOM     14  C   UNL     1       1.138   3.924  17.756  0.00  0.00    +0.000 C 
ATOM     15  C   UNL     1       1.646   2.643  18.428  0.00  0.00    +0.000 C 
BRANCH  15  16
ATOM     16  C   UNL     1       0.990   2.420  19.800  0.00  0.00    +0.000 C 
BRANCH  16  17
ATOM     17  S   UNL     1       1.657   3.436  21.155  0.00  0.00    +0.000 S 
ATOM     18  H   UNL     1       2.898   2.927  21.151  0.00  0.00    +0.000 HD
ENDBRANCH  16  17
ENDBRANCH  15  16
ENDBRANCH  10  15
ENDBRANCH   1  12
BRANCH   1  19
ATOM     19  C   UNL     1       5.579   5.036  19.345  0.00  0.00    +0.000 C 
ATOM     20  O   UNL     1       6.709   5.189  19.797  0.00  0.00    +0.000 OA
BRANCH  19  21
ATOM     21  OXT UNL     1       4.556   5.841  19.724  0.00  0.00    +0.000 OA
ATOM     22  HXT UNL     1       3.718   5.692  19.239  0.00  0.00    +0.000 HD
ENDBRANCH  19  21
ENDBRANCH   1  19
TORSDOF 8
ENDMDL
MODEL 7
REMARK VINA RESULT:      -5.9      1.040      1.459
REMARK  Name = 
REMARK  9 active torsions:
REMARK  status: ('A' for Active; 'I' for Inactive)
REMARK    1  A    between atoms: C_1  and  C_2
REMARK    2  A    between atoms: C_2  and  C_3
REMARK    3  A    between atoms: C_2  and  C_5
REMARK    4  A    between atoms: C_3  and  S_4
REMARK    5  A    between atoms: N_7  and  CA_8
REMARK    6  A    between atoms: CA_8  and  C_9
REMARK    7  A    between atoms: CA_8  and  C_12
REMARK    8  A    between atoms: C_9  and  OXT_11
REMARK    9  A    between atoms: C_15  and  O_16
REMARK                            x       y       z     vdW  Elec       q    Type
REMARK                         _______ _______ _______ _____ _____    ______ ____
ROOT
ATOM      1  CA  UNL     1       5.574   5.069  17.696  0.00  0.00    +0.000 C 
ENDROOT
BRANCH   1   2
ATOM      2  C   UNL     1       4.271   4.497  18.235  0.00  0.00    +0.000 A 
ATOM      3  C   UNL     1       3.057   5.130  17.920  0.00  0.00    +0.000 A 
ATOM      4  C   UNL     1       1.849   4.666  18.446  0.00  0.00    +0.000 A 
ATOM      5  C   UNL     1       1.850   3.557  19.285  0.00  0.00    +0.000 A 
ATOM      6  C   UNL     1       3.034   2.899  19.590  0.00  0.00    +0.000 A 
ATOM      7  C   UNL     1       4.243   3.359  19.060  0.00  0.00    +0.000 A 
BRANCH   5   8
ATOM      8  O   UNL     1       0.697   3.081  19.831  0.00  0.00    +0.000 OA
ATOM      9  H   UNL     1       0.878   2.798  20.744  0.00  0.00    +0.000 HD
ENDBRANCH   5   8
ENDBRANCH   1   2
BRANCH   1  12
ATOM     10  C   UNL     1       6.788   5.145  15.545  0.00  0.00    +0.000 C 
ATOM     11  O   UNL     1       7.411   6.145  15.884  0.00  0.00    +0.000 OA
ATOM     12  N   UNL     1       5.852   4.549  16.362  0.00  0.00    +0.000 N 
ATOM     13  H   UNL     1       5.579   3.590  16.185  0.00  0.00    +0.000 HD
BRANCH  10  15
ATOM     14  C   UNL     1       7.757   5.333  13.213  0.00  0.00    +0.000 C 
ATOM     15  C   UNL     1       7.004   4.438  14.204  0.00  0.00    +0.000 C 
BRANCH  15  16
ATOM     16  C   UNL     1       5.694   3.901  13.607  0.00  0.00    +0.000 C 
BRANCH  16  17
ATOM     17  S   UNL     1       5.864   3.035  12.014  0.00  0.00    +0.000 S 
ATOM     18  H   UNL     1       4.558   2.825  11.798  0.00  0.00    +0.000 HD
ENDBRANCH  16  17
ENDBRANCH  15  16
ENDBRANCH  10  15
ENDBRANCH   1  12
BRANCH   1  19
ATOM     19  C   UNL     1       6.790   4.815  18.614  0.00  0.00    +0.000 C 
ATOM     20  O   UNL     1       6.875   5.259  19.754  0.00  0.00    +0.000 OA
BRANCH  19  21
ATOM     21  OXT UNL     1       7.759   4.021  18.096  0.00  0.00    +0.000 OA
ATOM     22  HXT UNL     1       7.732   3.091  18.403  0.00  0.00    +0.000 HD
ENDBRANCH  19  21
ENDBRANCH   1  19
TORSDOF 8
ENDMDL
MODEL 8
REMARK VINA RESULT:      -5.9      3.357      4.967
REMARK  Name = 
REMARK  9 active torsions:
REMARK  status: ('A' for Active; 'I' for Inactive)
REMARK    1  A    between atoms: C_1  and  C_2
REMARK    2  A    between atoms: C_2  and  C_3
REMARK    3  A    between atoms: C_2  and  C_5
REMARK    4  A    between atoms: C_3  and  S_4
REMARK    5  A    between atoms: N_7  and  CA_8
REMARK    6  A    between atoms: CA_8  and  C_9
REMARK    7  A    between atoms: CA_8  and  C_12
REMARK    8  A    between atoms: C_9  and  OXT_11
REMARK    9  A    between atoms: C_15  and  O_16
REMARK                            x       y       z     vdW  Elec       q    Type
REMARK                         _______ _______ _______ _____ _____    ______ ____
ROOT
ATOM      1  CA  UNL     1       3.220   5.740  19.628  0.00  0.00    +0.000 C 
ENDROOT
BRANCH   1   2
ATOM      2  C   UNL     1       2.593   7.080  19.271  0.00  0.00    +0.000 A 
ATOM      3  C   UNL     1       1.823   7.759  20.230  0.00  0.00    +0.000 A 
ATOM      4  C   UNL     1       1.185   8.961  19.916  0.00  0.00    +0.000 A 
ATOM      5  C   UNL     1       1.324   9.496  18.640  0.00  0.00    +0.000 A 
ATOM      6  C   UNL     1       2.100   8.856  17.683  0.00  0.00    +0.000 A 
ATOM      7  C   UNL     1       2.744   7.655  17.998  0.00  0.00    +0.000 A 
BRANCH   5   8
ATOM      8  O   UNL     1       0.706  10.657  18.288  0.00  0.00    +0.000 OA
ATOM      9  H   UNL     1       0.567  11.192  19.089  0.00  0.00    +0.000 HD
ENDBRANCH   5   8
ENDBRANCH   1   2
BRANCH   1  12
ATOM     10  C   UNL     1       5.364   4.959  18.678  0.00  0.00    +0.000 C 
ATOM     11  O   UNL     1       5.948   5.141  19.741  0.00  0.00    +0.000 OA
ATOM     12  N   UNL     1       4.024   5.236  18.520  0.00  0.00    +0.000 N 
ATOM     13  H   UNL     1       3.518   4.812  17.751  0.00  0.00    +0.000 HD
BRANCH  10  15
ATOM     14  C   UNL     1       7.559   4.616  17.464  0.00  0.00    +0.000 C 
ATOM     15  C   UNL     1       6.044   4.377  17.437  0.00  0.00    +0.000 C 
BRANCH  15  16
ATOM     16  C   UNL     1       5.410   4.880  16.131  0.00  0.00    +0.000 C 
BRANCH  16  17
ATOM     17  S   UNL     1       6.140   4.210  14.603  0.00  0.00    +0.000 S 
ATOM     18  H   UNL     1       5.134   3.384  14.285  0.00  0.00    +0.000 HD
ENDBRANCH  16  17
ENDBRANCH  15  16
ENDBRANCH  10  15
ENDBRANCH   1  12
BRANCH   1  19
ATOM     19  C   UNL     1       2.194   4.667  20.053  0.00  0.00    +0.000 C 
ATOM     20  O   UNL     1       1.414   4.137  19.269  0.00  0.00    +0.000 OA
BRANCH  19  21
ATOM     21  OXT UNL     1       2.234   4.303  21.358  0.00  0.00    +0.000 OA
ATOM     22  HXT UNL     1       2.681   3.449  21.531  0.00  0.00    +0.000 HD
ENDBRANCH  19  21
ENDBRANCH   1  19
TORSDOF 8
ENDMDL
MODEL 9
REMARK VINA RESULT:      -5.9      3.454      4.981
REMARK  Name = 
REMARK  9 active torsions:
REMARK  status: ('A' for Active; 'I' for Inactive)
REMARK    1  A    between atoms: C_1  and  C_2
REMARK    2  A    between atoms: C_2  and  C_3
REMARK    3  A    between atoms: C_2  and  C_5
REMARK    4  A    between atoms: C_3  and  S_4
REMARK    5  A    between atoms: N_7  and  CA_8
REMARK    6  A    between atoms: CA_8  and  C_9
REMARK    7  A    between atoms: CA_8  and  C_12
REMARK    8  A    between atoms: C_9  and  OXT_11
REMARK    9  A    between atoms: C_15  and  O_16
REMARK                            x       y       z     vdW  Elec       q    Type
REMARK                         _______ _______ _______ _____ _____    ______ ____
ROOT
ATOM      1  CA  UNL     1       3.444   5.681  18.874  0.00  0.00    +0.000 C 
ENDROOT
BRANCH   1   2
ATOM      2  C   UNL     1       2.653   6.978  18.951  0.00  0.00    +0.000 A 
ATOM      3  C   UNL     1       2.587   7.815  17.824  0.00  0.00    +0.000 A 
ATOM      4  C   UNL     1       1.919   9.040  17.879  0.00  0.00    +0.000 A 
ATOM      5  C   UNL     1       1.302   9.429  19.063  0.00  0.00    +0.000 A 
ATOM      6  C   UNL     1       1.332   8.608  20.182  0.00  0.00    +0.000 A 
ATOM      7  C   UNL     1       1.996   7.379  20.126  0.00  0.00    +0.000 A 
BRANCH   5   8
ATOM      8  O   UNL     1       0.654  10.623  19.164  0.00  0.00    +0.000 OA
ATOM      9  H   UNL     1       1.315  11.336  19.184  0.00  0.00    +0.000 HD
ENDBRANCH   5   8
ENDBRANCH   1   2
BRANCH   1  12
ATOM     10  C   UNL     1       5.897   5.377  18.851  0.00  0.00    +0.000 C 
ATOM     11  O   UNL     1       5.864   4.702  19.875  0.00  0.00    +0.000 OA
ATOM     12  N   UNL     1       4.760   5.914  18.288  0.00  0.00    +0.000 N 
ATOM     13  H   UNL     1       4.778   6.205  17.318  0.00  0.00    +0.000 HD
BRANCH  10  15
ATOM     14  C   UNL     1       7.142   7.040  17.404  0.00  0.00    +0.000 C 
ATOM     15  C   UNL     1       7.186   5.664  18.078  0.00  0.00    +0.000 C 
BRANCH  15  16
ATOM     16  C   UNL     1       7.530   4.549  17.077  0.00  0.00    +0.000 C 
BRANCH  16  17
ATOM     17  S   UNL     1       6.842   4.766  15.406  0.00  0.00    +0.000 S 
ATOM     18  H   UNL     1       5.864   5.621  15.737  0.00  0.00    +0.000 HD
ENDBRANCH  16  17
ENDBRANCH  15  16
ENDBRANCH  10  15
ENDBRANCH   1  12
BRANCH   1  19
ATOM     19  C   UNL     1       2.724   4.558  18.096  0.00  0.00    +0.000 C 
ATOM     20  O   UNL     1       3.222   3.980  17.136  0.00  0.00    +0.000 OA
BRANCH  19  21
ATOM     21  OXT UNL     1       1.503   4.209  18.569  0.00  0.00    +0.000 OA
ATOM     22  HXT UNL     1       1.514   3.498  19.243  0.00  0.00    +0.000 HD
ENDBRANCH  19  21
ENDBRANCH   1  19
TORSDOF 8
ENDMDL
