MODEL 1
REMARK VINA RESULT:      -7.6      0.000      0.000
REMARK  Name = 
REMARK  5 active torsions:
REMARK  status: ('A' for Active; 'I' for Inactive)
REMARK    1  A    between atoms: O_1  and  C_2
REMARK    2  A    between atoms: C_2  and  C_3
REMARK    3  A    between atoms: C_2  and  C_16
REMARK    4  A    between atoms: C_3  and  N_4
REMARK    5  A    between atoms: N_7  and  C_8
REMARK                            x       y       z     vdW  Elec       q    Type
REMARK                         _______ _______ _______ _____ _____    ______ ____
ROOT
ATOM      1  C   UNL     1       3.973   3.216  17.557  0.00  0.00    +0.000 C 
ENDROOT
BRANCH   1   2
ATOM      2  C   UNL     1       5.376   3.716  17.274  0.00  0.00    +0.000 A 
ATOM      3  C   UNL     1       5.750   3.930  15.922  0.00  0.00    +0.000 A 
ATOM      4  C   UNL     1       6.684   4.911  15.594  0.00  0.00    +0.000 A 
ATOM      5  C   UNL     1       7.174   5.659  16.640  0.00  0.00    +0.000 A 
ATOM      6  C   UNL     1       7.053   5.237  17.965  0.00  0.00    +0.000 A 
ATOM      7  C   UNL     1       6.141   4.266  18.310  0.00  0.00    +0.000 A 
ATOM      8  C   UNL     1       7.803   6.193  18.824  0.00  0.00    +0.000 C 
ATOM      9  C   UNL     1       7.542   7.427  17.956  0.00  0.00    +0.000 C 
ATOM     10  N   UNL     1       7.680   6.995  16.541  0.00  0.00    +0.000 N 
ATOM     11  H   UNL     1       8.642   6.965  16.216  0.00  0.00    +0.000 HD
ENDBRANCH   1   2
BRANCH   1  12
ATOM     12  O   UNL     1       3.948   1.807  17.796  0.00  0.00    +0.000 OA
ATOM     13  H   UNL     1       3.123   1.663  18.302  0.00  0.00    +0.000 HD
ENDBRANCH   1  12
BRANCH   1  14
ATOM     14  C   UNL     1       3.435   3.950  18.829  0.00  0.00    +0.000 C 
BRANCH  14  15
ATOM     15  N   UNL     1       2.039   4.443  18.691  0.00  0.00    +0.000 NA
ATOM     16  C   UNL     1       1.456   4.725  20.034  0.00  0.00    +0.000 C 
ATOM     17  C   UNL     1       2.118   5.893  20.801  0.00  0.00    +0.000 C 
ATOM     18  N   UNL     1       2.182   7.107  19.976  0.00  0.00    +0.000 N 
ATOM     19  C   UNL     1       2.659   6.931  18.592  0.00  0.00    +0.000 C 
ATOM     20  C   UNL     1       1.976   5.713  17.922  0.00  0.00    +0.000 C 
BRANCH  18  21
ATOM     21  C   UNL     1       1.500   8.254  20.326  0.00  0.00    +0.000 A 
ATOM     22  C   UNL     1       1.233   9.250  19.364  0.00  0.00    +0.000 A 
ATOM     23  C   UNL     1       0.567  10.421  19.693  0.00  0.00    +0.000 A 
ATOM     24  C   UNL     1       0.140  10.650  20.999  0.00  0.00    +0.000 A 
ATOM     25  C   UNL     1       0.382   9.675  21.963  0.00  0.00    +0.000 A 
ATOM     26  C   UNL     1       1.053   8.493  21.630  0.00  0.00    +0.000 A 
ENDBRANCH  18  21
ENDBRANCH  14  15
ENDBRANCH   1  14
TORSDOF 5
ENDMDL
MODEL 2
REMARK VINA RESULT:      -7.5      0.537      1.147
REMARK  Name = 
REMARK  5 active torsions:
REMARK  status: ('A' for Active; 'I' for Inactive)
REMARK    1  A    between atoms: O_1  and  C_2
REMARK    2  A    between atoms: C_2  and  C_3
REMARK    3  A    between atoms: C_2  and  C_16
REMARK    4  A    between atoms: C_3  and  N_4
REMARK    5  A    between atoms: N_7  and  C_8
REMARK                            x       y       z     vdW  Elec       q    Type
REMARK                         _______ _______ _______ _____ _____    ______ ____
ROOT
ATOM      1  C   UNL     1       3.923   3.016  17.664  0.00  0.00    +0.000 C 
ENDROOT
BRANCH   1   2
ATOM      2  C   UNL     1       5.314   3.530  17.347  0.00  0.00    +0.000 A 
ATOM      3  C   UNL     1       5.667   3.700  15.983  0.00  0.00    +0.000 A 
ATOM      4  C   UNL     1       6.580   4.685  15.608  0.00  0.00    +0.000 A 
ATOM      5  C   UNL     1       7.070   5.478  16.620  0.00  0.00    +0.000 A 
ATOM      6  C   UNL     1       6.972   5.101  17.961  0.00  0.00    +0.000 A 
ATOM      7  C   UNL     1       6.082   4.129  18.352  0.00  0.00    +0.000 A 
ATOM      8  C   UNL     1       7.717   6.101  18.776  0.00  0.00    +0.000 C 
ATOM      9  C   UNL     1       7.423   7.298  17.868  0.00  0.00    +0.000 C 
ATOM     10  N   UNL     1       7.552   6.818  16.468  0.00  0.00    +0.000 N 
ATOM     11  H   UNL     1       8.510   6.793  16.131  0.00  0.00    +0.000 HD
ENDBRANCH   1   2
BRANCH   1  12
ATOM     12  O   UNL     1       3.895   1.592  17.780  0.00  0.00    +0.000 OA
ATOM     13  H   UNL     1       4.660   1.292  17.248  0.00  0.00    +0.000 HD
ENDBRANCH   1  12
BRANCH   1  14
ATOM     14  C   UNL     1       3.467   3.638  19.025  0.00  0.00    +0.000 C 
BRANCH  14  15
ATOM     15  N   UNL     1       2.055   4.104  19.028  0.00  0.00    +0.000 NA
ATOM     16  C   UNL     1       1.740   4.788  20.315  0.00  0.00    +0.000 C 
ATOM     17  C   UNL     1       2.499   6.114  20.553  0.00  0.00    +0.000 C 
ATOM     18  N   UNL     1       2.355   7.025  19.409  0.00  0.00    +0.000 N 
ATOM     19  C   UNL     1       2.555   6.433  18.074  0.00  0.00    +0.000 C 
ATOM     20  C   UNL     1       1.797   5.089  17.946  0.00  0.00    +0.000 C 
BRANCH  18  21
ATOM     21  C   UNL     1       1.717   8.242  19.532  0.00  0.00    +0.000 A 
ATOM     22  C   UNL     1       1.120   8.617  20.752  0.00  0.00    +0.000 A 
ATOM     23  C   UNL     1       0.455   9.827  20.897  0.00  0.00    +0.000 A 
ATOM     24  C   UNL     1       0.356  10.712  19.827  0.00  0.00    +0.000 A 
ATOM     25  C   UNL     1       0.948  10.367  18.615  0.00  0.00    +0.000 A 
ATOM     26  C   UNL     1       1.620   9.147  18.470  0.00  0.00    +0.000 A 
ENDBRANCH  18  21
ENDBRANCH  14  15
ENDBRANCH   1  14
TORSDOF 5
ENDMDL
MODEL 3
REMARK VINA RESULT:      -7.1      0.969      1.447
REMARK  Name = 
REMARK  5 active torsions:
REMARK  status: ('A' for Active; 'I' for Inactive)
REMARK    1  A    between atoms: O_1  and  C_2
REMARK    2  A    between atoms: C_2  and  C_3
REMARK    3  A    between atoms: C_2  and  C_16
REMARK    4  A    between atoms: C_3  and  N_4
REMARK    5  A    between atoms: N_7  and  C_8
REMARK                            x       y       z     vdW  Elec       q    Type
REMARK                         _______ _______ _______ _____ _____    ______ ____
ROOT
ATOM      1  C   UNL     1       4.523   3.527  18.850  0.00  0.00    +0.000 C 
ENDROOT
BRANCH   1   2
ATOM      2  C   UNL     1       5.709   4.122  18.117  0.00  0.00    +0.000 A 
ATOM      3  C   UNL     1       5.616   4.276  16.709  0.00  0.00    +0.000 A 
ATOM      4  C   UNL     1       6.297   5.307  16.065  0.00  0.00    +0.000 A 
ATOM      5  C   UNL     1       7.014   6.161  16.872  0.00  0.00    +0.000 A 
ATOM      6  C   UNL     1       7.358   5.818  18.181  0.00  0.00    +0.000 A 
ATOM      7  C   UNL     1       6.702   4.801  18.834  0.00  0.00    +0.000 A 
ATOM      8  C   UNL     1       8.242   6.887  18.721  0.00  0.00    +0.000 C 
ATOM      9  C   UNL     1       7.600   8.036  17.937  0.00  0.00    +0.000 C 
ATOM     10  N   UNL     1       7.329   7.525  16.569  0.00  0.00    +0.000 N 
ATOM     11  H   UNL     1       8.138   7.553  15.955  0.00  0.00    +0.000 HD
ENDBRANCH   1   2
BRANCH   1  12
ATOM     12  O   UNL     1       4.923   2.521  19.781  0.00  0.00    +0.000 OA
ATOM     13  H   UNL     1       5.638   2.943  20.300  0.00  0.00    +0.000 HD
ENDBRANCH   1  12
BRANCH   1  14
ATOM     14  C   UNL     1       3.800   4.674  19.630  0.00  0.00    +0.000 C 
BRANCH  14  15
ATOM     15  N   UNL     1       2.394   4.897  19.201  0.00  0.00    +0.000 NA
ATOM     16  C   UNL     1       1.585   5.422  20.339  0.00  0.00    +0.000 C 
ATOM     17  C   UNL     1       1.983   6.835  20.826  0.00  0.00    +0.000 C 
ATOM     18  N   UNL     1       2.032   7.791  19.712  0.00  0.00    +0.000 N 
ATOM     19  C   UNL     1       2.731   7.341  18.495  0.00  0.00    +0.000 C 
ATOM     20  C   UNL     1       2.303   5.903  18.112  0.00  0.00    +0.000 C 
BRANCH  18  21
ATOM     21  C   UNL     1       1.177   8.873  19.652  0.00  0.00    +0.000 A 
ATOM     22  C   UNL     1       0.580   9.379  20.824  0.00  0.00    +0.000 A 
ATOM     23  C   UNL     1      -0.298  10.454  20.789  0.00  0.00    +0.000 A 
ATOM     24  C   UNL     1      -0.618  11.067  19.581  0.00  0.00    +0.000 A 
ATOM     25  C   UNL     1      -0.030  10.591  18.412  0.00  0.00    +0.000 A 
ATOM     26  C   UNL     1       0.856   9.508  18.448  0.00  0.00    +0.000 A 
ENDBRANCH  18  21
ENDBRANCH  14  15
ENDBRANCH   1  14
TORSDOF 5
ENDMDL
MODEL 4
REMARK VINA RESULT:      -7.1      3.330      5.634
REMARK  Name = 
REMARK  5 active torsions:
REMARK  status: ('A' for Active; 'I' for Inactive)
REMARK    1  A    between atoms: O_1  and  C_2
REMARK    2  A    between atoms: C_2  and  C_3
REMARK    3  A    between atoms: C_2  and  C_16
REMARK    4  A    between atoms: C_3  and  N_4
REMARK    5  A    between atoms: N_7  and  C_8
REMARK                            x       y       z     vdW  Elec       q    Type
REMARK                         _______ _______ _______ _____ _____    ______ ____
ROOT
ATOM      1  C   UNL     1       6.608   5.159  15.434  0.00  0.00    +0.000 C 
ENDROOT
BRANCH   1   2
ATOM      2  C   UNL     1       6.506   4.906  13.943  0.00  0.00    +0.000 A 
ATOM      3  C   UNL     1       7.626   5.225  13.132  0.00  0.00    +0.000 A 
ATOM      4  C   UNL     1       7.882   4.506  11.966  0.00  0.00    +0.000 A 
ATOM      5  C   UNL     1       7.017   3.472  11.687  0.00  0.00    +0.000 A 
ATOM      6  C   UNL     1       5.764   3.378  12.296  0.00  0.00    +0.000 A 
ATOM      7  C   UNL     1       5.489   4.083  13.444  0.00  0.00    +0.000 A 
ATOM      8  C   UNL     1       5.034   2.239  11.674  0.00  0.00    +0.000 C 
ATOM      9  C   UNL     1       6.274   1.384  11.401  0.00  0.00    +0.000 C 
ATOM     10  N   UNL     1       7.335   2.306  10.918  0.00  0.00    +0.000 N 
ATOM     11  H   UNL     1       7.265   2.528   9.930  0.00  0.00    +0.000 HD
ENDBRANCH   1   2
BRANCH   1  12
ATOM     12  O   UNL     1       7.712   6.006  15.756  0.00  0.00    +0.000 OA
ATOM     13  H   UNL     1       7.821   6.572  14.965  0.00  0.00    +0.000 HD
ENDBRANCH   1  12
BRANCH   1  14
ATOM     14  C   UNL     1       5.289   5.852  15.909  0.00  0.00    +0.000 C 
BRANCH  14  15
ATOM     15  N   UNL     1       5.256   6.145  17.366  0.00  0.00    +0.000 NA
ATOM     16  C   UNL     1       3.867   6.477  17.794  0.00  0.00    +0.000 C 
ATOM     17  C   UNL     1       2.857   5.310  17.695  0.00  0.00    +0.000 C 
ATOM     18  N   UNL     1       3.358   4.109  18.376  0.00  0.00    +0.000 N 
ATOM     19  C   UNL     1       4.757   3.736  18.097  0.00  0.00    +0.000 C 
ATOM     20  C   UNL     1       5.684   4.974  18.174  0.00  0.00    +0.000 C 
BRANCH  18  21
ATOM     21  C   UNL     1       2.714   3.580  19.476  0.00  0.00    +0.000 A 
ATOM     22  C   UNL     1       1.320   3.724  19.626  0.00  0.00    +0.000 A 
ATOM     23  C   UNL     1       0.650   3.219  20.731  0.00  0.00    +0.000 A 
ATOM     24  C   UNL     1       1.344   2.550  21.735  0.00  0.00    +0.000 A 
ATOM     25  C   UNL     1       2.721   2.385  21.602  0.00  0.00    +0.000 A 
ATOM     26  C   UNL     1       3.396   2.894  20.486  0.00  0.00    +0.000 A 
ENDBRANCH  18  21
ENDBRANCH  14  15
ENDBRANCH   1  14
TORSDOF 5
ENDMDL
MODEL 5
REMARK VINA RESULT:      -7.1      1.322      2.454
REMARK  Name = 
REMARK  5 active torsions:
REMARK  status: ('A' for Active; 'I' for Inactive)
REMARK    1  A    between atoms: O_1  and  C_2
REMARK    2  A    between atoms: C_2  and  C_3
REMARK    3  A    between atoms: C_2  and  C_16
REMARK    4  A    between atoms: C_3  and  N_4
REMARK    5  A    between atoms: N_7  and  C_8
REMARK                            x       y       z     vdW  Elec       q    Type
REMARK                         _______ _______ _______ _____ _____    ______ ____
ROOT
ATOM      1  C   UNL     1       4.428   3.849  18.674  0.00  0.00    +0.000 C 
ENDROOT
BRANCH   1   2
ATOM      2  C   UNL     1       4.885   4.729  17.527  0.00  0.00    +0.000 A 
ATOM      3  C   UNL     1       5.896   5.691  17.785  0.00  0.00    +0.000 A 
ATOM      4  C   UNL     1       6.781   6.073  16.779  0.00  0.00    +0.000 A 
ATOM      5  C   UNL     1       6.633   5.440  15.566  0.00  0.00    +0.000 A 
ATOM      6  C   UNL     1       5.462   4.755  15.232  0.00  0.00    +0.000 A 
ATOM      7  C   UNL     1       4.572   4.374  16.209  0.00  0.00    +0.000 A 
ATOM      8  C   UNL     1       5.573   4.316  13.814  0.00  0.00    +0.000 C 
ATOM      9  C   UNL     1       7.091   4.110  13.829  0.00  0.00    +0.000 C 
ATOM     10  N   UNL     1       7.671   5.241  14.599  0.00  0.00    +0.000 N 
ATOM     11  H   UNL     1       7.787   6.090  14.053  0.00  0.00    +0.000 HD
ENDBRANCH   1   2
BRANCH   1  12
ATOM     12  O   UNL     1       5.529   3.236  19.347  0.00  0.00    +0.000 OA
ATOM     13  H   UNL     1       5.247   3.195  20.284  0.00  0.00    +0.000 HD
ENDBRANCH   1  12
BRANCH   1  14
ATOM     14  C   UNL     1       3.646   4.737  19.697  0.00  0.00    +0.000 C 
BRANCH  14  15
ATOM     15  N   UNL     1       2.229   4.979  19.321  0.00  0.00    +0.000 NA
ATOM     16  C   UNL     1       1.472   5.524  20.485  0.00  0.00    +0.000 C 
ATOM     17  C   UNL     1       1.909   6.933  20.945  0.00  0.00    +0.000 C 
ATOM     18  N   UNL     1       1.928   7.881  19.824  0.00  0.00    +0.000 N 
ATOM     19  C   UNL     1       2.573   7.413  18.584  0.00  0.00    +0.000 C 
ATOM     20  C   UNL     1       2.110   5.979  18.228  0.00  0.00    +0.000 C 
BRANCH  18  21
ATOM     21  C   UNL     1       1.088   8.975  19.789  0.00  0.00    +0.000 A 
ATOM     22  C   UNL     1       0.459   9.432  20.964  0.00  0.00    +0.000 A 
ATOM     23  C   UNL     1      -0.406  10.517  20.954  0.00  0.00    +0.000 A 
ATOM     24  C   UNL     1      -0.680  11.192  19.767  0.00  0.00    +0.000 A 
ATOM     25  C   UNL     1      -0.061  10.765  18.595  0.00  0.00    +0.000 A 
ATOM     26  C   UNL     1       0.812   9.671  18.607  0.00  0.00    +0.000 A 
ENDBRANCH  18  21
ENDBRANCH  14  15
ENDBRANCH   1  14
TORSDOF 5
ENDMDL
MODEL 6
REMARK VINA RESULT:      -6.9      3.718      6.534
REMARK  Name = 
REMARK  5 active torsions:
REMARK  status: ('A' for Active; 'I' for Inactive)
REMARK    1  A    between atoms: O_1  and  C_2
REMARK    2  A    between atoms: C_2  and  C_3
REMARK    3  A    between atoms: C_2  and  C_16
REMARK    4  A    between atoms: C_3  and  N_4
REMARK    5  A    between atoms: N_7  and  C_8
REMARK                            x       y       z     vdW  Elec       q    Type
REMARK                         _______ _______ _______ _____ _____    ______ ____
ROOT
ATOM      1  C   UNL     1       8.363   8.338  18.035  0.00  0.00    +0.000 C 
ENDROOT
BRANCH   1   2
ATOM      2  C   UNL     1       8.561   9.749  18.552  0.00  0.00    +0.000 A 
ATOM      3  C   UNL     1       9.096   9.914  19.856  0.00  0.00    +0.000 A 
ATOM      4  C   UNL     1       9.865  11.035  20.167  0.00  0.00    +0.000 A 
ATOM      5  C   UNL     1      10.090  11.923  19.139  0.00  0.00    +0.000 A 
ATOM      6  C   UNL     1       9.309  11.921  17.982  0.00  0.00    +0.000 A 
ATOM      7  C   UNL     1       8.540  10.828  17.658  0.00  0.00    +0.000 A 
ATOM      8  C   UNL     1       9.720  13.083  17.147  0.00  0.00    +0.000 C 
ATOM      9  C   UNL     1      11.191  13.073  17.571  0.00  0.00    +0.000 C 
ATOM     10  N   UNL     1      11.216  12.802  19.031  0.00  0.00    +0.000 N 
ATOM     11  H   UNL     1      11.053  13.626  19.603  0.00  0.00    +0.000 HD
ENDBRANCH   1   2
BRANCH   1  12
ATOM     12  O   UNL     1       8.672   7.359  19.028  0.00  0.00    +0.000 OA
ATOM     13  H   UNL     1       8.247   6.540  18.700  0.00  0.00    +0.000 HD
ENDBRANCH   1  12
BRANCH   1  14
ATOM     14  C   UNL     1       6.865   8.172  17.616  0.00  0.00    +0.000 C 
BRANCH  14  15
ATOM     15  N   UNL     1       6.609   6.981  16.764  0.00  0.00    +0.000 NA
ATOM     16  C   UNL     1       6.790   5.731  17.557  0.00  0.00    +0.000 C 
ATOM     17  C   UNL     1       5.759   5.522  18.689  0.00  0.00    +0.000 C 
ATOM     18  N   UNL     1       4.383   5.650  18.191  0.00  0.00    +0.000 N 
ATOM     19  C   UNL     1       4.110   6.805  17.317  0.00  0.00    +0.000 C 
ATOM     20  C   UNL     1       5.217   6.961  16.246  0.00  0.00    +0.000 C 
BRANCH  18  21
ATOM     21  C   UNL     1       3.504   4.586  18.217  0.00  0.00    +0.000 A 
ATOM     22  C   UNL     1       2.206   4.743  18.743  0.00  0.00    +0.000 A 
ATOM     23  C   UNL     1       1.309   3.686  18.799  0.00  0.00    +0.000 A 
ATOM     24  C   UNL     1       1.672   2.425  18.333  0.00  0.00    +0.000 A 
ATOM     25  C   UNL     1       2.945   2.249  17.798  0.00  0.00    +0.000 A 
ATOM     26  C   UNL     1       3.849   3.317  17.741  0.00  0.00    +0.000 A 
ENDBRANCH  18  21
ENDBRANCH  14  15
ENDBRANCH   1  14
TORSDOF 5
ENDMDL
MODEL 7
REMARK VINA RESULT:      -6.9      3.720      6.403
REMARK  Name = 
REMARK  5 active torsions:
REMARK  status: ('A' for Active; 'I' for Inactive)
REMARK    1  A    between atoms: O_1  and  C_2
REMARK    2  A    between atoms: C_2  and  C_3
REMARK    3  A    between atoms: C_2  and  C_16
REMARK    4  A    between atoms: C_3  and  N_4
REMARK    5  A    between atoms: N_7  and  C_8
REMARK                            x       y       z     vdW  Elec       q    Type
REMARK                         _______ _______ _______ _____ _____    ______ ____
ROOT
ATOM      1  C   UNL     1       8.440   8.265  18.094  0.00  0.00    +0.000 C 
ENDROOT
BRANCH   1   2
ATOM      2  C   UNL     1       8.680   9.694  18.541  0.00  0.00    +0.000 A 
ATOM      3  C   UNL     1       8.969   9.926  19.911  0.00  0.00    +0.000 A 
ATOM      4  C   UNL     1       9.776  10.997  20.291  0.00  0.00    +0.000 A 
ATOM      5  C   UNL     1      10.286  11.767  19.270  0.00  0.00    +0.000 A 
ATOM      6  C   UNL     1       9.746  11.732  17.983  0.00  0.00    +0.000 A 
ATOM      7  C   UNL     1       8.944  10.686  17.589  0.00  0.00    +0.000 A 
ATOM      8  C   UNL     1      10.428  12.774  17.168  0.00  0.00    +0.000 C 
ATOM      9  C   UNL     1      11.782  12.671  17.877  0.00  0.00    +0.000 C 
ATOM     10  N   UNL     1      11.497  12.530  19.328  0.00  0.00    +0.000 N 
ATOM     11  H   UNL     1      11.314  13.413  19.797  0.00  0.00    +0.000 HD
ENDBRANCH   1   2
BRANCH   1  12
ATOM     12  O   UNL     1       8.691   7.329  19.144  0.00  0.00    +0.000 OA
ATOM     13  H   UNL     1       9.239   6.636  18.723  0.00  0.00    +0.000 HD
ENDBRANCH   1  12
BRANCH   1  14
ATOM     14  C   UNL     1       6.945   8.132  17.651  0.00  0.00    +0.000 C 
BRANCH  14  15
ATOM     15  N   UNL     1       6.654   6.890  16.889  0.00  0.00    +0.000 NA
ATOM     16  C   UNL     1       6.748   5.701  17.784  0.00  0.00    +0.000 C 
ATOM     17  C   UNL     1       5.675   5.635  18.895  0.00  0.00    +0.000 C 
ATOM     18  N   UNL     1       4.323   5.788  18.343  0.00  0.00    +0.000 N 
ATOM     19  C   UNL     1       4.134   6.881  17.372  0.00  0.00    +0.000 C 
ATOM     20  C   UNL     1       5.278   6.895  16.328  0.00  0.00    +0.000 C 
BRANCH  18  21
ATOM     21  C   UNL     1       3.391   4.774  18.425  0.00  0.00    +0.000 A 
ATOM     22  C   UNL     1       3.343   3.765  17.441  0.00  0.00    +0.000 A 
ATOM     23  C   UNL     1       2.403   2.745  17.489  0.00  0.00    +0.000 A 
ATOM     24  C   UNL     1       1.470   2.690  18.520  0.00  0.00    +0.000 A 
ATOM     25  C   UNL     1       1.507   3.669  19.510  0.00  0.00    +0.000 A 
ATOM     26  C   UNL     1       2.455   4.697  19.462  0.00  0.00    +0.000 A 
ENDBRANCH  18  21
ENDBRANCH  14  15
ENDBRANCH   1  14
TORSDOF 5
ENDMDL
MODEL 8
REMARK VINA RESULT:      -6.8      1.936      4.269
REMARK  Name = 
REMARK  5 active torsions:
REMARK  status: ('A' for Active; 'I' for Inactive)
REMARK    1  A    between atoms: O_1  and  C_2
REMARK    2  A    between atoms: C_2  and  C_3
REMARK    3  A    between atoms: C_2  and  C_16
REMARK    4  A    between atoms: C_3  and  N_4
REMARK    5  A    between atoms: N_7  and  C_8
REMARK                            x       y       z     vdW  Elec       q    Type
REMARK                         _______ _______ _______ _____ _____    ______ ____
ROOT
ATOM      1  C   UNL     1       5.188   3.850  17.330  0.00  0.00    +0.000 C 
ENDROOT
BRANCH   1   2
ATOM      2  C   UNL     1       4.302   2.942  18.160  0.00  0.00    +0.000 A 
ATOM      3  C   UNL     1       4.748   2.576  19.457  0.00  0.00    +0.000 A 
ATOM      4  C   UNL     1       3.829   2.315  20.472  0.00  0.00    +0.000 A 
ATOM      5  C   UNL     1       2.501   2.469  20.145  0.00  0.00    +0.000 A 
ATOM      6  C   UNL     1       2.071   2.507  18.817  0.00  0.00    +0.000 A 
ATOM      7  C   UNL     1       2.961   2.759  17.800  0.00  0.00    +0.000 A 
ATOM      8  C   UNL     1       0.582   2.539  18.815  0.00  0.00    +0.000 C 
ATOM      9  C   UNL     1       0.438   3.327  20.120  0.00  0.00    +0.000 C 
ATOM     10  N   UNL     1       1.449   2.786  21.064  0.00  0.00    +0.000 N 
ATOM     11  H   UNL     1       1.153   1.938  21.539  0.00  0.00    +0.000 HD
ENDBRANCH   1   2
BRANCH   1  12
ATOM     12  O   UNL     1       5.553   3.246  16.087  0.00  0.00    +0.000 OA
ATOM     13  H   UNL     1       5.670   4.003  15.477  0.00  0.00    +0.000 HD
ENDBRANCH   1  12
BRANCH   1  14
ATOM     14  C   UNL     1       4.403   5.170  17.035  0.00  0.00    +0.000 C 
BRANCH  14  15
ATOM     15  N   UNL     1       4.831   6.322  17.871  0.00  0.00    +0.000 NA
ATOM     16  C   UNL     1       4.181   7.576  17.394  0.00  0.00    +0.000 C 
ATOM     17  C   UNL     1       2.646   7.624  17.572  0.00  0.00    +0.000 C 
ATOM     18  N   UNL     1       2.257   7.307  18.952  0.00  0.00    +0.000 N 
ATOM     19  C   UNL     1       2.910   6.134  19.562  0.00  0.00    +0.000 C 
ATOM     20  C   UNL     1       4.435   6.149  19.293  0.00  0.00    +0.000 C 
BRANCH  18  21
ATOM     21  C   UNL     1       1.624   8.235  19.755  0.00  0.00    +0.000 A 
ATOM     22  C   UNL     1       1.168   9.454  19.216  0.00  0.00    +0.000 A 
ATOM     23  C   UNL     1       0.546  10.412  20.005  0.00  0.00    +0.000 A 
ATOM     24  C   UNL     1       0.356  10.193  21.366  0.00  0.00    +0.000 A 
ATOM     25  C   UNL     1       0.788   8.989  21.918  0.00  0.00    +0.000 A 
ATOM     26  C   UNL     1       1.414   8.023  21.122  0.00  0.00    +0.000 A 
ENDBRANCH  18  21
ENDBRANCH  14  15
ENDBRANCH   1  14
TORSDOF 5
ENDMDL
MODEL 9
REMARK VINA RESULT:      -6.7      2.779      4.245
REMARK  Name = 
REMARK  5 active torsions:
REMARK  status: ('A' for Active; 'I' for Inactive)
REMARK    1  A    between atoms: O_1  and  C_2
REMARK    2  A    between atoms: C_2  and  C_3
REMARK    3  A    between atoms: C_2  and  C_16
REMARK    4  A    between atoms: C_3  and  N_4
REMARK    5  A    between atoms: N_7  and  C_8
REMARK                            x       y       z     vdW  Elec       q    Type
REMARK                         _______ _______ _______ _____ _____    ______ ____
ROOT
ATOM      1  C   UNL     1       6.655   4.081  16.339  0.00  0.00    +0.000 C 
ENDROOT
BRANCH   1   2
ATOM      2  C   UNL     1       6.473   4.388  14.866  0.00  0.00    +0.000 A 
ATOM      3  C   UNL     1       7.485   5.136  14.209  0.00  0.00    +0.000 A 
ATOM      4  C   UNL     1       7.736   4.943  12.852  0.00  0.00    +0.000 A 
ATOM      5  C   UNL     1       6.981   3.978  12.224  0.00  0.00    +0.000 A 
ATOM      6  C   UNL     1       5.797   3.494  12.782  0.00  0.00    +0.000 A 
ATOM      7  C   UNL     1       5.526   3.678  14.118  0.00  0.00    +0.000 A 
ATOM      8  C   UNL     1       5.162   2.578  11.795  0.00  0.00    +0.000 C 
ATOM      9  C   UNL     1       6.471   2.065  11.189  0.00  0.00    +0.000 C 
ATOM     10  N   UNL     1       7.377   3.236  11.064  0.00  0.00    +0.000 N 
ATOM     11  H   UNL     1       7.208   3.797  10.235  0.00  0.00    +0.000 HD
ENDBRANCH   1   2
BRANCH   1  12
ATOM     12  O   UNL     1       7.795   4.748  16.886  0.00  0.00    +0.000 OA
ATOM     13  H   UNL     1       8.346   4.961  16.105  0.00  0.00    +0.000 HD
ENDBRANCH   1  12
BRANCH   1  14
ATOM     14  C   UNL     1       5.379   4.561  17.105  0.00  0.00    +0.000 C 
BRANCH  14  15
ATOM     15  N   UNL     1       5.636   5.664  18.067  0.00  0.00    +0.000 NA
ATOM     16  C   UNL     1       5.239   6.972  17.471  0.00  0.00    +0.000 C 
ATOM     17  C   UNL     1       3.724   7.140  17.214  0.00  0.00    +0.000 C 
ATOM     18  N   UNL     1       2.940   6.837  18.419  0.00  0.00    +0.000 N 
ATOM     19  C   UNL     1       3.308   5.608  19.146  0.00  0.00    +0.000 C 
ATOM     20  C   UNL     1       4.844   5.506  19.315  0.00  0.00    +0.000 C 
BRANCH  18  21
ATOM     21  C   UNL     1       2.176   7.801  19.044  0.00  0.00    +0.000 A 
ATOM     22  C   UNL     1       1.773   7.637  20.385  0.00  0.00    +0.000 A 
ATOM     23  C   UNL     1       0.989   8.581  21.032  0.00  0.00    +0.000 A 
ATOM     24  C   UNL     1       0.572   9.730  20.366  0.00  0.00    +0.000 A 
ATOM     25  C   UNL     1       0.969   9.920  19.044  0.00  0.00    +0.000 A 
ATOM     26  C   UNL     1       1.761   8.967  18.393  0.00  0.00    +0.000 A 
ENDBRANCH  18  21
ENDBRANCH  14  15
ENDBRANCH   1  14
TORSDOF 5
ENDMDL
