MODEL 1
REMARK VINA RESULT:      -7.7      0.000      0.000
REMARK  Name = 
REMARK  9 active torsions:
REMARK  status: ('A' for Active; 'I' for Inactive)
REMARK    1  A    between atoms: C_1  and  O_2
REMARK    2  A    between atoms: O_2  and  C_3
REMARK    3  A    between atoms: C_5  and  C_6
REMARK    4  A    between atoms: C_10  and  C_11
REMARK    5  A    between atoms: C_16  and  C_17
REMARK    6  A    between atoms: C_27  and  O_28
REMARK    7  A    between atoms: O_28  and  C_29
REMARK    8  A    between atoms: C_30  and  O_31
REMARK    9  A    between atoms: O_31  and  C_32
REMARK                            x       y       z     vdW  Elec       q    Type
REMARK                         _______ _______ _______ _____ _____    ______ ____
ROOT
ATOM      1  C   UNL     1       2.571   7.856  18.239  0.00  0.00    +0.000 A 
ATOM      2  N   UNL     1       3.406   8.390  17.259  0.00  0.00    +0.000 NA
ATOM      3  C   UNL     1       4.104   7.354  16.872  0.00  0.00    +0.000 A 
ATOM      4  S   UNL     1       5.306   7.026  15.684  0.00  0.00    +0.000 S 
ATOM      5  C   UNL     1       5.233   5.351  16.242  0.00  0.00    +0.000 A 
ATOM      6  N   UNL     1       4.401   5.052  17.190  0.00  0.00    +0.000 NA
ATOM      7  N   UNL     1       3.781   6.214  17.519  0.00  0.00    +0.000 N 
ATOM      8  C   UNL     1       2.753   6.472  18.398  0.00  0.00    +0.000 A 
ENDROOT
BRANCH   8   9
ATOM      9  C   UNL     1       2.026   5.375  19.068  0.00  0.00    +0.000 A 
ATOM     10  C   UNL     1       1.395   4.350  18.319  0.00  0.00    +0.000 A 
ATOM     11  C   UNL     1       0.977   3.159  18.915  0.00  0.00    +0.000 A 
ATOM     12  C   UNL     1       1.311   2.977  20.233  0.00  0.00    +0.000 A 
ATOM     13  C   UNL     1       1.863   3.986  20.984  0.00  0.00    +0.000 A 
ATOM     14  C   UNL     1       2.140   5.219  20.456  0.00  0.00    +0.000 A 
ATOM     15  O   UNL     1       2.235   3.561  22.221  0.00  0.00    +0.000 OA
ATOM     16  C   UNL     1       2.184   2.139  21.989  0.00  0.00    +0.000 C 
ATOM     17  O   UNL     1       1.277   1.793  20.920  0.00  0.00    +0.000 OA
ENDBRANCH   8   9
BRANCH   1  20
ATOM     18  C   UNL     1       0.777   9.865  20.855  0.00  0.00    +0.000 A 
ATOM     19  C   UNL     1       1.585   8.875  20.265  0.00  0.00    +0.000 A 
ATOM     20  C   UNL     1       1.523   8.633  18.896  0.00  0.00    +0.000 A 
ATOM     21  C   UNL     1       0.533   9.263  18.149  0.00  0.00    +0.000 A 
ATOM     22  C   UNL     1      -0.289  10.251  18.711  0.00  0.00    +0.000 A 
ATOM     23  C   UNL     1      -0.172  10.575  20.077  0.00  0.00    +0.000 A 
BRANCH  18  25
ATOM     24  C   UNL     1      -0.015   9.438  23.057  0.00  0.00    +0.000 C 
ATOM     25  O   UNL     1       0.879  10.139  22.194  0.00  0.00    +0.000 OA
ENDBRANCH  18  25
BRANCH  22  26
ATOM     26  O   UNL     1      -1.086  10.819  17.746  0.00  0.00    +0.000 OA
ATOM     27  C   UNL     1      -1.965  10.008  16.986  0.00  0.00    +0.000 C 
ENDBRANCH  22  26
BRANCH  23  28
ATOM     28  O   UNL     1      -1.007  11.559  20.534  0.00  0.00    +0.000 OA
ATOM     29  C   UNL     1      -0.588  12.914  20.562  0.00  0.00    +0.000 C 
ENDBRANCH  23  28
ENDBRANCH   1  20
BRANCH   5  30
ATOM     30  C   UNL     1       6.106   4.311  15.666  0.00  0.00    +0.000 C 
ATOM     31  C   UNL     1       5.916   3.868  14.223  0.00  0.00    +0.000 C 
ATOM     32  C   UNL     1       7.125   4.664  14.609  0.00  0.00    +0.000 C 
ENDBRANCH   5  30
TORSDOF 6
ENDMDL
MODEL 2
REMARK VINA RESULT:      -7.0      0.575      2.235
REMARK  Name = 
REMARK  9 active torsions:
REMARK  status: ('A' for Active; 'I' for Inactive)
REMARK    1  A    between atoms: C_1  and  O_2
REMARK    2  A    between atoms: O_2  and  C_3
REMARK    3  A    between atoms: C_5  and  C_6
REMARK    4  A    between atoms: C_10  and  C_11
REMARK    5  A    between atoms: C_16  and  C_17
REMARK    6  A    between atoms: C_27  and  O_28
REMARK    7  A    between atoms: O_28  and  C_29
REMARK    8  A    between atoms: C_30  and  O_31
REMARK    9  A    between atoms: O_31  and  C_32
REMARK                            x       y       z     vdW  Elec       q    Type
REMARK                         _______ _______ _______ _____ _____    ______ ____
ROOT
ATOM      1  C   UNL     1       2.824   7.821  18.084  0.00  0.00    +0.000 A 
ATOM      2  N   UNL     1       3.665   8.293  17.078  0.00  0.00    +0.000 NA
ATOM      3  C   UNL     1       4.268   7.209  16.667  0.00  0.00    +0.000 A 
ATOM      4  S   UNL     1       5.403   6.794  15.440  0.00  0.00    +0.000 S 
ATOM      5  C   UNL     1       5.220   5.128  15.998  0.00  0.00    +0.000 A 
ATOM      6  N   UNL     1       4.399   4.890  16.972  0.00  0.00    +0.000 NA
ATOM      7  N   UNL     1       3.880   6.094  17.323  0.00  0.00    +0.000 N 
ATOM      8  C   UNL     1       2.904   6.427  18.235  0.00  0.00    +0.000 A 
ENDROOT
BRANCH   8   9
ATOM      9  C   UNL     1       2.118   5.386  18.927  0.00  0.00    +0.000 A 
ATOM     10  C   UNL     1       1.428   4.384  18.198  0.00  0.00    +0.000 A 
ATOM     11  C   UNL     1       0.944   3.231  18.818  0.00  0.00    +0.000 A 
ATOM     12  C   UNL     1       1.269   3.056  20.139  0.00  0.00    +0.000 A 
ATOM     13  C   UNL     1       1.879   4.046  20.870  0.00  0.00    +0.000 A 
ATOM     14  C   UNL     1       2.225   5.251  20.318  0.00  0.00    +0.000 A 
ATOM     15  O   UNL     1       2.229   3.625  22.115  0.00  0.00    +0.000 OA
ATOM     16  C   UNL     1       2.097   2.203  21.910  0.00  0.00    +0.000 C 
ATOM     17  O   UNL     1       1.170   1.889  20.849  0.00  0.00    +0.000 OA
ENDBRANCH   8   9
BRANCH   1  20
ATOM     18  C   UNL     1      -0.057  10.165  18.643  0.00  0.00    +0.000 A 
ATOM     19  C   UNL     1       1.078   9.572  18.056  0.00  0.00    +0.000 A 
ATOM     20  C   UNL     1       1.860   8.673  18.776  0.00  0.00    +0.000 A 
ATOM     21  C   UNL     1       1.603   8.500  20.132  0.00  0.00    +0.000 A 
ATOM     22  C   UNL     1       0.483   9.080  20.745  0.00  0.00    +0.000 A 
ATOM     23  C   UNL     1      -0.373   9.918  20.002  0.00  0.00    +0.000 A 
BRANCH  18  25
ATOM     24  C   UNL     1      -1.953  10.408  17.228  0.00  0.00    +0.000 C 
ATOM     25  O   UNL     1      -0.856  11.007  17.915  0.00  0.00    +0.000 OA
ENDBRANCH  18  25
BRANCH  22  26
ATOM     26  O   UNL     1       0.370   8.652  22.045  0.00  0.00    +0.000 OA
ATOM     27  C   UNL     1       0.700   9.527  23.110  0.00  0.00    +0.000 C 
ENDBRANCH  22  26
BRANCH  23  28
ATOM     28  O   UNL     1      -1.447  10.430  20.680  0.00  0.00    +0.000 OA
ATOM     29  C   UNL     1      -1.436  11.765  21.160  0.00  0.00    +0.000 C 
ENDBRANCH  23  28
ENDBRANCH   1  20
BRANCH   5  30
ATOM     30  C   UNL     1       5.991   4.026  15.392  0.00  0.00    +0.000 C 
ATOM     31  C   UNL     1       5.785   3.665  13.929  0.00  0.00    +0.000 C 
ATOM     32  C   UNL     1       7.063   4.313  14.367  0.00  0.00    +0.000 C 
ENDBRANCH   5  30
TORSDOF 6
ENDMDL
MODEL 3
REMARK VINA RESULT:      -7.0      4.673      7.469
REMARK  Name = 
REMARK  9 active torsions:
REMARK  status: ('A' for Active; 'I' for Inactive)
REMARK    1  A    between atoms: C_1  and  O_2
REMARK    2  A    between atoms: O_2  and  C_3
REMARK    3  A    between atoms: C_5  and  C_6
REMARK    4  A    between atoms: C_10  and  C_11
REMARK    5  A    between atoms: C_16  and  C_17
REMARK    6  A    between atoms: C_27  and  O_28
REMARK    7  A    between atoms: O_28  and  C_29
REMARK    8  A    between atoms: C_30  and  O_31
REMARK    9  A    between atoms: O_31  and  C_32
REMARK                            x       y       z     vdW  Elec       q    Type
REMARK                         _______ _______ _______ _____ _____    ______ ____
ROOT
ATOM      1  C   UNL     1      -2.241  12.322  20.229  0.00  0.00    +0.000 A 
ATOM      2  N   UNL     1      -3.508  12.562  19.700  0.00  0.00    +0.000 NA
ATOM      3  C   UNL     1      -3.520  11.824  18.621  0.00  0.00    +0.000 A 
ATOM      4  S   UNL     1      -4.654  11.428  17.387  0.00  0.00    +0.000 S 
ATOM      5  C   UNL     1      -3.396  10.375  16.733  0.00  0.00    +0.000 A 
ATOM      6  N   UNL     1      -2.264  10.302  17.359  0.00  0.00    +0.000 NA
ATOM      7  N   UNL     1      -2.374  11.139  18.423  0.00  0.00    +0.000 N 
ATOM      8  C   UNL     1      -1.514  11.391  19.467  0.00  0.00    +0.000 A 
ENDROOT
BRANCH   8   9
ATOM      9  C   UNL     1      -0.282  10.598  19.652  0.00  0.00    +0.000 A 
ATOM     10  C   UNL     1      -0.137   9.717  20.754  0.00  0.00    +0.000 A 
ATOM     11  C   UNL     1       0.863   8.744  20.787  0.00  0.00    +0.000 A 
ATOM     12  C   UNL     1       1.623   8.600  19.654  0.00  0.00    +0.000 A 
ATOM     13  C   UNL     1       1.535   9.487  18.608  0.00  0.00    +0.000 A 
ATOM     14  C   UNL     1       0.666  10.545  18.621  0.00  0.00    +0.000 A 
ATOM     15  O   UNL     1       2.274   9.092  17.537  0.00  0.00    +0.000 OA
ATOM     16  C   UNL     1       2.504   7.722  17.922  0.00  0.00    +0.000 C 
ATOM     17  O   UNL     1       2.432   7.538  19.352  0.00  0.00    +0.000 OA
ENDBRANCH   8   9
BRANCH   1  20
ATOM     18  C   UNL     1      -0.374  14.403  22.736  0.00  0.00    +0.000 A 
ATOM     19  C   UNL     1      -0.642  13.624  21.594  0.00  0.00    +0.000 A 
ATOM     20  C   UNL     1      -1.803  12.860  21.514  0.00  0.00    +0.000 A 
ATOM     21  C   UNL     1      -2.608  12.746  22.643  0.00  0.00    +0.000 A 
ATOM     22  C   UNL     1      -2.363  13.507  23.795  0.00  0.00    +0.000 A 
ATOM     23  C   UNL     1      -1.242  14.359  23.855  0.00  0.00    +0.000 A 
BRANCH  18  25
ATOM     24  C   UNL     1       1.744  14.954  21.803  0.00  0.00    +0.000 C 
ATOM     25  O   UNL     1       0.742  15.197  22.789  0.00  0.00    +0.000 OA
ENDBRANCH  18  25
BRANCH  22  26
ATOM     26  O   UNL     1      -3.368  13.324  24.714  0.00  0.00    +0.000 OA
ATOM     27  C   UNL     1      -4.555  12.648  24.339  0.00  0.00    +0.000 C 
ENDBRANCH  22  26
BRANCH  23  28
ATOM     28  O   UNL     1      -1.091  15.071  25.014  0.00  0.00    +0.000 OA
ATOM     29  C   UNL     1      -1.663  16.361  25.155  0.00  0.00    +0.000 C 
ENDBRANCH  23  28
ENDBRANCH   1  20
BRANCH   5  30
ATOM     30  C   UNL     1      -3.607   9.605  15.492  0.00  0.00    +0.000 C 
ATOM     31  C   UNL     1      -4.002  10.319  14.209  0.00  0.00    +0.000 C 
ATOM     32  C   UNL     1      -2.634   9.722  14.342  0.00  0.00    +0.000 C 
ENDBRANCH   5  30
TORSDOF 6
ENDMDL
MODEL 4
REMARK VINA RESULT:      -6.8      3.859      8.933
REMARK  Name = 
REMARK  9 active torsions:
REMARK  status: ('A' for Active; 'I' for Inactive)
REMARK    1  A    between atoms: C_1  and  O_2
REMARK    2  A    between atoms: O_2  and  C_3
REMARK    3  A    between atoms: C_5  and  C_6
REMARK    4  A    between atoms: C_10  and  C_11
REMARK    5  A    between atoms: C_16  and  C_17
REMARK    6  A    between atoms: C_27  and  O_28
REMARK    7  A    between atoms: O_28  and  C_29
REMARK    8  A    between atoms: C_30  and  O_31
REMARK    9  A    between atoms: O_31  and  C_32
REMARK                            x       y       z     vdW  Elec       q    Type
REMARK                         _______ _______ _______ _____ _____    ______ ____
ROOT
ATOM      1  C   UNL     1       1.222  11.754  18.846  0.00  0.00    +0.000 A 
ATOM      2  N   UNL     1       2.334  12.594  18.827  0.00  0.00    +0.000 NA
ATOM      3  C   UNL     1       1.801  13.784  18.726  0.00  0.00    +0.000 A 
ATOM      4  S   UNL     1       2.364  15.411  18.700  0.00  0.00    +0.000 S 
ATOM      5  C   UNL     1       0.661  15.874  18.611  0.00  0.00    +0.000 A 
ATOM      6  N   UNL     1      -0.235  14.938  18.617  0.00  0.00    +0.000 NA
ATOM      7  N   UNL     1       0.452  13.768  18.683  0.00  0.00    +0.000 N 
ATOM      8  C   UNL     1       0.014  12.469  18.801  0.00  0.00    +0.000 A 
ENDROOT
BRANCH   8   9
ATOM      9  C   UNL     1      -1.412  12.160  19.029  0.00  0.00    +0.000 A 
ATOM     10  C   UNL     1      -2.113  12.712  20.132  0.00  0.00    +0.000 A 
ATOM     11  C   UNL     1      -3.507  12.690  20.198  0.00  0.00    +0.000 A 
ATOM     12  C   UNL     1      -4.171  12.217  19.095  0.00  0.00    +0.000 A 
ATOM     13  C   UNL     1      -3.505  11.622  18.051  0.00  0.00    +0.000 A 
ATOM     14  C   UNL     1      -2.142  11.493  18.036  0.00  0.00    +0.000 A 
ATOM     15  O   UNL     1      -4.331  11.343  17.007  0.00  0.00    +0.000 OA
ATOM     16  C   UNL     1      -5.456  12.157  17.394  0.00  0.00    +0.000 C 
ATOM     17  O   UNL     1      -5.502  12.382  18.819  0.00  0.00    +0.000 OA
ENDBRANCH   8   9
BRANCH   1  20
ATOM     18  C   UNL     1       2.251   8.176  18.354  0.00  0.00    +0.000 A 
ATOM     19  C   UNL     1       1.858   9.496  18.063  0.00  0.00    +0.000 A 
ATOM     20  C   UNL     1       1.323  10.312  19.056  0.00  0.00    +0.000 A 
ATOM     21  C   UNL     1       1.027   9.752  20.294  0.00  0.00    +0.000 A 
ATOM     22  C   UNL     1       1.403   8.439  20.612  0.00  0.00    +0.000 A 
ATOM     23  C   UNL     1       2.033   7.630  19.644  0.00  0.00    +0.000 A 
BRANCH  18  25
ATOM     24  C   UNL     1       4.246   7.245  17.452  0.00  0.00    +0.000 C 
ATOM     25  O   UNL     1       2.828   7.393  17.389  0.00  0.00    +0.000 OA
ENDBRANCH  18  25
BRANCH  22  26
ATOM     26  O   UNL     1       1.128   8.165  21.929  0.00  0.00    +0.000 OA
ATOM     27  C   UNL     1       0.618   9.184  22.773  0.00  0.00    +0.000 C 
ENDBRANCH  22  26
BRANCH  23  28
ATOM     28  O   UNL     1       2.375   6.368  20.048  0.00  0.00    +0.000 OA
ATOM     29  C   UNL     1       1.394   5.350  20.162  0.00  0.00    +0.000 C 
ENDBRANCH  23  28
ENDBRANCH   1  20
BRANCH   5  30
ATOM     30  C   UNL     1       0.254  17.289  18.512  0.00  0.00    +0.000 C 
ATOM     31  C   UNL     1       0.582  18.091  17.263  0.00  0.00    +0.000 C 
ATOM     32  C   UNL     1      -0.836  17.707  17.553  0.00  0.00    +0.000 C 
ENDBRANCH   5  30
TORSDOF 6
ENDMDL
MODEL 5
REMARK VINA RESULT:      -6.5      3.616      6.985
REMARK  Name = 
REMARK  9 active torsions:
REMARK  status: ('A' for Active; 'I' for Inactive)
REMARK    1  A    between atoms: C_1  and  O_2
REMARK    2  A    between atoms: O_2  and  C_3
REMARK    3  A    between atoms: C_5  and  C_6
REMARK    4  A    between atoms: C_10  and  C_11
REMARK    5  A    between atoms: C_16  and  C_17
REMARK    6  A    between atoms: C_27  and  O_28
REMARK    7  A    between atoms: O_28  and  C_29
REMARK    8  A    between atoms: C_30  and  O_31
REMARK    9  A    between atoms: O_31  and  C_32
REMARK                            x       y       z     vdW  Elec       q    Type
REMARK                         _______ _______ _______ _____ _____    ______ ____
ROOT
ATOM      1  C   UNL     1       3.041   7.613  18.257  0.00  0.00    +0.000 A 
ATOM      2  N   UNL     1       2.648   8.945  18.147  0.00  0.00    +0.000 NA
ATOM      3  C   UNL     1       1.780   9.077  19.116  0.00  0.00    +0.000 A 
ATOM      4  S   UNL     1       0.836  10.349  19.789  0.00  0.00    +0.000 S 
ATOM      5  C   UNL     1       0.280   9.156  20.967  0.00  0.00    +0.000 A 
ATOM      6  N   UNL     1       0.747   7.950  20.892  0.00  0.00    +0.000 NA
ATOM      7  N   UNL     1       1.594   7.946  19.830  0.00  0.00    +0.000 N 
ATOM      8  C   UNL     1       2.425   6.964  19.341  0.00  0.00    +0.000 A 
ENDROOT
BRANCH   8   9
ATOM      9  C   UNL     1       2.621   5.695  20.069  0.00  0.00    +0.000 A 
ATOM     10  C   UNL     1       1.521   4.985  20.614  0.00  0.00    +0.000 A 
ATOM     11  C   UNL     1       1.638   3.657  21.027  0.00  0.00    +0.000 A 
ATOM     12  C   UNL     1       2.832   3.034  20.772  0.00  0.00    +0.000 A 
ATOM     13  C   UNL     1       3.923   3.726  20.305  0.00  0.00    +0.000 A 
ATOM     14  C   UNL     1       3.875   5.068  20.039  0.00  0.00    +0.000 A 
ATOM     15  O   UNL     1       4.961   2.903  19.998  0.00  0.00    +0.000 OA
ATOM     16  C   UNL     1       4.250   1.648  19.984  0.00  0.00    +0.000 C 
ATOM     17  O   UNL     1       3.065   1.684  20.808  0.00  0.00    +0.000 OA
ENDBRANCH   8   9
BRANCH   1  20
ATOM     18  C   UNL     1       6.445   6.975  16.804  0.00  0.00    +0.000 A 
ATOM     19  C   UNL     1       5.329   7.662  17.321  0.00  0.00    +0.000 A 
ATOM     20  C   UNL     1       4.096   7.027  17.434  0.00  0.00    +0.000 A 
ATOM     21  C   UNL     1       3.940   5.764  16.873  0.00  0.00    +0.000 A 
ATOM     22  C   UNL     1       5.031   5.057  16.347  0.00  0.00    +0.000 A 
ATOM     23  C   UNL     1       6.308   5.652  16.313  0.00  0.00    +0.000 A 
BRANCH  18  25
ATOM     24  C   UNL     1       7.999   8.461  17.822  0.00  0.00    +0.000 C 
ATOM     25  O   UNL     1       7.670   7.584  16.745  0.00  0.00    +0.000 OA
ENDBRANCH  18  25
BRANCH  22  26
ATOM     26  O   UNL     1       4.652   3.788  15.983  0.00  0.00    +0.000 OA
ATOM     27  C   UNL     1       3.602   3.137  16.678  0.00  0.00    +0.000 C 
ENDBRANCH  22  26
BRANCH  23  28
ATOM     28  O   UNL     1       7.315   4.883  15.794  0.00  0.00    +0.000 OA
ATOM     29  C   UNL     1       7.487   4.763  14.391  0.00  0.00    +0.000 C 
ENDBRANCH  23  28
ENDBRANCH   1  20
BRANCH   5  30
ATOM     30  C   UNL     1      -0.709   9.504  22.005  0.00  0.00    +0.000 C 
ATOM     31  C   UNL     1      -0.257   9.755  23.435  0.00  0.00    +0.000 C 
ATOM     32  C   UNL     1      -0.744  10.895  22.594  0.00  0.00    +0.000 C 
ENDBRANCH   5  30
TORSDOF 6
ENDMDL
MODEL 6
REMARK VINA RESULT:      -6.4      6.935      9.952
REMARK  Name = 
REMARK  9 active torsions:
REMARK  status: ('A' for Active; 'I' for Inactive)
REMARK    1  A    between atoms: C_1  and  O_2
REMARK    2  A    between atoms: O_2  and  C_3
REMARK    3  A    between atoms: C_5  and  C_6
REMARK    4  A    between atoms: C_10  and  C_11
REMARK    5  A    between atoms: C_16  and  C_17
REMARK    6  A    between atoms: C_27  and  O_28
REMARK    7  A    between atoms: O_28  and  C_29
REMARK    8  A    between atoms: C_30  and  O_31
REMARK    9  A    between atoms: O_31  and  C_32
REMARK                            x       y       z     vdW  Elec       q    Type
REMARK                         _______ _______ _______ _____ _____    ______ ____
ROOT
ATOM      1  C   UNL     1      -1.686  14.790  21.884  0.00  0.00    +0.000 A 
ATOM      2  N   UNL     1      -2.513  15.712  22.523  0.00  0.00    +0.000 NA
ATOM      3  C   UNL     1      -3.514  14.976  22.929  0.00  0.00    +0.000 A 
ATOM      4  S   UNL     1      -4.952  15.212  23.846  0.00  0.00    +0.000 S 
ATOM      5  C   UNL     1      -5.221  13.477  23.653  0.00  0.00    +0.000 A 
ATOM      6  N   UNL     1      -4.341  12.785  22.999  0.00  0.00    +0.000 NA
ATOM      7  N   UNL     1      -3.391  13.671  22.605  0.00  0.00    +0.000 N 
ATOM      8  C   UNL     1      -2.192  13.481  21.956  0.00  0.00    +0.000 A 
ENDROOT
BRANCH   8   9
ATOM      9  C   UNL     1      -1.669  12.125  21.696  0.00  0.00    +0.000 A 
ATOM     10  C   UNL     1      -1.407  11.682  20.374  0.00  0.00    +0.000 A 
ATOM     11  C   UNL     1      -0.638  10.546  20.122  0.00  0.00    +0.000 A 
ATOM     12  C   UNL     1      -0.048   9.945  21.205  0.00  0.00    +0.000 A 
ATOM     13  C   UNL     1      -0.345  10.325  22.491  0.00  0.00    +0.000 A 
ATOM     14  C   UNL     1      -1.221  11.340  22.767  0.00  0.00    +0.000 A 
ATOM     15  O   UNL     1       0.440   9.696  23.407  0.00  0.00    +0.000 OA
ATOM     16  C   UNL     1       1.458   9.196  22.516  0.00  0.00    +0.000 C 
ATOM     17  O   UNL     1       0.969   9.029  21.168  0.00  0.00    +0.000 OA
ENDBRANCH   8   9
BRANCH   1  20
ATOM     18  C   UNL     1       2.016  14.685  21.261  0.00  0.00    +0.000 A 
ATOM     19  C   UNL     1       0.780  14.620  21.934  0.00  0.00    +0.000 A 
ATOM     20  C   UNL     1      -0.372  15.140  21.352  0.00  0.00    +0.000 A 
ATOM     21  C   UNL     1      -0.254  15.873  20.175  0.00  0.00    +0.000 A 
ATOM     22  C   UNL     1       0.964  15.958  19.485  0.00  0.00    +0.000 A 
ATOM     23  C   UNL     1       2.121  15.354  20.016  0.00  0.00    +0.000 A 
BRANCH  18  25
ATOM     24  C   UNL     1       3.995  14.999  22.543  0.00  0.00    +0.000 C 
ATOM     25  O   UNL     1       3.138  14.123  21.812  0.00  0.00    +0.000 OA
ENDBRANCH  18  25
BRANCH  22  26
ATOM     26  O   UNL     1       0.794  16.613  18.290  0.00  0.00    +0.000 OA
ATOM     27  C   UNL     1      -0.450  17.220  17.985  0.00  0.00    +0.000 C 
ENDBRANCH  22  26
BRANCH  23  28
ATOM     28  O   UNL     1       3.260  15.478  19.267  0.00  0.00    +0.000 OA
ATOM     29  C   UNL     1       3.598  14.508  18.290  0.00  0.00    +0.000 C 
ENDBRANCH  23  28
ENDBRANCH   1  20
BRANCH   5  30
ATOM     30  C   UNL     1      -6.423  12.820  24.200  0.00  0.00    +0.000 C 
ATOM     31  C   UNL     1      -7.777  13.506  24.107  0.00  0.00    +0.000 C 
ATOM     32  C   UNL     1      -7.495  12.292  23.276  0.00  0.00    +0.000 C 
ENDBRANCH   5  30
TORSDOF 6
ENDMDL
MODEL 7
REMARK VINA RESULT:      -6.4      6.873     10.294
REMARK  Name = 
REMARK  9 active torsions:
REMARK  status: ('A' for Active; 'I' for Inactive)
REMARK    1  A    between atoms: C_1  and  O_2
REMARK    2  A    between atoms: O_2  and  C_3
REMARK    3  A    between atoms: C_5  and  C_6
REMARK    4  A    between atoms: C_10  and  C_11
REMARK    5  A    between atoms: C_16  and  C_17
REMARK    6  A    between atoms: C_27  and  O_28
REMARK    7  A    between atoms: O_28  and  C_29
REMARK    8  A    between atoms: C_30  and  O_31
REMARK    9  A    between atoms: O_31  and  C_32
REMARK                            x       y       z     vdW  Elec       q    Type
REMARK                         _______ _______ _______ _____ _____    ______ ____
ROOT
ATOM      1  C   UNL     1      -1.990  13.771  20.814  0.00  0.00    +0.000 A 
ATOM      2  N   UNL     1      -1.951  14.187  22.144  0.00  0.00    +0.000 NA
ATOM      3  C   UNL     1      -3.098  13.773  22.615  0.00  0.00    +0.000 A 
ATOM      4  S   UNL     1      -3.898  13.766  24.139  0.00  0.00    +0.000 S 
ATOM      5  C   UNL     1      -5.196  12.890  23.322  0.00  0.00    +0.000 A 
ATOM      6  N   UNL     1      -5.057  12.613  22.064  0.00  0.00    +0.000 NA
ATOM      7  N   UNL     1      -3.856  13.130  21.701  0.00  0.00    +0.000 N 
ATOM      8  C   UNL     1      -3.164  13.060  20.513  0.00  0.00    +0.000 A 
ENDROOT
BRANCH   8   9
ATOM      9  C   UNL     1      -3.633  12.206  19.404  0.00  0.00    +0.000 A 
ATOM     10  C   UNL     1      -4.866  12.464  18.752  0.00  0.00    +0.000 A 
ATOM     11  C   UNL     1      -5.183  11.879  17.525  0.00  0.00    +0.000 A 
ATOM     12  C   UNL     1      -4.198  11.138  16.921  0.00  0.00    +0.000 A 
ATOM     13  C   UNL     1      -3.027  10.830  17.569  0.00  0.00    +0.000 A 
ATOM     14  C   UNL     1      -2.760  11.266  18.839  0.00  0.00    +0.000 A 
ATOM     15  O   UNL     1      -2.138  10.202  16.752  0.00  0.00    +0.000 OA
ATOM     16  C   UNL     1      -2.757  10.501  15.484  0.00  0.00    +0.000 C 
ATOM     17  O   UNL     1      -4.175  10.738  15.612  0.00  0.00    +0.000 OA
ENDBRANCH   8   9
BRANCH   1  20
ATOM     18  C   UNL     1       0.757  15.394  18.833  0.00  0.00    +0.000 A 
ATOM     19  C   UNL     1      -0.495  15.186  19.445  0.00  0.00    +0.000 A 
ATOM     20  C   UNL     1      -0.859  13.923  19.903  0.00  0.00    +0.000 A 
ATOM     21  C   UNL     1      -0.042  12.840  19.597  0.00  0.00    +0.000 A 
ATOM     22  C   UNL     1       1.208  13.016  18.985  0.00  0.00    +0.000 A 
ATOM     23  C   UNL     1       1.632  14.304  18.601  0.00  0.00    +0.000 A 
BRANCH  18  25
ATOM     24  C   UNL     1       1.131  17.665  19.434  0.00  0.00    +0.000 C 
ATOM     25  O   UNL     1       1.135  16.649  18.433  0.00  0.00    +0.000 OA
ENDBRANCH  18  25
BRANCH  22  26
ATOM     26  O   UNL     1       1.882  11.821  18.915  0.00  0.00    +0.000 OA
ATOM     27  C   UNL     1       1.162  10.612  18.744  0.00  0.00    +0.000 C 
ENDBRANCH  22  26
BRANCH  23  28
ATOM     28  O   UNL     1       2.870  14.380  18.023  0.00  0.00    +0.000 OA
ATOM     29  C   UNL     1       4.016  14.697  18.797  0.00  0.00    +0.000 C 
ENDBRANCH  23  28
ENDBRANCH   1  20
BRANCH   5  30
ATOM     30  C   UNL     1      -6.425  12.495  24.037  0.00  0.00    +0.000 C 
ATOM     31  C   UNL     1      -7.562  13.490  24.207  0.00  0.00    +0.000 C 
ATOM     32  C   UNL     1      -7.725  12.319  23.287  0.00  0.00    +0.000 C 
ENDBRANCH   5  30
TORSDOF 6
ENDMDL
MODEL 8
REMARK VINA RESULT:      -6.3      4.522      6.907
REMARK  Name = 
REMARK  9 active torsions:
REMARK  status: ('A' for Active; 'I' for Inactive)
REMARK    1  A    between atoms: C_1  and  O_2
REMARK    2  A    between atoms: O_2  and  C_3
REMARK    3  A    between atoms: C_5  and  C_6
REMARK    4  A    between atoms: C_10  and  C_11
REMARK    5  A    between atoms: C_16  and  C_17
REMARK    6  A    between atoms: C_27  and  O_28
REMARK    7  A    between atoms: O_28  and  C_29
REMARK    8  A    between atoms: C_30  and  O_31
REMARK    9  A    between atoms: O_31  and  C_32
REMARK                            x       y       z     vdW  Elec       q    Type
REMARK                         _______ _______ _______ _____ _____    ______ ____
ROOT
ATOM      1  C   UNL     1      -0.904  12.931  19.157  0.00  0.00    +0.000 A 
ATOM      2  N   UNL     1      -0.661  14.303  19.120  0.00  0.00    +0.000 NA
ATOM      3  C   UNL     1       0.644  14.370  19.156  0.00  0.00    +0.000 A 
ATOM      4  S   UNL     1       1.837  15.610  19.084  0.00  0.00    +0.000 S 
ATOM      5  C   UNL     1       3.027  14.306  19.157  0.00  0.00    +0.000 A 
ATOM      6  N   UNL     1       2.601  13.083  19.212  0.00  0.00    +0.000 NA
ATOM      7  N   UNL     1       1.246  13.163  19.209  0.00  0.00    +0.000 N 
ATOM      8  C   UNL     1       0.283  12.180  19.170  0.00  0.00    +0.000 A 
ENDROOT
BRANCH   8   9
ATOM      9  C   UNL     1       0.645  10.762  18.969  0.00  0.00    +0.000 A 
ATOM     10  C   UNL     1       1.539  10.373  17.939  0.00  0.00    +0.000 A 
ATOM     11  C   UNL     1       2.130   9.109  17.920  0.00  0.00    +0.000 A 
ATOM     12  C   UNL     1       1.901   8.304  19.007  0.00  0.00    +0.000 A 
ATOM     13  C   UNL     1       0.989   8.643  19.977  0.00  0.00    +0.000 A 
ATOM     14  C   UNL     1       0.280   9.813  19.934  0.00  0.00    +0.000 A 
ATOM     15  O   UNL     1       1.009   7.776  21.025  0.00  0.00    +0.000 OA
ATOM     16  C   UNL     1       2.261   7.119  20.743  0.00  0.00    +0.000 C 
ATOM     17  O   UNL     1       2.604   7.178  19.342  0.00  0.00    +0.000 OA
ENDBRANCH   8   9
BRANCH   1  20
ATOM     18  C   UNL     1      -4.548  12.293  19.803  0.00  0.00    +0.000 A 
ATOM     19  C   UNL     1      -3.184  12.555  20.037  0.00  0.00    +0.000 A 
ATOM     20  C   UNL     1      -2.242  12.360  19.031  0.00  0.00    +0.000 A 
ATOM     21  C   UNL     1      -2.643  11.743  17.850  0.00  0.00    +0.000 A 
ATOM     22  C   UNL     1      -3.993  11.467  17.591  0.00  0.00    +0.000 A 
ATOM     23  C   UNL     1      -4.972  11.748  18.565  0.00  0.00    +0.000 A 
BRANCH  18  25
ATOM     24  C   UNL     1      -4.977  12.846  22.077  0.00  0.00    +0.000 C 
ATOM     25  O   UNL     1      -5.480  12.538  20.777  0.00  0.00    +0.000 OA
ENDBRANCH  18  25
BRANCH  22  26
ATOM     26  O   UNL     1      -4.150  10.990  16.312  0.00  0.00    +0.000 OA
ATOM     27  C   UNL     1      -3.014  10.605  15.557  0.00  0.00    +0.000 C 
ENDBRANCH  22  26
BRANCH  23  28
ATOM     28  O   UNL     1      -6.264  11.456  18.220  0.00  0.00    +0.000 OA
ATOM     29  C   UNL     1      -7.125  12.461  17.707  0.00  0.00    +0.000 C 
ENDBRANCH  23  28
ENDBRANCH   1  20
BRANCH   5  30
ATOM     30  C   UNL     1       4.475  14.588  19.177  0.00  0.00    +0.000 C 
ATOM     31  C   UNL     1       5.251  14.690  17.874  0.00  0.00    +0.000 C 
ATOM     32  C   UNL     1       5.004  15.918  18.695  0.00  0.00    +0.000 C 
ENDBRANCH   5  30
TORSDOF 6
ENDMDL
MODEL 9
REMARK VINA RESULT:      -6.3      6.472      9.356
REMARK  Name = 
REMARK  9 active torsions:
REMARK  status: ('A' for Active; 'I' for Inactive)
REMARK    1  A    between atoms: C_1  and  O_2
REMARK    2  A    between atoms: O_2  and  C_3
REMARK    3  A    between atoms: C_5  and  C_6
REMARK    4  A    between atoms: C_10  and  C_11
REMARK    5  A    between atoms: C_16  and  C_17
REMARK    6  A    between atoms: C_27  and  O_28
REMARK    7  A    between atoms: O_28  and  C_29
REMARK    8  A    between atoms: C_30  and  O_31
REMARK    9  A    between atoms: O_31  and  C_32
REMARK                            x       y       z     vdW  Elec       q    Type
REMARK                         _______ _______ _______ _____ _____    ______ ____
ROOT
ATOM      1  C   UNL     1      -3.289  14.166  21.050  0.00  0.00    +0.000 A 
ATOM      2  N   UNL     1      -3.127  15.541  20.890  0.00  0.00    +0.000 NA
ATOM      3  C   UNL     1      -1.834  15.699  21.002  0.00  0.00    +0.000 A 
ATOM      4  S   UNL     1      -0.716  17.002  20.882  0.00  0.00    +0.000 S 
ATOM      5  C   UNL     1       0.543  15.795  21.164  0.00  0.00    +0.000 A 
ATOM      6  N   UNL     1       0.188  14.558  21.314  0.00  0.00    +0.000 NA
ATOM      7  N   UNL     1      -1.166  14.545  21.216  0.00  0.00    +0.000 N 
ATOM      8  C   UNL     1      -2.062  13.500  21.215  0.00  0.00    +0.000 A 
ENDROOT
BRANCH   8   9
ATOM      9  C   UNL     1      -1.602  12.098  21.183  0.00  0.00    +0.000 A 
ATOM     10  C   UNL     1      -1.324  11.446  19.954  0.00  0.00    +0.000 A 
ATOM     11  C   UNL     1      -0.607  10.250  19.905  0.00  0.00    +0.000 A 
ATOM     12  C   UNL     1      -0.080   9.797  21.088  0.00  0.00    +0.000 A 
ATOM     13  C   UNL     1      -0.396  10.382  22.290  0.00  0.00    +0.000 A 
ATOM     14  C   UNL     1      -1.226  11.467  22.376  0.00  0.00    +0.000 A 
ATOM     15  O   UNL     1       0.329   9.865  23.319  0.00  0.00    +0.000 OA
ATOM     16  C   UNL     1       1.346   9.189  22.553  0.00  0.00    +0.000 C 
ATOM     17  O   UNL     1       0.889   8.840  21.228  0.00  0.00    +0.000 OA
ENDBRANCH   8   9
BRANCH   1  20
ATOM     18  C   UNL     1      -6.055  12.132  19.527  0.00  0.00    +0.000 A 
ATOM     19  C   UNL     1      -4.986  13.042  19.646  0.00  0.00    +0.000 A 
ATOM     20  C   UNL     1      -4.578  13.497  20.896  0.00  0.00    +0.000 A 
ATOM     21  C   UNL     1      -5.348  13.174  22.009  0.00  0.00    +0.000 A 
ATOM     22  C   UNL     1      -6.420  12.274  21.921  0.00  0.00    +0.000 A 
ATOM     23  C   UNL     1      -6.785  11.730  20.673  0.00  0.00    +0.000 A 
BRANCH  18  25
ATOM     24  C   UNL     1      -6.939  12.589  17.366  0.00  0.00    +0.000 C 
ATOM     25  O   UNL     1      -6.418  11.644  18.299  0.00  0.00    +0.000 OA
ENDBRANCH  18  25
BRANCH  22  26
ATOM     26  O   UNL     1      -6.931  12.010  23.168  0.00  0.00    +0.000 OA
ATOM     27  C   UNL     1      -7.628  13.021  23.876  0.00  0.00    +0.000 C 
ENDBRANCH  22  26
BRANCH  23  28
ATOM     28  O   UNL     1      -7.835  10.852  20.685  0.00  0.00    +0.000 OA
ATOM     29  C   UNL     1      -7.614   9.452  20.633  0.00  0.00    +0.000 C 
ENDBRANCH  23  28
ENDBRANCH   1  20
BRANCH   5  30
ATOM     30  C   UNL     1       1.966  16.174  21.248  0.00  0.00    +0.000 C 
ATOM     31  C   UNL     1       2.543  16.684  22.559  0.00  0.00    +0.000 C 
ATOM     32  C   UNL     1       2.937  15.333  22.044  0.00  0.00    +0.000 C 
ENDBRANCH   5  30
TORSDOF 6
ENDMDL
