MODEL 1
REMARK VINA RESULT:      -6.9      0.000      0.000
REMARK  Name = 
REMARK  12 active torsions:
REMARK  status: ('A' for Active; 'I' for Inactive)
REMARK    1  A    between atoms: C_1  and  O_2
REMARK    2  A    between atoms: O_2  and  C_3
REMARK    3  A    between atoms: C_3  and  C_5
REMARK    4  A    between atoms: C_5  and  C_6
REMARK    5  A    between atoms: C_5  and  N_13
REMARK    6  A    between atoms: C_6  and  C_7
REMARK    7  A    between atoms: C_14  and  C_16
REMARK    8  A    between atoms: C_16  and  C_17
REMARK    9  A    between atoms: C_17  and  C_19
REMARK   10  A    between atoms: C_19  and  N_20
REMARK   11  A    between atoms: C_19  and  C_21
REMARK   12  A    between atoms: C_21  and  C_22
REMARK                            x       y       z     vdW  Elec       q    Type
REMARK                         _______ _______ _______ _____ _____    ______ ____
ROOT
ATOM      1  N   UNL     1       4.758   5.351  17.353  0.00  0.00    +0.000 N 
ATOM      2  C   UNL     1       3.510   4.800  17.238  0.00  0.00    +0.000 C 
ATOM      3  O   UNL     1       3.296   3.810  16.546  0.00  0.00    +0.000 OA
ATOM      4  H   UNL     1       4.897   6.113  18.022  0.00  0.00    +0.000 HD
ENDROOT
BRANCH   1   5
ATOM      5  C   UNL     1       5.953   4.796  16.711  0.00  0.00    +0.000 C 
BRANCH   5   6
ATOM      6  C   UNL     1       7.110   4.557  17.692  0.00  0.00    +0.000 C 
ATOM      7  O   UNL     1       8.219   4.162  17.351  0.00  0.00    +0.000 OA
BRANCH   6   9
ATOM      8  C   UNL     1       7.617   5.725  19.658  0.00  0.00    +0.000 C 
ATOM      9  O   UNL     1       6.749   4.817  18.980  0.00  0.00    +0.000 OA
ENDBRANCH   6   9
ENDBRANCH   5   6
BRANCH   5  10
ATOM     10  C   UNL     1       6.430   5.639  15.514  0.00  0.00    +0.000 C 
BRANCH  10  11
ATOM     11  C   UNL     1       6.516   4.879  14.206  0.00  0.00    +0.000 A 
ATOM     12  C   UNL     1       7.547   5.130  13.291  0.00  0.00    +0.000 A 
ATOM     13  C   UNL     1       7.580   4.465  12.063  0.00  0.00    +0.000 A 
ATOM     14  C   UNL     1       6.588   3.538  11.743  0.00  0.00    +0.000 A 
ATOM     15  C   UNL     1       5.573   3.263  12.656  0.00  0.00    +0.000 A 
ATOM     16  C   UNL     1       5.539   3.928  13.882  0.00  0.00    +0.000 A 
ENDBRANCH  10  11
ENDBRANCH   5  10
ENDBRANCH   1   5
BRANCH   2  17
ATOM     17  C   UNL     1       2.378   5.534  17.917  0.00  0.00    +0.000 C 
BRANCH  17  18
ATOM     18  C   UNL     1       2.654   6.178  19.262  0.00  0.00    +0.000 C 
ATOM     19  O   UNL     1       3.477   7.086  19.389  0.00  0.00    +0.000 OA
BRANCH  18  20
ATOM     20  C   UNL     1       1.691   5.796  20.412  0.00  0.00    +0.000 C 
BRANCH  20  21
ATOM     21  N   UNL     1       1.506   7.015  21.227  0.00  0.00    +0.000 NA
ATOM     22  H   UNL     1       1.658   6.773  22.212  0.00  0.00    +0.000 HD
ATOM     23  H   UNL     1       0.531   7.317  21.174  0.00  0.00    +0.000 HD
ENDBRANCH  20  21
BRANCH  20  24
ATOM     24  C   UNL     1       2.189   4.621  21.289  0.00  0.00    +0.000 C 
BRANCH  24  25
ATOM     25  C   UNL     1       2.511   3.381  20.489  0.00  0.00    +0.000 A 
ATOM     26  C   UNL     1       3.844   2.969  20.348  0.00  0.00    +0.000 A 
ATOM     27  C   UNL     1       4.179   1.951  19.457  0.00  0.00    +0.000 A 
ATOM     28  C   UNL     1       3.186   1.331  18.704  0.00  0.00    +0.000 A 
ATOM     29  C   UNL     1       1.849   1.672  18.902  0.00  0.00    +0.000 A 
ATOM     30  C   UNL     1       1.509   2.680  19.806  0.00  0.00    +0.000 A 
ENDBRANCH  24  25
ENDBRANCH  20  24
ENDBRANCH  18  20
ENDBRANCH  17  18
ENDBRANCH   2  17
TORSDOF 11
ENDMDL
MODEL 2
REMARK VINA RESULT:      -6.8      1.976      7.043
REMARK  Name = 
REMARK  12 active torsions:
REMARK  status: ('A' for Active; 'I' for Inactive)
REMARK    1  A    between atoms: C_1  and  O_2
REMARK    2  A    between atoms: O_2  and  C_3
REMARK    3  A    between atoms: C_3  and  C_5
REMARK    4  A    between atoms: C_5  and  C_6
REMARK    5  A    between atoms: C_5  and  N_13
REMARK    6  A    between atoms: C_6  and  C_7
REMARK    7  A    between atoms: C_14  and  C_16
REMARK    8  A    between atoms: C_16  and  C_17
REMARK    9  A    between atoms: C_17  and  C_19
REMARK   10  A    between atoms: C_19  and  N_20
REMARK   11  A    between atoms: C_19  and  C_21
REMARK   12  A    between atoms: C_21  and  C_22
REMARK                            x       y       z     vdW  Elec       q    Type
REMARK                         _______ _______ _______ _____ _____    ______ ____
ROOT
ATOM      1  N   UNL     1       4.963   4.146  18.618  0.00  0.00    +0.000 N 
ATOM      2  C   UNL     1       6.194   4.712  18.806  0.00  0.00    +0.000 C 
ATOM      3  O   UNL     1       6.509   5.254  19.861  0.00  0.00    +0.000 OA
ATOM      4  H   UNL     1       4.791   3.620  17.757  0.00  0.00    +0.000 HD
ENDROOT
BRANCH   1   5
ATOM      5  C   UNL     1       3.928   4.089  19.655  0.00  0.00    +0.000 C 
BRANCH   5   6
ATOM      6  C   UNL     1       3.822   2.714  20.329  0.00  0.00    +0.000 C 
ATOM      7  O   UNL     1       3.281   2.528  21.413  0.00  0.00    +0.000 OA
BRANCH   6   9
ATOM      8  C   UNL     1       3.629   1.275  18.491  0.00  0.00    +0.000 C 
ATOM      9  O   UNL     1       4.416   1.736  19.589  0.00  0.00    +0.000 OA
ENDBRANCH   6   9
ENDBRANCH   5   6
BRANCH   5  10
ATOM     10  C   UNL     1       2.548   4.544  19.143  0.00  0.00    +0.000 C 
BRANCH  10  11
ATOM     11  C   UNL     1       2.332   6.043  19.167  0.00  0.00    +0.000 A 
ATOM     12  C   UNL     1       1.888   6.692  20.326  0.00  0.00    +0.000 A 
ATOM     13  C   UNL     1       1.636   8.065  20.316  0.00  0.00    +0.000 A 
ATOM     14  C   UNL     1       1.835   8.804  19.150  0.00  0.00    +0.000 A 
ATOM     15  C   UNL     1       2.301   8.174  17.999  0.00  0.00    +0.000 A 
ATOM     16  C   UNL     1       2.551   6.801  18.008  0.00  0.00    +0.000 A 
ENDBRANCH  10  11
ENDBRANCH   5  10
ENDBRANCH   1   5
BRANCH   2  17
ATOM     17  C   UNL     1       7.120   4.736  17.613  0.00  0.00    +0.000 C 
BRANCH  17  18
ATOM     18  C   UNL     1       6.659   5.473  16.370  0.00  0.00    +0.000 C 
ATOM     19  O   UNL     1       6.878   6.675  16.211  0.00  0.00    +0.000 OA
BRANCH  18  20
ATOM     20  C   UNL     1       6.107   4.596  15.221  0.00  0.00    +0.000 C 
BRANCH  20  21
ATOM     21  N   UNL     1       6.093   3.206  15.724  0.00  0.00    +0.000 NA
ATOM     22  H   UNL     1       6.944   2.735  15.398  0.00  0.00    +0.000 HD
ATOM     23  H   UNL     1       5.322   2.694  15.291  0.00  0.00    +0.000 HD
ENDBRANCH  20  21
BRANCH  20  24
ATOM     24  C   UNL     1       6.918   4.695  13.905  0.00  0.00    +0.000 C 
BRANCH  24  25
ATOM     25  C   UNL     1       6.346   3.848  12.792  0.00  0.00    +0.000 A 
ATOM     26  C   UNL     1       4.980   3.927  12.488  0.00  0.00    +0.000 A 
ATOM     27  C   UNL     1       4.398   3.016  11.608  0.00  0.00    +0.000 A 
ATOM     28  C   UNL     1       5.176   2.024  11.018  0.00  0.00    +0.000 A 
ATOM     29  C   UNL     1       6.551   1.993  11.245  0.00  0.00    +0.000 A 
ATOM     30  C   UNL     1       7.139   2.914  12.114  0.00  0.00    +0.000 A 
ENDBRANCH  24  25
ENDBRANCH  20  24
ENDBRANCH  18  20
ENDBRANCH  17  18
ENDBRANCH   2  17
TORSDOF 11
ENDMDL
MODEL 3
REMARK VINA RESULT:      -6.8      4.083      6.488
REMARK  Name = 
REMARK  12 active torsions:
REMARK  status: ('A' for Active; 'I' for Inactive)
REMARK    1  A    between atoms: C_1  and  O_2
REMARK    2  A    between atoms: O_2  and  C_3
REMARK    3  A    between atoms: C_3  and  C_5
REMARK    4  A    between atoms: C_5  and  C_6
REMARK    5  A    between atoms: C_5  and  N_13
REMARK    6  A    between atoms: C_6  and  C_7
REMARK    7  A    between atoms: C_14  and  C_16
REMARK    8  A    between atoms: C_16  and  C_17
REMARK    9  A    between atoms: C_17  and  C_19
REMARK   10  A    between atoms: C_19  and  N_20
REMARK   11  A    between atoms: C_19  and  C_21
REMARK   12  A    between atoms: C_21  and  C_22
REMARK                            x       y       z     vdW  Elec       q    Type
REMARK                         _______ _______ _______ _____ _____    ______ ____
ROOT
ATOM      1  N   UNL     1       4.473   6.638  16.977  0.00  0.00    +0.000 N 
ATOM      2  C   UNL     1       3.517   7.020  17.879  0.00  0.00    +0.000 C 
ATOM      3  O   UNL     1       3.323   6.405  18.923  0.00  0.00    +0.000 OA
ATOM      4  H   UNL     1       4.660   7.245  16.174  0.00  0.00    +0.000 HD
ENDROOT
BRANCH   1   5
ATOM      5  C   UNL     1       5.378   5.504  17.184  0.00  0.00    +0.000 C 
BRANCH   5   6
ATOM      6  C   UNL     1       6.776   5.729  16.591  0.00  0.00    +0.000 C 
ATOM      7  O   UNL     1       7.377   4.891  15.929  0.00  0.00    +0.000 OA
BRANCH   6   9
ATOM      8  C   UNL     1       7.861   7.036  18.204  0.00  0.00    +0.000 C 
ATOM      9  O   UNL     1       7.271   6.960  16.907  0.00  0.00    +0.000 OA
ENDBRANCH   6   9
ENDBRANCH   5   6
BRANCH   5  10
ATOM     10  C   UNL     1       4.789   4.174  16.677  0.00  0.00    +0.000 C 
BRANCH  10  11
ATOM     11  C   UNL     1       3.883   3.471  17.668  0.00  0.00    +0.000 A 
ATOM     12  C   UNL     1       2.552   3.173  17.346  0.00  0.00    +0.000 A 
ATOM     13  C   UNL     1       1.712   2.579  18.290  0.00  0.00    +0.000 A 
ATOM     14  C   UNL     1       2.197   2.269  19.560  0.00  0.00    +0.000 A 
ATOM     15  C   UNL     1       3.525   2.537  19.882  0.00  0.00    +0.000 A 
ATOM     16  C   UNL     1       4.365   3.132  18.940  0.00  0.00    +0.000 A 
ENDBRANCH  10  11
ENDBRANCH   5  10
ENDBRANCH   1   5
BRANCH   2  17
ATOM     17  C   UNL     1       2.631   8.176  17.481  0.00  0.00    +0.000 C 
BRANCH  17  18
ATOM     18  C   UNL     1       1.714   8.766  18.535  0.00  0.00    +0.000 C 
ATOM     19  O   UNL     1       1.751   8.390  19.708  0.00  0.00    +0.000 OA
BRANCH  18  20
ATOM     20  C   UNL     1       0.899  10.012  18.112  0.00  0.00    +0.000 C 
BRANCH  20  21
ATOM     21  N   UNL     1       1.832  11.157  18.152  0.00  0.00    +0.000 NA
ATOM     22  H   UNL     1       1.283  12.021  18.221  0.00  0.00    +0.000 HD
ATOM     23  H   UNL     1       2.327  11.226  17.261  0.00  0.00    +0.000 HD
ENDBRANCH  20  21
BRANCH  20  24
ATOM     24  C   UNL     1      -0.343  10.285  18.996  0.00  0.00    +0.000 C 
BRANCH  24  25
ATOM     25  C   UNL     1      -1.588  10.578  18.194  0.00  0.00    +0.000 A 
ATOM     26  C   UNL     1      -2.532  11.493  18.681  0.00  0.00    +0.000 A 
ATOM     27  C   UNL     1      -3.772  11.628  18.061  0.00  0.00    +0.000 A 
ATOM     28  C   UNL     1      -4.079  10.856  16.944  0.00  0.00    +0.000 A 
ATOM     29  C   UNL     1      -3.115  10.009  16.399  0.00  0.00    +0.000 A 
ATOM     30  C   UNL     1      -1.866   9.884  17.009  0.00  0.00    +0.000 A 
ENDBRANCH  24  25
ENDBRANCH  20  24
ENDBRANCH  18  20
ENDBRANCH  17  18
ENDBRANCH   2  17
TORSDOF 11
ENDMDL
MODEL 4
REMARK VINA RESULT:      -6.8      3.821      6.214
REMARK  Name = 
REMARK  12 active torsions:
REMARK  status: ('A' for Active; 'I' for Inactive)
REMARK    1  A    between atoms: C_1  and  O_2
REMARK    2  A    between atoms: O_2  and  C_3
REMARK    3  A    between atoms: C_3  and  C_5
REMARK    4  A    between atoms: C_5  and  C_6
REMARK    5  A    between atoms: C_5  and  N_13
REMARK    6  A    between atoms: C_6  and  C_7
REMARK    7  A    between atoms: C_14  and  C_16
REMARK    8  A    between atoms: C_16  and  C_17
REMARK    9  A    between atoms: C_17  and  C_19
REMARK   10  A    between atoms: C_19  and  N_20
REMARK   11  A    between atoms: C_19  and  C_21
REMARK   12  A    between atoms: C_21  and  C_22
REMARK                            x       y       z     vdW  Elec       q    Type
REMARK                         _______ _______ _______ _____ _____    ______ ____
ROOT
ATOM      1  N   UNL     1       2.269   5.206  18.171  0.00  0.00    +0.000 N 
ATOM      2  C   UNL     1       2.660   5.944  19.255  0.00  0.00    +0.000 C 
ATOM      3  O   UNL     1       3.298   5.453  20.181  0.00  0.00    +0.000 OA
ATOM      4  H   UNL     1       1.828   5.689  17.383  0.00  0.00    +0.000 HD
ENDROOT
BRANCH   1   5
ATOM      5  C   UNL     1       2.606   3.792  17.986  0.00  0.00    +0.000 C 
BRANCH   5   6
ATOM      6  C   UNL     1       1.681   2.843  18.760  0.00  0.00    +0.000 C 
ATOM      7  O   UNL     1       0.552   2.542  18.390  0.00  0.00    +0.000 OA
BRANCH   6   9
ATOM      8  C   UNL     1       1.486   2.645  21.086  0.00  0.00    +0.000 C 
ATOM      9  O   UNL     1       2.257   2.396  19.912  0.00  0.00    +0.000 OA
ENDBRANCH   6   9
ENDBRANCH   5   6
BRANCH   5  10
ATOM     10  C   UNL     1       4.081   3.485  18.309  0.00  0.00    +0.000 C 
BRANCH  10  11
ATOM     11  C   UNL     1       5.075   4.079  17.332  0.00  0.00    +0.000 A 
ATOM     12  C   UNL     1       4.976   3.825  15.957  0.00  0.00    +0.000 A 
ATOM     13  C   UNL     1       5.934   4.329  15.074  0.00  0.00    +0.000 A 
ATOM     14  C   UNL     1       6.992   5.099  15.556  0.00  0.00    +0.000 A 
ATOM     15  C   UNL     1       7.085   5.379  16.917  0.00  0.00    +0.000 A 
ATOM     16  C   UNL     1       6.130   4.874  17.800  0.00  0.00    +0.000 A 
ENDBRANCH  10  11
ENDBRANCH   5  10
ENDBRANCH   1   5
BRANCH   2  17
ATOM     17  C   UNL     1       2.176   7.373  19.315  0.00  0.00    +0.000 C 
BRANCH  17  18
ATOM     18  C   UNL     1       2.497   8.283  18.145  0.00  0.00    +0.000 C 
ATOM     19  O   UNL     1       3.379   8.004  17.331  0.00  0.00    +0.000 OA
BRANCH  18  20
ATOM     20  C   UNL     1       1.514   9.453  17.900  0.00  0.00    +0.000 C 
BRANCH  20  21
ATOM     21  N   UNL     1       2.337  10.621  17.524  0.00  0.00    +0.000 NA
ATOM     22  H   UNL     1       2.868  10.386  16.678  0.00  0.00    +0.000 HD
ATOM     23  H   UNL     1       3.044  10.786  18.244  0.00  0.00    +0.000 HD
ENDBRANCH  20  21
BRANCH  20  24
ATOM     24  C   UNL     1       0.612   9.785  19.114  0.00  0.00    +0.000 C 
BRANCH  24  25
ATOM     25  C   UNL     1      -0.758  10.279  18.716  0.00  0.00    +0.000 A 
ATOM     26  C   UNL     1      -1.344   9.827  17.525  0.00  0.00    +0.000 A 
ATOM     27  C   UNL     1      -2.510  10.417  17.042  0.00  0.00    +0.000 A 
ATOM     28  C   UNL     1      -3.106  11.460  17.746  0.00  0.00    +0.000 A 
ATOM     29  C   UNL     1      -2.582  11.856  18.976  0.00  0.00    +0.000 A 
ATOM     30  C   UNL     1      -1.423  11.255  19.471  0.00  0.00    +0.000 A 
ENDBRANCH  24  25
ENDBRANCH  20  24
ENDBRANCH  18  20
ENDBRANCH  17  18
ENDBRANCH   2  17
TORSDOF 11
ENDMDL
MODEL 5
REMARK VINA RESULT:      -6.7      3.777      6.215
REMARK  Name = 
REMARK  12 active torsions:
REMARK  status: ('A' for Active; 'I' for Inactive)
REMARK    1  A    between atoms: C_1  and  O_2
REMARK    2  A    between atoms: O_2  and  C_3
REMARK    3  A    between atoms: C_3  and  C_5
REMARK    4  A    between atoms: C_5  and  C_6
REMARK    5  A    between atoms: C_5  and  N_13
REMARK    6  A    between atoms: C_6  and  C_7
REMARK    7  A    between atoms: C_14  and  C_16
REMARK    8  A    between atoms: C_16  and  C_17
REMARK    9  A    between atoms: C_17  and  C_19
REMARK   10  A    between atoms: C_19  and  N_20
REMARK   11  A    between atoms: C_19  and  C_21
REMARK   12  A    between atoms: C_21  and  C_22
REMARK                            x       y       z     vdW  Elec       q    Type
REMARK                         _______ _______ _______ _____ _____    ______ ____
ROOT
ATOM      1  N   UNL     1       3.726   5.339  18.138  0.00  0.00    +0.000 N 
ATOM      2  C   UNL     1       2.419   5.740  18.201  0.00  0.00    +0.000 C 
ATOM      3  O   UNL     1       1.503   5.049  17.768  0.00  0.00    +0.000 OA
ATOM      4  H   UNL     1       4.437   5.909  18.605  0.00  0.00    +0.000 HD
ENDROOT
BRANCH   1   5
ATOM      5  C   UNL     1       4.153   4.044  17.599  0.00  0.00    +0.000 C 
BRANCH   5   6
ATOM      6  C   UNL     1       4.152   2.922  18.647  0.00  0.00    +0.000 C 
ATOM      7  O   UNL     1       4.891   2.905  19.624  0.00  0.00    +0.000 OA
BRANCH   6   9
ATOM      8  C   UNL     1       2.090   1.947  19.180  0.00  0.00    +0.000 C 
ATOM      9  O   UNL     1       3.249   1.946  18.348  0.00  0.00    +0.000 OA
ENDBRANCH   6   9
ENDBRANCH   5   6
BRANCH   5  10
ATOM     10  C   UNL     1       5.520   4.117  16.892  0.00  0.00    +0.000 C 
BRANCH  10  11
ATOM     11  C   UNL     1       6.437   5.207  17.410  0.00  0.00    +0.000 A 
ATOM     12  C   UNL     1       7.238   5.000  18.540  0.00  0.00    +0.000 A 
ATOM     13  C   UNL     1       8.034   6.034  19.041  0.00  0.00    +0.000 A 
ATOM     14  C   UNL     1       8.041   7.278  18.412  0.00  0.00    +0.000 A 
ATOM     15  C   UNL     1       7.268   7.486  17.273  0.00  0.00    +0.000 A 
ATOM     16  C   UNL     1       6.472   6.455  16.772  0.00  0.00    +0.000 A 
ENDBRANCH  10  11
ENDBRANCH   5  10
ENDBRANCH   1   5
BRANCH   2  17
ATOM     17  C   UNL     1       2.160   7.130  18.733  0.00  0.00    +0.000 C 
BRANCH  17  18
ATOM     18  C   UNL     1       2.520   8.309  17.849  0.00  0.00    +0.000 C 
ATOM     19  O   UNL     1       3.477   8.269  17.075  0.00  0.00    +0.000 OA
BRANCH  18  20
ATOM     20  C   UNL     1       1.495   9.467  17.805  0.00  0.00    +0.000 C 
BRANCH  20  21
ATOM     21  N   UNL     1       2.270  10.705  17.583  0.00  0.00    +0.000 NA
ATOM     22  H   UNL     1       1.666  11.508  17.793  0.00  0.00    +0.000 HD
ATOM     23  H   UNL     1       2.495  10.794  16.591  0.00  0.00    +0.000 HD
ENDBRANCH  20  21
BRANCH  20  24
ATOM     24  C   UNL     1       0.622   9.587  19.079  0.00  0.00    +0.000 C 
BRANCH  24  25
ATOM     25  C   UNL     1      -0.616  10.428  18.872  0.00  0.00    +0.000 A 
ATOM     26  C   UNL     1      -0.919  11.456  19.775  0.00  0.00    +0.000 A 
ATOM     27  C   UNL     1      -2.149  12.108  19.718  0.00  0.00    +0.000 A 
ATOM     28  C   UNL     1      -3.085  11.744  18.754  0.00  0.00    +0.000 A 
ATOM     29  C   UNL     1      -2.758  10.786  17.795  0.00  0.00    +0.000 A 
ATOM     30  C   UNL     1      -1.520  10.142  17.841  0.00  0.00    +0.000 A 
ENDBRANCH  24  25
ENDBRANCH  20  24
ENDBRANCH  18  20
ENDBRANCH  17  18
ENDBRANCH   2  17
TORSDOF 11
ENDMDL
MODEL 6
REMARK VINA RESULT:      -6.7      1.767      6.824
REMARK  Name = 
REMARK  12 active torsions:
REMARK  status: ('A' for Active; 'I' for Inactive)
REMARK    1  A    between atoms: C_1  and  O_2
REMARK    2  A    between atoms: O_2  and  C_3
REMARK    3  A    between atoms: C_3  and  C_5
REMARK    4  A    between atoms: C_5  and  C_6
REMARK    5  A    between atoms: C_5  and  N_13
REMARK    6  A    between atoms: C_6  and  C_7
REMARK    7  A    between atoms: C_14  and  C_16
REMARK    8  A    between atoms: C_16  and  C_17
REMARK    9  A    between atoms: C_17  and  C_19
REMARK   10  A    between atoms: C_19  and  N_20
REMARK   11  A    between atoms: C_19  and  C_21
REMARK   12  A    between atoms: C_21  and  C_22
REMARK                            x       y       z     vdW  Elec       q    Type
REMARK                         _______ _______ _______ _____ _____    ______ ____
ROOT
ATOM      1  N   UNL     1       4.249   5.362  19.447  0.00  0.00    +0.000 N 
ATOM      2  C   UNL     1       5.438   4.699  19.307  0.00  0.00    +0.000 C 
ATOM      3  O   UNL     1       5.554   3.507  19.574  0.00  0.00    +0.000 OA
ATOM      4  H   UNL     1       4.184   6.328  19.115  0.00  0.00    +0.000 HD
ENDROOT
BRANCH   1   5
ATOM      5  C   UNL     1       3.005   4.717  19.877  0.00  0.00    +0.000 C 
BRANCH   5   6
ATOM      6  C   UNL     1       2.396   3.801  18.806  0.00  0.00    +0.000 C 
ATOM      7  O   UNL     1       1.966   4.204  17.732  0.00  0.00    +0.000 OA
BRANCH   6   9
ATOM      8  C   UNL     1       3.139   1.622  18.371  0.00  0.00    +0.000 C 
ATOM      9  O   UNL     1       2.376   2.497  19.202  0.00  0.00    +0.000 OA
ENDBRANCH   6   9
ENDBRANCH   5   6
BRANCH   5  10
ATOM     10  C   UNL     1       1.955   5.727  20.379  0.00  0.00    +0.000 C 
BRANCH  10  11
ATOM     11  C   UNL     1       1.934   7.039  19.621  0.00  0.00    +0.000 A 
ATOM     12  C   UNL     1       2.419   7.124  18.309  0.00  0.00    +0.000 A 
ATOM     13  C   UNL     1       2.449   8.352  17.645  0.00  0.00    +0.000 A 
ATOM     14  C   UNL     1       1.987   9.503  18.282  0.00  0.00    +0.000 A 
ATOM     15  C   UNL     1       1.478   9.425  19.576  0.00  0.00    +0.000 A 
ATOM     16  C   UNL     1       1.450   8.199  20.241  0.00  0.00    +0.000 A 
ENDBRANCH  10  11
ENDBRANCH   5  10
ENDBRANCH   1   5
BRANCH   2  17
ATOM     17  C   UNL     1       6.636   5.528  18.911  0.00  0.00    +0.000 C 
BRANCH  17  18
ATOM     18  C   UNL     1       7.328   5.198  17.602  0.00  0.00    +0.000 C 
ATOM     19  O   UNL     1       8.143   4.278  17.515  0.00  0.00    +0.000 OA
BRANCH  18  20
ATOM     20  C   UNL     1       6.793   5.923  16.344  0.00  0.00    +0.000 C 
BRANCH  20  21
ATOM     21  N   UNL     1       6.271   7.228  16.802  0.00  0.00    +0.000 NA
ATOM     22  H   UNL     1       5.998   7.141  17.788  0.00  0.00    +0.000 HD
ATOM     23  H   UNL     1       5.405   7.443  16.305  0.00  0.00    +0.000 HD
ENDBRANCH  20  21
BRANCH  20  24
ATOM     24  C   UNL     1       5.702   5.135  15.577  0.00  0.00    +0.000 C 
BRANCH  24  25
ATOM     25  C   UNL     1       6.191   4.577  14.262  0.00  0.00    +0.000 A 
ATOM     26  C   UNL     1       7.369   5.075  13.688  0.00  0.00    +0.000 A 
ATOM     27  C   UNL     1       7.728   4.719  12.389  0.00  0.00    +0.000 A 
ATOM     28  C   UNL     1       6.918   3.858  11.654  0.00  0.00    +0.000 A 
ATOM     29  C   UNL     1       5.793   3.288  12.247  0.00  0.00    +0.000 A 
ATOM     30  C   UNL     1       5.440   3.629  13.554  0.00  0.00    +0.000 A 
ENDBRANCH  24  25
ENDBRANCH  20  24
ENDBRANCH  18  20
ENDBRANCH  17  18
ENDBRANCH   2  17
TORSDOF 11
ENDMDL
MODEL 7
REMARK VINA RESULT:      -6.6      3.865      6.421
REMARK  Name = 
REMARK  12 active torsions:
REMARK  status: ('A' for Active; 'I' for Inactive)
REMARK    1  A    between atoms: C_1  and  O_2
REMARK    2  A    between atoms: O_2  and  C_3
REMARK    3  A    between atoms: C_3  and  C_5
REMARK    4  A    between atoms: C_5  and  C_6
REMARK    5  A    between atoms: C_5  and  N_13
REMARK    6  A    between atoms: C_6  and  C_7
REMARK    7  A    between atoms: C_14  and  C_16
REMARK    8  A    between atoms: C_16  and  C_17
REMARK    9  A    between atoms: C_17  and  C_19
REMARK   10  A    between atoms: C_19  and  N_20
REMARK   11  A    between atoms: C_19  and  C_21
REMARK   12  A    between atoms: C_21  and  C_22
REMARK                            x       y       z     vdW  Elec       q    Type
REMARK                         _______ _______ _______ _____ _____    ______ ____
ROOT
ATOM      1  N   UNL     1       2.574   5.428  18.285  0.00  0.00    +0.000 N 
ATOM      2  C   UNL     1       2.537   6.073  19.492  0.00  0.00    +0.000 C 
ATOM      3  O   UNL     1       2.764   5.491  20.549  0.00  0.00    +0.000 OA
ATOM      4  H   UNL     1       2.476   5.983  17.430  0.00  0.00    +0.000 HD
ENDROOT
BRANCH   1   5
ATOM      5  C   UNL     1       2.928   4.015  18.129  0.00  0.00    +0.000 C 
BRANCH   5   6
ATOM      6  C   UNL     1       1.885   3.060  18.728  0.00  0.00    +0.000 C 
ATOM      7  O   UNL     1       0.746   2.939  18.293  0.00  0.00    +0.000 OA
BRANCH   6   9
ATOM      8  C   UNL     1       1.556   2.482  20.974  0.00  0.00    +0.000 C 
ATOM      9  O   UNL     1       2.372   2.385  19.808  0.00  0.00    +0.000 OA
ENDBRANCH   6   9
ENDBRANCH   5   6
BRANCH   5  10
ATOM     10  C   UNL     1       4.330   3.689  18.678  0.00  0.00    +0.000 C 
BRANCH  10  11
ATOM     11  C   UNL     1       5.431   4.592  18.160  0.00  0.00    +0.000 A 
ATOM     12  C   UNL     1       6.280   5.275  19.041  0.00  0.00    +0.000 A 
ATOM     13  C   UNL     1       7.252   6.150  18.551  0.00  0.00    +0.000 A 
ATOM     14  C   UNL     1       7.390   6.343  17.177  0.00  0.00    +0.000 A 
ATOM     15  C   UNL     1       6.569   5.649  16.291  0.00  0.00    +0.000 A 
ATOM     16  C   UNL     1       5.596   4.776  16.780  0.00  0.00    +0.000 A 
ENDBRANCH  10  11
ENDBRANCH   5  10
ENDBRANCH   1   5
BRANCH   2  17
ATOM     17  C   UNL     1       2.095   7.516  19.478  0.00  0.00    +0.000 C 
BRANCH  17  18
ATOM     18  C   UNL     1       2.394   8.341  18.241  0.00  0.00    +0.000 C 
ATOM     19  O   UNL     1       3.267   8.008  17.437  0.00  0.00    +0.000 OA
BRANCH  18  20
ATOM     20  C   UNL     1       1.400   9.484  17.925  0.00  0.00    +0.000 C 
BRANCH  20  21
ATOM     21  N   UNL     1       2.213  10.640  17.493  0.00  0.00    +0.000 NA
ATOM     22  H   UNL     1       2.304  11.286  18.285  0.00  0.00    +0.000 HD
ATOM     23  H   UNL     1       1.708  11.165  16.778  0.00  0.00    +0.000 HD
ENDBRANCH  20  21
BRANCH  20  24
ATOM     24  C   UNL     1       0.484   9.871  19.113  0.00  0.00    +0.000 C 
BRANCH  24  25
ATOM     25  C   UNL     1      -0.888  10.329  18.678  0.00  0.00    +0.000 A 
ATOM     26  C   UNL     1      -1.432   9.855  17.476  0.00  0.00    +0.000 A 
ATOM     27  C   UNL     1      -2.600  10.413  16.960  0.00  0.00    +0.000 A 
ATOM     28  C   UNL     1      -3.239  11.444  17.643  0.00  0.00    +0.000 A 
ATOM     29  C   UNL     1      -2.756  11.860  18.883  0.00  0.00    +0.000 A 
ATOM     30  C   UNL     1      -1.595  11.291  19.410  0.00  0.00    +0.000 A 
ENDBRANCH  24  25
ENDBRANCH  20  24
ENDBRANCH  18  20
ENDBRANCH  17  18
ENDBRANCH   2  17
TORSDOF 11
ENDMDL
MODEL 8
REMARK VINA RESULT:      -6.6      4.337      7.052
REMARK  Name = 
REMARK  12 active torsions:
REMARK  status: ('A' for Active; 'I' for Inactive)
REMARK    1  A    between atoms: C_1  and  O_2
REMARK    2  A    between atoms: O_2  and  C_3
REMARK    3  A    between atoms: C_3  and  C_5
REMARK    4  A    between atoms: C_5  and  C_6
REMARK    5  A    between atoms: C_5  and  N_13
REMARK    6  A    between atoms: C_6  and  C_7
REMARK    7  A    between atoms: C_14  and  C_16
REMARK    8  A    between atoms: C_16  and  C_17
REMARK    9  A    between atoms: C_17  and  C_19
REMARK   10  A    between atoms: C_19  and  N_20
REMARK   11  A    between atoms: C_19  and  C_21
REMARK   12  A    between atoms: C_21  and  C_22
REMARK                            x       y       z     vdW  Elec       q    Type
REMARK                         _______ _______ _______ _____ _____    ______ ____
ROOT
ATOM      1  N   UNL     1       3.727   6.950  17.582  0.00  0.00    +0.000 N 
ATOM      2  C   UNL     1       2.744   7.452  18.392  0.00  0.00    +0.000 C 
ATOM      3  O   UNL     1       2.404   6.889  19.428  0.00  0.00    +0.000 OA
ATOM      4  H   UNL     1       4.039   7.512  16.785  0.00  0.00    +0.000 HD
ENDROOT
BRANCH   1   5
ATOM      5  C   UNL     1       4.490   5.737  17.887  0.00  0.00    +0.000 C 
BRANCH   5   6
ATOM      6  C   UNL     1       5.928   5.777  17.350  0.00  0.00    +0.000 C 
ATOM      7  O   UNL     1       6.907   5.437  18.004  0.00  0.00    +0.000 OA
BRANCH   6   9
ATOM      8  C   UNL     1       6.420   5.293  15.111  0.00  0.00    +0.000 C 
ATOM      9  O   UNL     1       5.983   6.252  16.074  0.00  0.00    +0.000 OA
ENDBRANCH   6   9
ENDBRANCH   5   6
BRANCH   5  10
ATOM     10  C   UNL     1       3.778   4.454  17.418  0.00  0.00    +0.000 C 
BRANCH  10  11
ATOM     11  C   UNL     1       2.935   3.780  18.481  0.00  0.00    +0.000 A 
ATOM     12  C   UNL     1       1.584   3.486  18.254  0.00  0.00    +0.000 A 
ATOM     13  C   UNL     1       0.804   2.919  19.264  0.00  0.00    +0.000 A 
ATOM     14  C   UNL     1       1.368   2.634  20.507  0.00  0.00    +0.000 A 
ATOM     15  C   UNL     1       2.717   2.899  20.735  0.00  0.00    +0.000 A 
ATOM     16  C   UNL     1       3.497   3.466  19.727  0.00  0.00    +0.000 A 
ENDBRANCH  10  11
ENDBRANCH   5  10
ENDBRANCH   1   5
BRANCH   2  17
ATOM     17  C   UNL     1       2.017   8.679  17.899  0.00  0.00    +0.000 C 
BRANCH  17  18
ATOM     18  C   UNL     1       1.204   9.477  18.901  0.00  0.00    +0.000 C 
ATOM     19  O   UNL     1       1.433   9.420  20.111  0.00  0.00    +0.000 OA
BRANCH  18  20
ATOM     20  C   UNL     1       0.234  10.529  18.312  0.00  0.00    +0.000 C 
BRANCH  20  21
ATOM     21  N   UNL     1       0.848  11.850  18.558  0.00  0.00    +0.000 NA
ATOM     22  H   UNL     1       0.275  12.352  19.245  0.00  0.00    +0.000 HD
ATOM     23  H   UNL     1       0.799  12.413  17.707  0.00  0.00    +0.000 HD
ENDBRANCH  20  21
BRANCH  20  24
ATOM     24  C   UNL     1      -1.196  10.470  18.902  0.00  0.00    +0.000 C 
BRANCH  24  25
ATOM     25  C   UNL     1      -2.275  10.499  17.845  0.00  0.00    +0.000 A 
ATOM     26  C   UNL     1      -2.090   9.803  16.642  0.00  0.00    +0.000 A 
ATOM     27  C   UNL     1      -2.977   9.978  15.581  0.00  0.00    +0.000 A 
ATOM     28  C   UNL     1      -4.059  10.844  15.714  0.00  0.00    +0.000 A 
ATOM     29  C   UNL     1      -4.301  11.470  16.935  0.00  0.00    +0.000 A 
ATOM     30  C   UNL     1      -3.423  11.284  18.006  0.00  0.00    +0.000 A 
ENDBRANCH  24  25
ENDBRANCH  20  24
ENDBRANCH  18  20
ENDBRANCH  17  18
ENDBRANCH   2  17
TORSDOF 11
ENDMDL
MODEL 9
REMARK VINA RESULT:      -6.6      4.351      6.724
REMARK  Name = 
REMARK  12 active torsions:
REMARK  status: ('A' for Active; 'I' for Inactive)
REMARK    1  A    between atoms: C_1  and  O_2
REMARK    2  A    between atoms: O_2  and  C_3
REMARK    3  A    between atoms: C_3  and  C_5
REMARK    4  A    between atoms: C_5  and  C_6
REMARK    5  A    between atoms: C_5  and  N_13
REMARK    6  A    between atoms: C_6  and  C_7
REMARK    7  A    between atoms: C_14  and  C_16
REMARK    8  A    between atoms: C_16  and  C_17
REMARK    9  A    between atoms: C_17  and  C_19
REMARK   10  A    between atoms: C_19  and  N_20
REMARK   11  A    between atoms: C_19  and  C_21
REMARK   12  A    between atoms: C_21  and  C_22
REMARK                            x       y       z     vdW  Elec       q    Type
REMARK                         _______ _______ _______ _____ _____    ______ ____
ROOT
ATOM      1  N   UNL     1       3.603   7.261  17.589  0.00  0.00    +0.000 N 
ATOM      2  C   UNL     1       2.637   7.618  18.491  0.00  0.00    +0.000 C 
ATOM      3  O   UNL     1       2.416   6.962  19.504  0.00  0.00    +0.000 OA
ATOM      4  H   UNL     1       3.811   7.899  16.816  0.00  0.00    +0.000 HD
ENDROOT
BRANCH   1   5
ATOM      5  C   UNL     1       4.487   6.105  17.761  0.00  0.00    +0.000 C 
BRANCH   5   6
ATOM      6  C   UNL     1       5.972   6.447  17.574  0.00  0.00    +0.000 C 
ATOM      7  O   UNL     1       6.406   7.098  16.631  0.00  0.00    +0.000 OA
BRANCH   6   9
ATOM      8  C   UNL     1       8.016   6.557  18.714  0.00  0.00    +0.000 C 
ATOM      9  O   UNL     1       6.745   5.924  18.568  0.00  0.00    +0.000 OA
ENDBRANCH   6   9
ENDBRANCH   5   6
BRANCH   5  10
ATOM     10  C   UNL     1       4.093   4.917  16.864  0.00  0.00    +0.000 C 
BRANCH  10  11
ATOM     11  C   UNL     1       3.228   3.876  17.545  0.00  0.00    +0.000 A 
ATOM     12  C   UNL     1       1.857   4.091  17.738  0.00  0.00    +0.000 A 
ATOM     13  C   UNL     1       1.083   3.149  18.421  0.00  0.00    +0.000 A 
ATOM     14  C   UNL     1       1.671   1.982  18.907  0.00  0.00    +0.000 A 
ATOM     15  C   UNL     1       3.028   1.747  18.698  0.00  0.00    +0.000 A 
ATOM     16  C   UNL     1       3.801   2.688  18.017  0.00  0.00    +0.000 A 
ENDBRANCH  10  11
ENDBRANCH   5  10
ENDBRANCH   1   5
BRANCH   2  17
ATOM     17  C   UNL     1       1.775   8.804  18.129  0.00  0.00    +0.000 C 
BRANCH  17  18
ATOM     18  C   UNL     1       1.023   9.505  19.245  0.00  0.00    +0.000 C 
ATOM     19  O   UNL     1       1.155   9.170  20.423  0.00  0.00    +0.000 OA
BRANCH  18  20
ATOM     20  C   UNL     1       0.268  10.797  18.853  0.00  0.00    +0.000 C 
BRANCH  20  21
ATOM     21  N   UNL     1       0.953  11.910  19.543  0.00  0.00    +0.000 NA
ATOM     22  H   UNL     1       1.664  11.515  20.169  0.00  0.00    +0.000 HD
ATOM     23  H   UNL     1       0.293  12.388  20.159  0.00  0.00    +0.000 HD
ENDBRANCH  20  21
BRANCH  20  24
ATOM     24  C   UNL     1      -1.240  10.779  19.206  0.00  0.00    +0.000 C 
BRANCH  24  25
ATOM     25  C   UNL     1      -2.133  10.821  17.989  0.00  0.00    +0.000 A 
ATOM     26  C   UNL     1      -3.297  11.603  18.006  0.00  0.00    +0.000 A 
ATOM     27  C   UNL     1      -4.232  11.502  16.977  0.00  0.00    +0.000 A 
ATOM     28  C   UNL     1      -4.010  10.625  15.919  0.00  0.00    +0.000 A 
ATOM     29  C   UNL     1      -2.816   9.910  15.848  0.00  0.00    +0.000 A 
ATOM     30  C   UNL     1      -1.870  10.022  16.869  0.00  0.00    +0.000 A 
ENDBRANCH  24  25
ENDBRANCH  20  24
ENDBRANCH  18  20
ENDBRANCH  17  18
ENDBRANCH   2  17
TORSDOF 11
ENDMDL
