MODEL 1
REMARK VINA RESULT:      -8.0      0.000      0.000
REMARK  Name = 
REMARK  11 active torsions:
REMARK  status: ('A' for Active; 'I' for Inactive)
REMARK    1  A    between atoms: C_1  and  C_2
REMARK    2  A    between atoms: C_2  and  C_3
REMARK    3  A    between atoms: C_2  and  C_4
REMARK    4  A    between atoms: C_2  and  C_5
REMARK    5  A    between atoms: C_10  and  O_11
REMARK    6  A    between atoms: O_11  and  C_12
REMARK    7  A    between atoms: C_17  and  N_18
REMARK    8  A    between atoms: N_21  and  C_22
REMARK    9  A    between atoms: C_25  and  C_26
REMARK   10  A    between atoms: C_26  and  C_27
REMARK   11  A    between atoms: C_27  and  O_28
REMARK                            x       y       z     vdW  Elec       q    Type
REMARK                         _______ _______ _______ _____ _____    ______ ____
ROOT
ATOM      1  N   UNL     1       7.640   6.364  18.149  0.00  0.00    +0.000 N 
ATOM      2  C   UNL     1       7.866   7.713  17.933  0.00  0.00    +0.000 C 
ATOM      3  O   UNL     1       7.362   8.369  17.028  0.00  0.00    +0.000 OA
ATOM      4  N   UNL     1       8.754   8.236  18.859  0.00  0.00    +0.000 N 
ATOM      5  H   UNL     1       7.680   6.055  19.113  0.00  0.00    +0.000 HD
ATOM      6  H   UNL     1       9.526   7.628  19.095  0.00  0.00    +0.000 HD
ENDROOT
BRANCH   1  12
ATOM      7  C   UNL     1       6.039   4.565  17.659  0.00  0.00    +0.000 A 
ATOM      8  N   UNL     1       5.492   3.629  16.838  0.00  0.00    +0.000 NA
ATOM      9  C   UNL     1       5.800   3.691  15.526  0.00  0.00    +0.000 A 
ATOM     10  C   UNL     1       6.684   4.609  14.998  0.00  0.00    +0.000 A 
ATOM     11  C   UNL     1       7.317   5.494  15.869  0.00  0.00    +0.000 A 
ATOM     12  C   UNL     1       7.001   5.495  17.233  0.00  0.00    +0.000 A 
BRANCH   7  13
ATOM     13  O   UNL     1       5.527   4.679  18.963  0.00  0.00    +0.000 OA
BRANCH  13  19
ATOM     14  C   UNL     1       3.159   4.333  19.451  0.00  0.00    +0.000 A 
ATOM     15  C   UNL     1       1.854   4.904  19.386  0.00  0.00    +0.000 A 
ATOM     16  C   UNL     1       1.613   6.229  19.027  0.00  0.00    +0.000 A 
ATOM     17  C   UNL     1       2.684   7.059  18.775  0.00  0.00    +0.000 A 
ATOM     18  C   UNL     1       3.975   6.541  18.832  0.00  0.00    +0.000 A 
ATOM     19  C   UNL     1       4.229   5.168  19.077  0.00  0.00    +0.000 A 
BRANCH  14  21
ATOM     20  C   UNL     1       2.561   1.934  18.917  0.00  0.00    +0.000 C 
ATOM     21  C   UNL     1       3.223   2.877  19.959  0.00  0.00    +0.000 C 
ATOM     22  C   UNL     1       2.453   2.813  21.313  0.00  0.00    +0.000 C 
ATOM     23  C   UNL     1       4.615   2.279  20.251  0.00  0.00    +0.000 C 
ENDBRANCH  14  21
ENDBRANCH  13  19
ENDBRANCH   7  13
ENDBRANCH   1  12
BRANCH   4  24
ATOM     24  C   UNL     1       8.949   9.625  19.021  0.00  0.00    +0.000 A 
ATOM     25  C   UNL     1       9.113  10.187  20.287  0.00  0.00    +0.000 A 
ATOM     26  C   UNL     1       9.427  11.542  20.423  0.00  0.00    +0.000 A 
ATOM     27  C   UNL     1       9.554  12.382  19.306  0.00  0.00    +0.000 A 
ATOM     28  C   UNL     1       9.316  11.806  18.041  0.00  0.00    +0.000 A 
ATOM     29  C   UNL     1       9.048  10.442  17.897  0.00  0.00    +0.000 A 
BRANCH  27  30
ATOM     30  C   UNL     1      10.027  13.825  19.460  0.00  0.00    +0.000 C 
ATOM     31  C   UNL     1      10.506  14.321  20.813  0.00  0.00    +0.000 C 
ATOM     32  C   UNL     1      11.507  14.060  19.730  0.00  0.00    +0.000 C 
BRANCH  30  33
ATOM     33  C   UNL     1       9.326  14.818  18.549  0.00  0.00    +0.000 C 
BRANCH  33  34
ATOM     34  O   UNL     1       8.493  15.697  19.304  0.00  0.00    +0.000 OA
ATOM     35  H   UNL     1       7.768  15.147  19.651  0.00  0.00    +0.000 HD
ENDBRANCH  33  34
ENDBRANCH  30  33
ENDBRANCH  27  30
ENDBRANCH   4  24
TORSDOF 8
ENDMDL
MODEL 2
REMARK VINA RESULT:      -8.0      5.099      7.931
REMARK  Name = 
REMARK  11 active torsions:
REMARK  status: ('A' for Active; 'I' for Inactive)
REMARK    1  A    between atoms: C_1  and  C_2
REMARK    2  A    between atoms: C_2  and  C_3
REMARK    3  A    between atoms: C_2  and  C_4
REMARK    4  A    between atoms: C_2  and  C_5
REMARK    5  A    between atoms: C_10  and  O_11
REMARK    6  A    between atoms: O_11  and  C_12
REMARK    7  A    between atoms: C_17  and  N_18
REMARK    8  A    between atoms: N_21  and  C_22
REMARK    9  A    between atoms: C_25  and  C_26
REMARK   10  A    between atoms: C_26  and  C_27
REMARK   11  A    between atoms: C_27  and  O_28
REMARK                            x       y       z     vdW  Elec       q    Type
REMARK                         _______ _______ _______ _____ _____    ______ ____
ROOT
ATOM      1  N   UNL     1       2.699   5.974  20.596  0.00  0.00    +0.000 N 
ATOM      2  C   UNL     1       1.565   6.765  20.688  0.00  0.00    +0.000 C 
ATOM      3  O   UNL     1       0.419   6.361  20.533  0.00  0.00    +0.000 OA
ATOM      4  N   UNL     1       1.885   8.086  20.958  0.00  0.00    +0.000 N 
ATOM      5  H   UNL     1       3.479   6.246  21.182  0.00  0.00    +0.000 HD
ATOM      6  H   UNL     1       2.702   8.431  20.473  0.00  0.00    +0.000 HD
ENDROOT
BRANCH   1  12
ATOM      7  C   UNL     1       3.235   4.389  18.796  0.00  0.00    +0.000 A 
ATOM      8  N   UNL     1       3.168   3.164  18.210  0.00  0.00    +0.000 NA
ATOM      9  C   UNL     1       2.706   2.139  18.954  0.00  0.00    +0.000 A 
ATOM     10  C   UNL     1       2.243   2.287  20.245  0.00  0.00    +0.000 A 
ATOM     11  C   UNL     1       2.220   3.568  20.796  0.00  0.00    +0.000 A 
ATOM     12  C   UNL     1       2.726   4.658  20.077  0.00  0.00    +0.000 A 
BRANCH   7  13
ATOM     13  O   UNL     1       3.954   5.400  18.135  0.00  0.00    +0.000 OA
BRANCH  13  19
ATOM     14  C   UNL     1       6.147   5.123  17.096  0.00  0.00    +0.000 A 
ATOM     15  C   UNL     1       7.539   4.922  17.332  0.00  0.00    +0.000 A 
ATOM     16  C   UNL     1       8.117   4.978  18.598  0.00  0.00    +0.000 A 
ATOM     17  C   UNL     1       7.328   5.299  19.681  0.00  0.00    +0.000 A 
ATOM     18  C   UNL     1       5.964   5.507  19.491  0.00  0.00    +0.000 A 
ATOM     19  C   UNL     1       5.341   5.336  18.230  0.00  0.00    +0.000 A 
BRANCH  14  21
ATOM     20  C   UNL     1       6.962   4.887  14.713  0.00  0.00    +0.000 C 
ATOM     21  C   UNL     1       5.716   5.115  15.613  0.00  0.00    +0.000 C 
ATOM     22  C   UNL     1       5.067   6.497  15.300  0.00  0.00    +0.000 C 
ATOM     23  C   UNL     1       4.676   4.064  15.173  0.00  0.00    +0.000 C 
ENDBRANCH  14  21
ENDBRANCH  13  19
ENDBRANCH   7  13
ENDBRANCH   1  12
BRANCH   4  24
ATOM     24  C   UNL     1       0.917   9.033  21.356  0.00  0.00    +0.000 A 
ATOM     25  C   UNL     1       0.536   9.158  22.691  0.00  0.00    +0.000 A 
ATOM     26  C   UNL     1      -0.330  10.181  23.087  0.00  0.00    +0.000 A 
ATOM     27  C   UNL     1      -0.867  11.087  22.160  0.00  0.00    +0.000 A 
ATOM     28  C   UNL     1      -0.522  10.899  20.806  0.00  0.00    +0.000 A 
ATOM     29  C   UNL     1       0.381   9.907  20.412  0.00  0.00    +0.000 A 
BRANCH  27  30
ATOM     30  C   UNL     1      -1.703  12.278  22.622  0.00  0.00    +0.000 C 
ATOM     31  C   UNL     1      -3.097  12.486  22.057  0.00  0.00    +0.000 C 
ATOM     32  C   UNL     1      -2.940  11.992  23.463  0.00  0.00    +0.000 C 
BRANCH  30  33
ATOM     33  C   UNL     1      -0.894  13.512  22.983  0.00  0.00    +0.000 C 
BRANCH  33  34
ATOM     34  O   UNL     1      -0.943  14.476  21.932  0.00  0.00    +0.000 OA
ATOM     35  H   UNL     1      -1.776  14.310  21.455  0.00  0.00    +0.000 HD
ENDBRANCH  33  34
ENDBRANCH  30  33
ENDBRANCH  27  30
ENDBRANCH   4  24
TORSDOF 8
ENDMDL
MODEL 3
REMARK VINA RESULT:      -7.9      7.006     11.670
REMARK  Name = 
REMARK  11 active torsions:
REMARK  status: ('A' for Active; 'I' for Inactive)
REMARK    1  A    between atoms: C_1  and  C_2
REMARK    2  A    between atoms: C_2  and  C_3
REMARK    3  A    between atoms: C_2  and  C_4
REMARK    4  A    between atoms: C_2  and  C_5
REMARK    5  A    between atoms: C_10  and  O_11
REMARK    6  A    between atoms: O_11  and  C_12
REMARK    7  A    between atoms: C_17  and  N_18
REMARK    8  A    between atoms: N_21  and  C_22
REMARK    9  A    between atoms: C_25  and  C_26
REMARK   10  A    between atoms: C_26  and  C_27
REMARK   11  A    between atoms: C_27  and  O_28
REMARK                            x       y       z     vdW  Elec       q    Type
REMARK                         _______ _______ _______ _____ _____    ______ ____
ROOT
ATOM      1  N   UNL     1      -0.496  12.476  20.498  0.00  0.00    +0.000 N 
ATOM      2  C   UNL     1       0.537  11.558  20.415  0.00  0.00    +0.000 C 
ATOM      3  O   UNL     1       1.514  11.538  21.155  0.00  0.00    +0.000 OA
ATOM      4  N   UNL     1       0.345  10.666  19.372  0.00  0.00    +0.000 N 
ATOM      5  H   UNL     1      -1.410  12.144  20.216  0.00  0.00    +0.000 HD
ATOM      6  H   UNL     1      -0.033  11.076  18.529  0.00  0.00    +0.000 HD
ENDROOT
BRANCH   1  12
ATOM      7  C   UNL     1      -0.053  14.883  20.722  0.00  0.00    +0.000 A 
ATOM      8  N   UNL     1       0.110  16.015  21.459  0.00  0.00    +0.000 NA
ATOM      9  C   UNL     1      -0.270  15.980  22.752  0.00  0.00    +0.000 A 
ATOM     10  C   UNL     1      -0.750  14.844  23.371  0.00  0.00    +0.000 A 
ATOM     11  C   UNL     1      -0.812  13.664  22.631  0.00  0.00    +0.000 A 
ATOM     12  C   UNL     1      -0.466  13.659  21.274  0.00  0.00    +0.000 A 
BRANCH   7  13
ATOM     13  O   UNL     1       0.085  14.977  19.327  0.00  0.00    +0.000 OA
BRANCH  13  19
ATOM     14  C   UNL     1       1.648  16.436  18.146  0.00  0.00    +0.000 A 
ATOM     15  C   UNL     1       2.950  16.539  17.573  0.00  0.00    +0.000 A 
ATOM     16  C   UNL     1       3.934  15.564  17.723  0.00  0.00    +0.000 A 
ATOM     17  C   UNL     1       3.671  14.464  18.510  0.00  0.00    +0.000 A 
ATOM     18  C   UNL     1       2.413  14.328  19.091  0.00  0.00    +0.000 A 
ATOM     19  C   UNL     1       1.364  15.250  18.850  0.00  0.00    +0.000 A 
BRANCH  14  21
ATOM     20  C   UNL     1       1.106  18.374  16.614  0.00  0.00    +0.000 C 
ATOM     21  C   UNL     1       0.733  17.663  17.944  0.00  0.00    +0.000 C 
ATOM     22  C   UNL     1       0.955  18.624  19.152  0.00  0.00    +0.000 C 
ATOM     23  C   UNL     1      -0.789  17.422  17.887  0.00  0.00    +0.000 C 
ENDBRANCH  14  21
ENDBRANCH  13  19
ENDBRANCH   7  13
ENDBRANCH   1  12
BRANCH   4  24
ATOM     24  C   UNL     1       1.106   9.486  19.235  0.00  0.00    +0.000 A 
ATOM     25  C   UNL     1       1.194   8.559  20.274  0.00  0.00    +0.000 A 
ATOM     26  C   UNL     1       1.849   7.340  20.080  0.00  0.00    +0.000 A 
ATOM     27  C   UNL     1       2.463   7.022  18.859  0.00  0.00    +0.000 A 
ATOM     28  C   UNL     1       2.420   8.002  17.846  0.00  0.00    +0.000 A 
ATOM     29  C   UNL     1       1.726   9.204  18.020  0.00  0.00    +0.000 A 
BRANCH  27  30
ATOM     30  C   UNL     1       3.057   5.637  18.617  0.00  0.00    +0.000 C 
ATOM     31  C   UNL     1       4.182   5.464  17.612  0.00  0.00    +0.000 C 
ATOM     32  C   UNL     1       4.488   5.390  19.077  0.00  0.00    +0.000 C 
BRANCH  30  33
ATOM     33  C   UNL     1       2.072   4.492  18.781  0.00  0.00    +0.000 C 
BRANCH  33  34
ATOM     34  O   UNL     1       1.764   3.904  17.519  0.00  0.00    +0.000 OA
ATOM     35  H   UNL     1       1.381   4.616  16.977  0.00  0.00    +0.000 HD
ENDBRANCH  33  34
ENDBRANCH  30  33
ENDBRANCH  27  30
ENDBRANCH   4  24
TORSDOF 8
ENDMDL
MODEL 4
REMARK VINA RESULT:      -7.9      0.773      1.287
REMARK  Name = 
REMARK  11 active torsions:
REMARK  status: ('A' for Active; 'I' for Inactive)
REMARK    1  A    between atoms: C_1  and  C_2
REMARK    2  A    between atoms: C_2  and  C_3
REMARK    3  A    between atoms: C_2  and  C_4
REMARK    4  A    between atoms: C_2  and  C_5
REMARK    5  A    between atoms: C_10  and  O_11
REMARK    6  A    between atoms: O_11  and  C_12
REMARK    7  A    between atoms: C_17  and  N_18
REMARK    8  A    between atoms: N_21  and  C_22
REMARK    9  A    between atoms: C_25  and  C_26
REMARK   10  A    between atoms: C_26  and  C_27
REMARK   11  A    between atoms: C_27  and  O_28
REMARK                            x       y       z     vdW  Elec       q    Type
REMARK                         _______ _______ _______ _____ _____    ______ ____
ROOT
ATOM      1  N   UNL     1       7.594   6.353  18.040  0.00  0.00    +0.000 N 
ATOM      2  C   UNL     1       7.800   7.709  17.850  0.00  0.00    +0.000 C 
ATOM      3  O   UNL     1       7.271   8.378  16.970  0.00  0.00    +0.000 OA
ATOM      4  N   UNL     1       8.700   8.223  18.770  0.00  0.00    +0.000 N 
ATOM      5  H   UNL     1       7.657   6.023  18.995  0.00  0.00    +0.000 HD
ATOM      6  H   UNL     1       9.484   7.618  18.977  0.00  0.00    +0.000 HD
ENDROOT
BRANCH   1  12
ATOM      7  C   UNL     1       5.760   4.826  17.452  0.00  0.00    +0.000 A 
ATOM      8  N   UNL     1       5.174   3.901  16.646  0.00  0.00    +0.000 NA
ATOM      9  C   UNL     1       5.696   3.723  15.415  0.00  0.00    +0.000 A 
ATOM     10  C   UNL     1       6.823   4.381  14.967  0.00  0.00    +0.000 A 
ATOM     11  C   UNL     1       7.474   5.248  15.844  0.00  0.00    +0.000 A 
ATOM     12  C   UNL     1       6.948   5.496  17.117  0.00  0.00    +0.000 A 
BRANCH   7  13
ATOM     13  O   UNL     1       5.079   5.212  18.619  0.00  0.00    +0.000 OA
BRANCH  13  19
ATOM     14  C   UNL     1       2.651   5.484  18.623  0.00  0.00    +0.000 A 
ATOM     15  C   UNL     1       1.567   6.339  18.265  0.00  0.00    +0.000 A 
ATOM     16  C   UNL     1       1.738   7.643  17.806  0.00  0.00    +0.000 A 
ATOM     17  C   UNL     1       3.011   8.168  17.743  0.00  0.00    +0.000 A 
ATOM     18  C   UNL     1       4.096   7.367  18.088  0.00  0.00    +0.000 A 
ATOM     19  C   UNL     1       3.947   6.003  18.441  0.00  0.00    +0.000 A 
BRANCH  14  21
ATOM     20  C   UNL     1       3.420   3.544  20.053  0.00  0.00    +0.000 C 
ATOM     21  C   UNL     1       2.251   4.108  19.199  0.00  0.00    +0.000 C 
ATOM     22  C   UNL     1       1.952   3.160  17.998  0.00  0.00    +0.000 C 
ATOM     23  C   UNL     1       0.998   4.042  20.095  0.00  0.00    +0.000 C 
ENDBRANCH  14  21
ENDBRANCH  13  19
ENDBRANCH   7  13
ENDBRANCH   1  12
BRANCH   4  24
ATOM     24  C   UNL     1       8.881   9.609  18.959  0.00  0.00    +0.000 A 
ATOM     25  C   UNL     1       9.133  10.138  20.225  0.00  0.00    +0.000 A 
ATOM     26  C   UNL     1       9.432  11.494  20.378  0.00  0.00    +0.000 A 
ATOM     27  C   UNL     1       9.456  12.369  19.282  0.00  0.00    +0.000 A 
ATOM     28  C   UNL     1       9.131  11.826  18.022  0.00  0.00    +0.000 A 
ATOM     29  C   UNL     1       8.877  10.461  17.857  0.00  0.00    +0.000 A 
BRANCH  27  30
ATOM     30  C   UNL     1       9.913  13.816  19.443  0.00  0.00    +0.000 C 
ATOM     31  C   UNL     1      10.741  14.215  20.652  0.00  0.00    +0.000 C 
ATOM     32  C   UNL     1      11.402  14.107  19.312  0.00  0.00    +0.000 C 
BRANCH  30  33
ATOM     33  C   UNL     1       8.956  14.847  18.870  0.00  0.00    +0.000 C 
BRANCH  33  34
ATOM     34  O   UNL     1       7.629  14.627  19.346  0.00  0.00    +0.000 OA
ATOM     35  H   UNL     1       7.641  14.864  20.290  0.00  0.00    +0.000 HD
ENDBRANCH  33  34
ENDBRANCH  30  33
ENDBRANCH  27  30
ENDBRANCH   4  24
TORSDOF 8
ENDMDL
MODEL 5
REMARK VINA RESULT:      -7.9      5.191      8.033
REMARK  Name = 
REMARK  11 active torsions:
REMARK  status: ('A' for Active; 'I' for Inactive)
REMARK    1  A    between atoms: C_1  and  C_2
REMARK    2  A    between atoms: C_2  and  C_3
REMARK    3  A    between atoms: C_2  and  C_4
REMARK    4  A    between atoms: C_2  and  C_5
REMARK    5  A    between atoms: C_10  and  O_11
REMARK    6  A    between atoms: O_11  and  C_12
REMARK    7  A    between atoms: C_17  and  N_18
REMARK    8  A    between atoms: N_21  and  C_22
REMARK    9  A    between atoms: C_25  and  C_26
REMARK   10  A    between atoms: C_26  and  C_27
REMARK   11  A    between atoms: C_27  and  O_28
REMARK                            x       y       z     vdW  Elec       q    Type
REMARK                         _______ _______ _______ _____ _____    ______ ____
ROOT
ATOM      1  N   UNL     1       2.658   6.245  20.507  0.00  0.00    +0.000 N 
ATOM      2  C   UNL     1       1.501   6.994  20.651  0.00  0.00    +0.000 C 
ATOM      3  O   UNL     1       0.368   6.528  20.678  0.00  0.00    +0.000 OA
ATOM      4  N   UNL     1       1.778   8.348  20.743  0.00  0.00    +0.000 N 
ATOM      5  H   UNL     1       3.484   6.611  20.963  0.00  0.00    +0.000 HD
ATOM      6  H   UNL     1       2.514   8.672  20.130  0.00  0.00    +0.000 HD
ENDROOT
BRANCH   1  12
ATOM      7  C   UNL     1       3.226   4.484  18.889  0.00  0.00    +0.000 A 
ATOM      8  N   UNL     1       3.170   3.204  18.432  0.00  0.00    +0.000 NA
ATOM      9  C   UNL     1       2.700   2.260  19.272  0.00  0.00    +0.000 A 
ATOM     10  C   UNL     1       2.217   2.539  20.533  0.00  0.00    +0.000 A 
ATOM     11  C   UNL     1       2.182   3.870  20.948  0.00  0.00    +0.000 A 
ATOM     12  C   UNL     1       2.696   4.882  20.128  0.00  0.00    +0.000 A 
BRANCH   7  13
ATOM     13  O   UNL     1       3.951   5.424  18.137  0.00  0.00    +0.000 OA
BRANCH  13  19
ATOM     14  C   UNL     1       6.133   5.124  17.080  0.00  0.00    +0.000 A 
ATOM     15  C   UNL     1       7.524   4.907  17.306  0.00  0.00    +0.000 A 
ATOM     16  C   UNL     1       8.114   4.956  18.567  0.00  0.00    +0.000 A 
ATOM     17  C   UNL     1       7.336   5.285  19.657  0.00  0.00    +0.000 A 
ATOM     18  C   UNL     1       5.974   5.508  19.478  0.00  0.00    +0.000 A 
ATOM     19  C   UNL     1       5.338   5.344  18.222  0.00  0.00    +0.000 A 
BRANCH  14  21
ATOM     20  C   UNL     1       6.925   4.870  14.692  0.00  0.00    +0.000 C 
ATOM     21  C   UNL     1       5.691   5.121  15.601  0.00  0.00    +0.000 C 
ATOM     22  C   UNL     1       5.063   6.514  15.291  0.00  0.00    +0.000 C 
ATOM     23  C   UNL     1       4.628   4.088  15.171  0.00  0.00    +0.000 C 
ENDBRANCH  14  21
ENDBRANCH  13  19
ENDBRANCH   7  13
ENDBRANCH   1  12
BRANCH   4  24
ATOM     24  C   UNL     1       0.813   9.292  21.154  0.00  0.00    +0.000 A 
ATOM     25  C   UNL     1       0.472   9.438  22.498  0.00  0.00    +0.000 A 
ATOM     26  C   UNL     1      -0.392  10.458  22.902  0.00  0.00    +0.000 A 
ATOM     27  C   UNL     1      -0.969  11.341  21.976  0.00  0.00    +0.000 A 
ATOM     28  C   UNL     1      -0.664  11.132  20.616  0.00  0.00    +0.000 A 
ATOM     29  C   UNL     1       0.237  10.142  20.212  0.00  0.00    +0.000 A 
BRANCH  27  30
ATOM     30  C   UNL     1      -1.803  12.531  22.443  0.00  0.00    +0.000 C 
ATOM     31  C   UNL     1      -1.212  13.529  23.424  0.00  0.00    +0.000 C 
ATOM     32  C   UNL     1      -1.374  13.920  21.987  0.00  0.00    +0.000 C 
BRANCH  30  33
ATOM     33  C   UNL     1      -3.296  12.262  22.521  0.00  0.00    +0.000 C 
BRANCH  33  34
ATOM     34  O   UNL     1      -3.691  11.980  23.862  0.00  0.00    +0.000 OA
ATOM     35  H   UNL     1      -2.946  11.501  24.266  0.00  0.00    +0.000 HD
ENDBRANCH  33  34
ENDBRANCH  30  33
ENDBRANCH  27  30
ENDBRANCH   4  24
TORSDOF 8
ENDMDL
MODEL 6
REMARK VINA RESULT:      -7.8      0.629      2.218
REMARK  Name = 
REMARK  11 active torsions:
REMARK  status: ('A' for Active; 'I' for Inactive)
REMARK    1  A    between atoms: C_1  and  C_2
REMARK    2  A    between atoms: C_2  and  C_3
REMARK    3  A    between atoms: C_2  and  C_4
REMARK    4  A    between atoms: C_2  and  C_5
REMARK    5  A    between atoms: C_10  and  O_11
REMARK    6  A    between atoms: O_11  and  C_12
REMARK    7  A    between atoms: C_17  and  N_18
REMARK    8  A    between atoms: N_21  and  C_22
REMARK    9  A    between atoms: C_25  and  C_26
REMARK   10  A    between atoms: C_26  and  C_27
REMARK   11  A    between atoms: C_27  and  O_28
REMARK                            x       y       z     vdW  Elec       q    Type
REMARK                         _______ _______ _______ _____ _____    ______ ____
ROOT
ATOM      1  N   UNL     1       7.683   6.519  18.297  0.00  0.00    +0.000 N 
ATOM      2  C   UNL     1       7.892   7.866  18.052  0.00  0.00    +0.000 C 
ATOM      3  O   UNL     1       7.322   8.513  17.181  0.00  0.00    +0.000 OA
ATOM      4  N   UNL     1       8.847   8.398  18.903  0.00  0.00    +0.000 N 
ATOM      5  H   UNL     1       7.796   6.220  19.257  0.00  0.00    +0.000 HD
ATOM      6  H   UNL     1       9.635   7.791  19.086  0.00  0.00    +0.000 HD
ENDROOT
BRANCH   1  12
ATOM      7  C   UNL     1       5.858   4.924  17.891  0.00  0.00    +0.000 A 
ATOM      8  N   UNL     1       5.227   3.980  17.143  0.00  0.00    +0.000 NA
ATOM      9  C   UNL     1       5.623   3.828  15.864  0.00  0.00    +0.000 A 
ATOM     10  C   UNL     1       6.671   4.531  15.305  0.00  0.00    +0.000 A 
ATOM     11  C   UNL     1       7.376   5.419  16.116  0.00  0.00    +0.000 A 
ATOM     12  C   UNL     1       6.977   5.641  17.440  0.00  0.00    +0.000 A 
BRANCH   7  13
ATOM     13  O   UNL     1       5.288   5.278  19.126  0.00  0.00    +0.000 OA
BRANCH  13  19
ATOM     14  C   UNL     1       2.854   5.265  19.338  0.00  0.00    +0.000 A 
ATOM     15  C   UNL     1       1.727   4.565  19.861  0.00  0.00    +0.000 A 
ATOM     16  C   UNL     1       1.809   3.296  20.431  0.00  0.00    +0.000 A 
ATOM     17  C   UNL     1       3.025   2.647  20.446  0.00  0.00    +0.000 A 
ATOM     18  C   UNL     1       4.149   3.294  19.941  0.00  0.00    +0.000 A 
ATOM     19  C   UNL     1       4.104   4.630  19.469  0.00  0.00    +0.000 A 
BRANCH  14  21
ATOM     20  C   UNL     1       2.115   7.649  19.744  0.00  0.00    +0.000 C 
ATOM     21  C   UNL     1       2.542   6.618  18.664  0.00  0.00    +0.000 C 
ATOM     22  C   UNL     1       1.382   6.386  17.648  0.00  0.00    +0.000 C 
ATOM     23  C   UNL     1       3.668   7.293  17.853  0.00  0.00    +0.000 C 
ENDBRANCH  14  21
ENDBRANCH  13  19
ENDBRANCH   7  13
ENDBRANCH   1  12
BRANCH   4  24
ATOM     24  C   UNL     1       9.053   9.787  19.037  0.00  0.00    +0.000 A 
ATOM     25  C   UNL     1       9.196  10.378  20.292  0.00  0.00    +0.000 A 
ATOM     26  C   UNL     1       9.522  11.732  20.403  0.00  0.00    +0.000 A 
ATOM     27  C   UNL     1       9.681  12.545  19.270  0.00  0.00    +0.000 A 
ATOM     28  C   UNL     1       9.464  11.942  18.014  0.00  0.00    +0.000 A 
ATOM     29  C   UNL     1       9.185  10.577  17.896  0.00  0.00    +0.000 A 
BRANCH  27  30
ATOM     30  C   UNL     1      10.167  13.986  19.400  0.00  0.00    +0.000 C 
ATOM     31  C   UNL     1      10.601  14.516  20.755  0.00  0.00    +0.000 C 
ATOM     32  C   UNL     1      11.639  14.211  19.718  0.00  0.00    +0.000 C 
BRANCH  30  33
ATOM     33  C   UNL     1       9.512  14.960  18.436  0.00  0.00    +0.000 C 
BRANCH  33  34
ATOM     34  O   UNL     1       8.661  15.868  19.132  0.00  0.00    +0.000 OA
ATOM     35  H   UNL     1       7.809  15.409  19.239  0.00  0.00    +0.000 HD
ENDBRANCH  33  34
ENDBRANCH  30  33
ENDBRANCH  27  30
ENDBRANCH   4  24
TORSDOF 8
ENDMDL
MODEL 7
REMARK VINA RESULT:      -7.8      1.039      2.494
REMARK  Name = 
REMARK  11 active torsions:
REMARK  status: ('A' for Active; 'I' for Inactive)
REMARK    1  A    between atoms: C_1  and  C_2
REMARK    2  A    between atoms: C_2  and  C_3
REMARK    3  A    between atoms: C_2  and  C_4
REMARK    4  A    between atoms: C_2  and  C_5
REMARK    5  A    between atoms: C_10  and  O_11
REMARK    6  A    between atoms: O_11  and  C_12
REMARK    7  A    between atoms: C_17  and  N_18
REMARK    8  A    between atoms: N_21  and  C_22
REMARK    9  A    between atoms: C_25  and  C_26
REMARK   10  A    between atoms: C_26  and  C_27
REMARK   11  A    between atoms: C_27  and  O_28
REMARK                            x       y       z     vdW  Elec       q    Type
REMARK                         _______ _______ _______ _____ _____    ______ ____
ROOT
ATOM      1  N   UNL     1       7.676   6.505  18.274  0.00  0.00    +0.000 N 
ATOM      2  C   UNL     1       7.842   7.858  18.028  0.00  0.00    +0.000 C 
ATOM      3  O   UNL     1       7.228   8.493  17.178  0.00  0.00    +0.000 OA
ATOM      4  N   UNL     1       8.809   8.412  18.852  0.00  0.00    +0.000 N 
ATOM      5  H   UNL     1       7.826   6.205  19.229  0.00  0.00    +0.000 HD
ATOM      6  H   UNL     1       9.617   7.825  19.008  0.00  0.00    +0.000 HD
ENDROOT
BRANCH   1  12
ATOM      7  C   UNL     1       5.854   4.897  17.906  0.00  0.00    +0.000 A 
ATOM      8  N   UNL     1       5.221   3.940  17.176  0.00  0.00    +0.000 NA
ATOM      9  C   UNL     1       5.609   3.770  15.896  0.00  0.00    +0.000 A 
ATOM     10  C   UNL     1       6.651   4.468  15.320  0.00  0.00    +0.000 A 
ATOM     11  C   UNL     1       7.358   5.371  16.112  0.00  0.00    +0.000 A 
ATOM     12  C   UNL     1       6.968   5.612  17.435  0.00  0.00    +0.000 A 
BRANCH   7  13
ATOM     13  O   UNL     1       5.291   5.268  19.139  0.00  0.00    +0.000 OA
BRANCH  13  19
ATOM     14  C   UNL     1       2.858   5.260  19.354  0.00  0.00    +0.000 A 
ATOM     15  C   UNL     1       1.731   4.571  19.892  0.00  0.00    +0.000 A 
ATOM     16  C   UNL     1       1.814   3.314  20.487  0.00  0.00    +0.000 A 
ATOM     17  C   UNL     1       3.029   2.665  20.514  0.00  0.00    +0.000 A 
ATOM     18  C   UNL     1       4.153   3.302  19.994  0.00  0.00    +0.000 A 
ATOM     19  C   UNL     1       4.108   4.628  19.496  0.00  0.00    +0.000 A 
BRANCH  14  21
ATOM     20  C   UNL     1       2.131   7.656  19.714  0.00  0.00    +0.000 C 
ATOM     21  C   UNL     1       2.546   6.599  18.652  0.00  0.00    +0.000 C 
ATOM     22  C   UNL     1       1.377   6.350  17.651  0.00  0.00    +0.000 C 
ATOM     23  C   UNL     1       3.667   7.252  17.818  0.00  0.00    +0.000 C 
ENDBRANCH  14  21
ENDBRANCH  13  19
ENDBRANCH   7  13
ENDBRANCH   1  12
BRANCH   4  24
ATOM     24  C   UNL     1       8.982   9.806  18.985  0.00  0.00    +0.000 A 
ATOM     25  C   UNL     1       9.277  10.382  20.220  0.00  0.00    +0.000 A 
ATOM     26  C   UNL     1       9.567  11.745  20.314  0.00  0.00    +0.000 A 
ATOM     27  C   UNL     1       9.539  12.581  19.187  0.00  0.00    +0.000 A 
ATOM     28  C   UNL     1       9.171  11.990  17.960  0.00  0.00    +0.000 A 
ATOM     29  C   UNL     1       8.926  10.618  17.854  0.00  0.00    +0.000 A 
BRANCH  27  30
ATOM     30  C   UNL     1       9.986  14.037  19.279  0.00  0.00    +0.000 C 
ATOM     31  C   UNL     1       9.531  15.034  18.228  0.00  0.00    +0.000 C 
ATOM     32  C   UNL     1       8.929  15.085  19.599  0.00  0.00    +0.000 C 
BRANCH  30  33
ATOM     33  C   UNL     1      11.362  14.235  19.893  0.00  0.00    +0.000 C 
BRANCH  33  34
ATOM     34  O   UNL     1      12.333  13.423  19.235  0.00  0.00    +0.000 OA
ATOM     35  H   UNL     1      12.765  13.999  18.581  0.00  0.00    +0.000 HD
ENDBRANCH  33  34
ENDBRANCH  30  33
ENDBRANCH  27  30
ENDBRANCH   4  24
TORSDOF 8
ENDMDL
MODEL 8
REMARK VINA RESULT:      -7.8      0.967      1.630
REMARK  Name = 
REMARK  11 active torsions:
REMARK  status: ('A' for Active; 'I' for Inactive)
REMARK    1  A    between atoms: C_1  and  C_2
REMARK    2  A    between atoms: C_2  and  C_3
REMARK    3  A    between atoms: C_2  and  C_4
REMARK    4  A    between atoms: C_2  and  C_5
REMARK    5  A    between atoms: C_10  and  O_11
REMARK    6  A    between atoms: O_11  and  C_12
REMARK    7  A    between atoms: C_17  and  N_18
REMARK    8  A    between atoms: N_21  and  C_22
REMARK    9  A    between atoms: C_25  and  C_26
REMARK   10  A    between atoms: C_26  and  C_27
REMARK   11  A    between atoms: C_27  and  O_28
REMARK                            x       y       z     vdW  Elec       q    Type
REMARK                         _______ _______ _______ _____ _____    ______ ____
ROOT
ATOM      1  N   UNL     1       7.585   6.413  18.131  0.00  0.00    +0.000 N 
ATOM      2  C   UNL     1       7.864   7.744  17.871  0.00  0.00    +0.000 C 
ATOM      3  O   UNL     1       7.423   8.376  16.917  0.00  0.00    +0.000 OA
ATOM      4  N   UNL     1       8.726   8.279  18.814  0.00  0.00    +0.000 N 
ATOM      5  H   UNL     1       7.572   6.144  19.107  0.00  0.00    +0.000 HD
ATOM      6  H   UNL     1       9.467   7.658  19.109  0.00  0.00    +0.000 HD
ENDROOT
BRANCH   1  12
ATOM      7  C   UNL     1       5.783   4.840  17.565  0.00  0.00    +0.000 A 
ATOM      8  N   UNL     1       5.219   3.888  16.774  0.00  0.00    +0.000 NA
ATOM      9  C   UNL     1       5.751   3.695  15.551  0.00  0.00    +0.000 A 
ATOM     10  C   UNL     1       6.868   4.364  15.095  0.00  0.00    +0.000 A 
ATOM     11  C   UNL     1       7.498   5.261  15.957  0.00  0.00    +0.000 A 
ATOM     12  C   UNL     1       6.960   5.525  17.222  0.00  0.00    +0.000 A 
BRANCH   7  13
ATOM     13  O   UNL     1       5.087   5.238  18.720  0.00  0.00    +0.000 OA
BRANCH  13  19
ATOM     14  C   UNL     1       2.657   5.480  18.711  0.00  0.00    +0.000 A 
ATOM     15  C   UNL     1       1.563   6.312  18.329  0.00  0.00    +0.000 A 
ATOM     16  C   UNL     1       1.720   7.606  17.838  0.00  0.00    +0.000 A 
ATOM     17  C   UNL     1       2.986   8.146  17.764  0.00  0.00    +0.000 A 
ATOM     18  C   UNL     1       4.080   7.367  18.132  0.00  0.00    +0.000 A 
ATOM     19  C   UNL     1       3.947   6.010  18.519  0.00  0.00    +0.000 A 
BRANCH  14  21
ATOM     20  C   UNL     1       1.745   3.177  18.199  0.00  0.00    +0.000 C 
ATOM     21  C   UNL     1       2.272   4.114  19.320  0.00  0.00    +0.000 C 
ATOM     22  C   UNL     1       1.160   4.365  20.383  0.00  0.00    +0.000 C 
ATOM     23  C   UNL     1       3.372   3.321  20.056  0.00  0.00    +0.000 C 
ENDBRANCH  14  21
ENDBRANCH  13  19
ENDBRANCH   7  13
ENDBRANCH   1  12
BRANCH   4  24
ATOM     24  C   UNL     1       8.958   9.667  18.928  0.00  0.00    +0.000 A 
ATOM     25  C   UNL     1       8.828  10.513  17.827  0.00  0.00    +0.000 A 
ATOM     26  C   UNL     1       8.940  11.897  17.982  0.00  0.00    +0.000 A 
ATOM     27  C   UNL     1       9.217  12.476  19.229  0.00  0.00    +0.000 A 
ATOM     28  C   UNL     1       9.412  11.597  20.314  0.00  0.00    +0.000 A 
ATOM     29  C   UNL     1       9.255  10.215  20.174  0.00  0.00    +0.000 A 
BRANCH  27  30
ATOM     30  C   UNL     1       9.204  13.991  19.410  0.00  0.00    +0.000 C 
ATOM     31  C   UNL     1       8.189  14.833  18.655  0.00  0.00    +0.000 C 
ATOM     32  C   UNL     1       8.010  14.609  20.126  0.00  0.00    +0.000 C 
BRANCH  30  33
ATOM     33  C   UNL     1      10.566  14.604  19.686  0.00  0.00    +0.000 C 
BRANCH  33  34
ATOM     34  O   UNL     1      11.115  15.176  18.500  0.00  0.00    +0.000 OA
ATOM     35  H   UNL     1      11.918  15.650  18.777  0.00  0.00    +0.000 HD
ENDBRANCH  33  34
ENDBRANCH  30  33
ENDBRANCH  27  30
ENDBRANCH   4  24
TORSDOF 8
ENDMDL
MODEL 9
REMARK VINA RESULT:      -7.8      1.104      1.340
REMARK  Name = 
REMARK  11 active torsions:
REMARK  status: ('A' for Active; 'I' for Inactive)
REMARK    1  A    between atoms: C_1  and  C_2
REMARK    2  A    between atoms: C_2  and  C_3
REMARK    3  A    between atoms: C_2  and  C_4
REMARK    4  A    between atoms: C_2  and  C_5
REMARK    5  A    between atoms: C_10  and  O_11
REMARK    6  A    between atoms: O_11  and  C_12
REMARK    7  A    between atoms: C_17  and  N_18
REMARK    8  A    between atoms: N_21  and  C_22
REMARK    9  A    between atoms: C_25  and  C_26
REMARK   10  A    between atoms: C_26  and  C_27
REMARK   11  A    between atoms: C_27  and  O_28
REMARK                            x       y       z     vdW  Elec       q    Type
REMARK                         _______ _______ _______ _____ _____    ______ ____
ROOT
ATOM      1  N   UNL     1       7.592   6.331  18.094  0.00  0.00    +0.000 N 
ATOM      2  C   UNL     1       7.802   7.682  17.878  0.00  0.00    +0.000 C 
ATOM      3  O   UNL     1       7.275   8.335  16.985  0.00  0.00    +0.000 OA
ATOM      4  N   UNL     1       8.703   8.211  18.787  0.00  0.00    +0.000 N 
ATOM      5  H   UNL     1       7.654   6.019  19.056  0.00  0.00    +0.000 HD
ATOM      6  H   UNL     1       9.485   7.608  19.006  0.00  0.00    +0.000 HD
ENDROOT
BRANCH   1  12
ATOM      7  C   UNL     1       5.755   4.795  17.537  0.00  0.00    +0.000 A 
ATOM      8  N   UNL     1       5.167   3.856  16.748  0.00  0.00    +0.000 NA
ATOM      9  C   UNL     1       5.686   3.656  15.520  0.00  0.00    +0.000 A 
ATOM     10  C   UNL     1       6.813   4.304  15.058  0.00  0.00    +0.000 A 
ATOM     11  C   UNL     1       7.466   5.186  15.918  0.00  0.00    +0.000 A 
ATOM     12  C   UNL     1       6.943   5.458  17.188  0.00  0.00    +0.000 A 
BRANCH   7  13
ATOM     13  O   UNL     1       5.076   5.202  18.698  0.00  0.00    +0.000 OA
BRANCH  13  19
ATOM     14  C   UNL     1       2.644   5.431  18.689  0.00  0.00    +0.000 A 
ATOM     15  C   UNL     1       1.547   6.262  18.318  0.00  0.00    +0.000 A 
ATOM     16  C   UNL     1       1.697   7.564  17.846  0.00  0.00    +0.000 A 
ATOM     17  C   UNL     1       2.960   8.112  17.783  0.00  0.00    +0.000 A 
ATOM     18  C   UNL     1       4.058   7.334  18.141  0.00  0.00    +0.000 A 
ATOM     19  C   UNL     1       3.932   5.971  18.507  0.00  0.00    +0.000 A 
BRANCH  14  21
ATOM     20  C   UNL     1       1.811   3.109  18.131  0.00  0.00    +0.000 C 
ATOM     21  C   UNL     1       2.266   4.054  19.277  0.00  0.00    +0.000 C 
ATOM     22  C   UNL     1       1.104   4.274  20.292  0.00  0.00    +0.000 C 
ATOM     23  C   UNL     1       3.352   3.284  20.058  0.00  0.00    +0.000 C 
ENDBRANCH  14  21
ENDBRANCH  13  19
ENDBRANCH   7  13
ENDBRANCH   1  12
BRANCH   4  24
ATOM     24  C   UNL     1       8.888   9.600  18.950  0.00  0.00    +0.000 A 
ATOM     25  C   UNL     1       9.237  10.142  20.186  0.00  0.00    +0.000 A 
ATOM     26  C   UNL     1       9.538  11.502  20.303  0.00  0.00    +0.000 A 
ATOM     27  C   UNL     1       9.466  12.367  19.201  0.00  0.00    +0.000 A 
ATOM     28  C   UNL     1       9.045  11.810  17.976  0.00  0.00    +0.000 A 
ATOM     29  C   UNL     1       8.789  10.442  17.844  0.00  0.00    +0.000 A 
BRANCH  27  30
ATOM     30  C   UNL     1       9.924  13.818  19.312  0.00  0.00    +0.000 C 
ATOM     31  C   UNL     1       8.933  14.893  19.723  0.00  0.00    +0.000 C 
ATOM     32  C   UNL     1       9.973  14.441  20.701  0.00  0.00    +0.000 C 
BRANCH  30  33
ATOM     33  C   UNL     1      11.028  14.207  18.343  0.00  0.00    +0.000 C 
BRANCH  33  34
ATOM     34  O   UNL     1      12.143  13.326  18.464  0.00  0.00    +0.000 OA
ATOM     35  H   UNL     1      12.774  13.595  17.774  0.00  0.00    +0.000 HD
ENDBRANCH  33  34
ENDBRANCH  30  33
ENDBRANCH  27  30
ENDBRANCH   4  24
TORSDOF 8
ENDMDL
