MODEL 1
REMARK VINA RESULT:      -7.3      0.000      0.000
REMARK  Name = 
REMARK  4 active torsions:
REMARK  status: ('A' for Active; 'I' for Inactive)
REMARK    1  A    between atoms: C_3  and  O_4
REMARK    2  A    between atoms: C_5  and  C_6
REMARK    3  A    between atoms: C_17  and  O_18
REMARK    4  A    between atoms: C_20  and  O_21
REMARK                            x       y       z     vdW  Elec       q    Type
REMARK                         _______ _______ _______ _____ _____    ______ ____
ROOT
ATOM      1  O   UNL     1       7.905   6.276  16.533  0.00  0.00    +0.000 OA
ATOM      2  C   UNL     1       6.987   5.493  16.322  0.00  0.00    +0.000 A 
ATOM      3  C   UNL     1       6.081   5.177  17.452  0.00  0.00    +0.000 A 
ATOM      4  C   UNL     1       5.076   4.309  17.262  0.00  0.00    +0.000 A 
ATOM      5  O   UNL     1       4.832   3.638  16.078  0.00  0.00    +0.000 OA
ATOM      6  C   UNL     1       5.630   3.923  14.992  0.00  0.00    +0.000 A 
ATOM      7  C   UNL     1       5.318   3.248  13.807  0.00  0.00    +0.000 A 
ATOM      8  C   UNL     1       6.061   3.509  12.661  0.00  0.00    +0.000 A 
ATOM      9  C   UNL     1       7.106   4.426  12.678  0.00  0.00    +0.000 A 
ATOM     10  C   UNL     1       7.424   5.087  13.865  0.00  0.00    +0.000 A 
ATOM     11  C   UNL     1       6.691   4.835  15.032  0.00  0.00    +0.000 A 
ENDROOT
BRANCH   4  12
ATOM     12  C   UNL     1       4.115   4.017  18.337  0.00  0.00    +0.000 A 
ATOM     13  C   UNL     1       4.229   2.807  19.041  0.00  0.00    +0.000 A 
ATOM     14  C   UNL     1       3.389   2.532  20.124  0.00  0.00    +0.000 A 
ATOM     15  C   UNL     1       2.432   3.468  20.514  0.00  0.00    +0.000 A 
ATOM     16 CL   UNL     1       1.420   3.141  21.867  0.00  0.00    +0.000 Cl
ATOM     17  C   UNL     1       2.290   4.666  19.818  0.00  0.00    +0.000 A 
ATOM     18  C   UNL     1       3.123   4.936  18.728  0.00  0.00    +0.000 A 
ATOM     19 CL   UNL     1       2.876   6.424  17.881  0.00  0.00    +0.000 Cl
ENDBRANCH   4  12
BRANCH   3  20
ATOM     20  O   UNL     1       6.326   5.819  18.653  0.00  0.00    +0.000 OA
ATOM     21  H   UNL     1       6.877   5.181  19.160  0.00  0.00    +0.000 HD
ENDBRANCH   3  20
BRANCH   8  22
ATOM     22  O   UNL     1       5.794   2.884  11.479  0.00  0.00    +0.000 OA
ATOM     23  H   UNL     1       5.871   3.523  10.753  0.00  0.00    +0.000 HD
ENDBRANCH   8  22
BRANCH  10  24
ATOM     24  O   UNL     1       8.452   5.986  13.862  0.00  0.00    +0.000 OA
ATOM     25  H   UNL     1       8.472   6.473  13.023  0.00  0.00    +0.000 HD
ENDBRANCH  10  24
TORSDOF 4
ENDMDL
MODEL 2
REMARK VINA RESULT:      -7.3      3.065      7.106
REMARK  Name = 
REMARK  4 active torsions:
REMARK  status: ('A' for Active; 'I' for Inactive)
REMARK    1  A    between atoms: C_3  and  O_4
REMARK    2  A    between atoms: C_5  and  C_6
REMARK    3  A    between atoms: C_17  and  O_18
REMARK    4  A    between atoms: C_20  and  O_21
REMARK                            x       y       z     vdW  Elec       q    Type
REMARK                         _______ _______ _______ _____ _____    ______ ____
ROOT
ATOM      1  O   UNL     1       2.763   2.200  19.558  0.00  0.00    +0.000 OA
ATOM      2  C   UNL     1       3.088   3.282  19.082  0.00  0.00    +0.000 A 
ATOM      3  C   UNL     1       4.031   3.274  17.939  0.00  0.00    +0.000 A 
ATOM      4  C   UNL     1       4.421   4.441  17.406  0.00  0.00    +0.000 A 
ATOM      5  O   UNL     1       4.038   5.685  17.871  0.00  0.00    +0.000 OA
ATOM      6  C   UNL     1       3.139   5.741  18.914  0.00  0.00    +0.000 A 
ATOM      7  C   UNL     1       2.751   7.021  19.322  0.00  0.00    +0.000 A 
ATOM      8  C   UNL     1       1.822   7.154  20.348  0.00  0.00    +0.000 A 
ATOM      9  C   UNL     1       1.277   6.036  20.971  0.00  0.00    +0.000 A 
ATOM     10  C   UNL     1       1.677   4.760  20.570  0.00  0.00    +0.000 A 
ATOM     11  C   UNL     1       2.616   4.605  19.543  0.00  0.00    +0.000 A 
ENDROOT
BRANCH   4  12
ATOM     12  C   UNL     1       5.305   4.478  16.229  0.00  0.00    +0.000 A 
ATOM     13  C   UNL     1       4.751   4.264  14.957  0.00  0.00    +0.000 A 
ATOM     14  C   UNL     1       5.542   4.375  13.809  0.00  0.00    +0.000 A 
ATOM     15  C   UNL     1       6.892   4.707  13.927  0.00  0.00    +0.000 A 
ATOM     16 CL   UNL     1       7.856   4.874  12.511  0.00  0.00    +0.000 Cl
ATOM     17  C   UNL     1       7.464   4.904  15.180  0.00  0.00    +0.000 A 
ATOM     18  C   UNL     1       6.676   4.782  16.328  0.00  0.00    +0.000 A 
ATOM     19 CL   UNL     1       7.451   5.003  17.859  0.00  0.00    +0.000 Cl
ENDBRANCH   4  12
BRANCH   3  20
ATOM     20  O   UNL     1       4.448   2.039  17.475  0.00  0.00    +0.000 OA
ATOM     21  H   UNL     1       5.080   1.724  18.160  0.00  0.00    +0.000 HD
ENDBRANCH   3  20
BRANCH   8  22
ATOM     22  O   UNL     1       1.404   8.378  20.780  0.00  0.00    +0.000 OA
ATOM     23  H   UNL     1       1.829   9.069  20.247  0.00  0.00    +0.000 HD
ENDBRANCH   8  22
BRANCH  10  24
ATOM     24  O   UNL     1       1.130   3.675  21.193  0.00  0.00    +0.000 OA
ATOM     25  H   UNL     1       0.328   3.931  21.676  0.00  0.00    +0.000 HD
ENDBRANCH  10  24
TORSDOF 4
ENDMDL
MODEL 3
REMARK VINA RESULT:      -7.0      3.285      6.880
REMARK  Name = 
REMARK  4 active torsions:
REMARK  status: ('A' for Active; 'I' for Inactive)
REMARK    1  A    between atoms: C_3  and  O_4
REMARK    2  A    between atoms: C_5  and  C_6
REMARK    3  A    between atoms: C_17  and  O_18
REMARK    4  A    between atoms: C_20  and  O_21
REMARK                            x       y       z     vdW  Elec       q    Type
REMARK                         _______ _______ _______ _____ _____    ______ ____
ROOT
ATOM      1  O   UNL     1       3.600   4.089  20.186  0.00  0.00    +0.000 OA
ATOM      2  C   UNL     1       3.670   4.873  19.247  0.00  0.00    +0.000 A 
ATOM      3  C   UNL     1       4.482   4.470  18.074  0.00  0.00    +0.000 A 
ATOM      4  C   UNL     1       4.596   5.312  17.037  0.00  0.00    +0.000 A 
ATOM      5  O   UNL     1       4.036   6.575  16.985  0.00  0.00    +0.000 OA
ATOM      6  C   UNL     1       3.249   6.981  18.040  0.00  0.00    +0.000 A 
ATOM      7  C   UNL     1       2.672   8.250  17.923  0.00  0.00    +0.000 A 
ATOM      8  C   UNL     1       1.840   8.713  18.935  0.00  0.00    +0.000 A 
ATOM      9  C   UNL     1       1.574   7.936  20.058  0.00  0.00    +0.000 A 
ATOM     10  C   UNL     1       2.162   6.676  20.178  0.00  0.00    +0.000 A 
ATOM     11  C   UNL     1       3.009   6.193  19.172  0.00  0.00    +0.000 A 
ENDROOT
BRANCH   4  12
ATOM     12  C   UNL     1       5.338   4.925  15.826  0.00  0.00    +0.000 A 
ATOM     13  C   UNL     1       4.682   4.174  14.837  0.00  0.00    +0.000 A 
ATOM     14  C   UNL     1       5.327   3.860  13.637  0.00  0.00    +0.000 A 
ATOM     15  C   UNL     1       6.631   4.302  13.415  0.00  0.00    +0.000 A 
ATOM     16 CL   UNL     1       7.411   3.943  11.923  0.00  0.00    +0.000 Cl
ATOM     17  C   UNL     1       7.306   5.032  14.390  0.00  0.00    +0.000 A 
ATOM     18  C   UNL     1       6.665   5.335  15.594  0.00  0.00    +0.000 A 
ATOM     19 CL   UNL     1       7.565   6.215  16.782  0.00  0.00    +0.000 Cl
ENDBRANCH   4  12
BRANCH   3  20
ATOM     20  O   UNL     1       5.073   3.219  18.118  0.00  0.00    +0.000 OA
ATOM     21  H   UNL     1       4.865   2.885  19.019  0.00  0.00    +0.000 HD
ENDBRANCH   3  20
BRANCH   8  22
ATOM     22  O   UNL     1       1.247   9.940  18.868  0.00  0.00    +0.000 OA
ATOM     23  H   UNL     1       1.130  10.291  19.765  0.00  0.00    +0.000 HD
ENDBRANCH   8  22
BRANCH  10  24
ATOM     24  O   UNL     1       1.889   5.926  21.286  0.00  0.00    +0.000 OA
ATOM     25  H   UNL     1       2.383   5.091  21.258  0.00  0.00    +0.000 HD
ENDBRANCH  10  24
TORSDOF 4
ENDMDL
MODEL 4
REMARK VINA RESULT:      -6.9      3.043      6.844
REMARK  Name = 
REMARK  4 active torsions:
REMARK  status: ('A' for Active; 'I' for Inactive)
REMARK    1  A    between atoms: C_3  and  O_4
REMARK    2  A    between atoms: C_5  and  C_6
REMARK    3  A    between atoms: C_17  and  O_18
REMARK    4  A    between atoms: C_20  and  O_21
REMARK                            x       y       z     vdW  Elec       q    Type
REMARK                         _______ _______ _______ _____ _____    ______ ____
ROOT
ATOM      1  O   UNL     1       2.548   7.546  18.854  0.00  0.00    +0.000 OA
ATOM      2  C   UNL     1       3.061   6.448  18.673  0.00  0.00    +0.000 A 
ATOM      3  C   UNL     1       3.871   6.263  17.445  0.00  0.00    +0.000 A 
ATOM      4  C   UNL     1       4.432   5.068  17.207  0.00  0.00    +0.000 A 
ATOM      5  O   UNL     1       4.282   3.954  18.012  0.00  0.00    +0.000 OA
ATOM      6  C   UNL     1       3.562   4.088  19.178  0.00  0.00    +0.000 A 
ATOM      7  C   UNL     1       3.472   2.944  19.979  0.00  0.00    +0.000 A 
ATOM      8  C   UNL     1       2.787   3.013  21.187  0.00  0.00    +0.000 A 
ATOM      9  C   UNL     1       2.192   4.197  21.608  0.00  0.00    +0.000 A 
ATOM     10  C   UNL     1       2.272   5.333  20.800  0.00  0.00    +0.000 A 
ATOM     11  C   UNL     1       2.953   5.284  19.577  0.00  0.00    +0.000 A 
ENDROOT
BRANCH   4  12
ATOM     12  C   UNL     1       5.297   4.859  16.034  0.00  0.00    +0.000 A 
ATOM     13  C   UNL     1       4.768   4.214  14.905  0.00  0.00    +0.000 A 
ATOM     14  C   UNL     1       5.533   4.074  13.743  0.00  0.00    +0.000 A 
ATOM     15  C   UNL     1       6.830   4.583  13.701  0.00  0.00    +0.000 A 
ATOM     16 CL   UNL     1       7.757   4.437  12.258  0.00  0.00    +0.000 Cl
ATOM     17  C   UNL     1       7.380   5.210  14.816  0.00  0.00    +0.000 A 
ATOM     18  C   UNL     1       6.620   5.340  15.981  0.00  0.00    +0.000 A 
ATOM     19 CL   UNL     1       7.368   6.096  17.346  0.00  0.00    +0.000 Cl
ENDBRANCH   4  12
BRANCH   3  20
ATOM     20  O   UNL     1       4.011   7.359  16.612  0.00  0.00    +0.000 OA
ATOM     21  H   UNL     1       4.844   7.786  16.914  0.00  0.00    +0.000 HD
ENDBRANCH   3  20
BRANCH   8  22
ATOM     22  O   UNL     1       2.676   1.929  22.008  0.00  0.00    +0.000 OA
ATOM     23  H   UNL     1       3.297   1.242  21.719  0.00  0.00    +0.000 HD
ENDBRANCH   8  22
BRANCH  10  24
ATOM     24  O   UNL     1       1.684   6.488  21.231  0.00  0.00    +0.000 OA
ATOM     25  H   UNL     1       1.395   6.396  22.153  0.00  0.00    +0.000 HD
ENDBRANCH  10  24
TORSDOF 4
ENDMDL
MODEL 5
REMARK VINA RESULT:      -6.8      3.659      5.444
REMARK  Name = 
REMARK  4 active torsions:
REMARK  status: ('A' for Active; 'I' for Inactive)
REMARK    1  A    between atoms: C_3  and  O_4
REMARK    2  A    between atoms: C_5  and  C_6
REMARK    3  A    between atoms: C_17  and  O_18
REMARK    4  A    between atoms: C_20  and  O_21
REMARK                            x       y       z     vdW  Elec       q    Type
REMARK                         _______ _______ _______ _____ _____    ______ ____
ROOT
ATOM      1  O   UNL     1       2.579   3.386  19.554  0.00  0.00    +0.000 OA
ATOM      2  C   UNL     1       2.843   4.518  19.166  0.00  0.00    +0.000 A 
ATOM      3  C   UNL     1       2.100   5.644  19.778  0.00  0.00    +0.000 A 
ATOM      4  C   UNL     1       2.351   6.895  19.363  0.00  0.00    +0.000 A 
ATOM      5  O   UNL     1       3.240   7.226  18.357  0.00  0.00    +0.000 OA
ATOM      6  C   UNL     1       3.974   6.214  17.780  0.00  0.00    +0.000 A 
ATOM      7  C   UNL     1       4.888   6.603  16.795  0.00  0.00    +0.000 A 
ATOM      8  C   UNL     1       5.687   5.639  16.190  0.00  0.00    +0.000 A 
ATOM      9  C   UNL     1       5.588   4.299  16.548  0.00  0.00    +0.000 A 
ATOM     10  C   UNL     1       4.665   3.912  17.521  0.00  0.00    +0.000 A 
ATOM     11  C   UNL     1       3.847   4.867  18.139  0.00  0.00    +0.000 A 
ENDROOT
BRANCH   4  12
ATOM     12  C   UNL     1       1.684   8.048  19.990  0.00  0.00    +0.000 A 
ATOM     13  C   UNL     1       1.596   8.104  21.390  0.00  0.00    +0.000 A 
ATOM     14  C   UNL     1       1.046   9.223  22.024  0.00  0.00    +0.000 A 
ATOM     15  C   UNL     1       0.587  10.296  21.261  0.00  0.00    +0.000 A 
ATOM     16 CL   UNL     1      -0.060  11.685  22.045  0.00  0.00    +0.000 Cl
ATOM     17  C   UNL     1       0.648  10.252  19.871  0.00  0.00    +0.000 A 
ATOM     18  C   UNL     1       1.187   9.129  19.237  0.00  0.00    +0.000 A 
ATOM     19 CL   UNL     1       1.204   9.117  17.507  0.00  0.00    +0.000 Cl
ENDBRANCH   4  12
BRANCH   3  20
ATOM     20  O   UNL     1       1.186   5.331  20.769  0.00  0.00    +0.000 OA
ATOM     21  H   UNL     1       0.451   4.890  20.288  0.00  0.00    +0.000 HD
ENDBRANCH   3  20
BRANCH   8  22
ATOM     22  O   UNL     1       6.599   5.966  15.230  0.00  0.00    +0.000 OA
ATOM     23  H   UNL     1       7.346   5.349  15.273  0.00  0.00    +0.000 HD
ENDBRANCH   8  22
BRANCH  10  24
ATOM     24  O   UNL     1       4.583   2.592  17.861  0.00  0.00    +0.000 OA
ATOM     25  H   UNL     1       5.463   2.244  18.078  0.00  0.00    +0.000 HD
ENDBRANCH  10  24
TORSDOF 4
ENDMDL
MODEL 6
REMARK VINA RESULT:      -6.7      4.867      7.807
REMARK  Name = 
REMARK  4 active torsions:
REMARK  status: ('A' for Active; 'I' for Inactive)
REMARK    1  A    between atoms: C_3  and  O_4
REMARK    2  A    between atoms: C_5  and  C_6
REMARK    3  A    between atoms: C_17  and  O_18
REMARK    4  A    between atoms: C_20  and  O_21
REMARK                            x       y       z     vdW  Elec       q    Type
REMARK                         _______ _______ _______ _____ _____    ______ ____
ROOT
ATOM      1  O   UNL     1       1.318   7.672  21.872  0.00  0.00    +0.000 OA
ATOM      2  C   UNL     1       1.495   7.937  20.689  0.00  0.00    +0.000 A 
ATOM      3  C   UNL     1       2.372   7.034  19.906  0.00  0.00    +0.000 A 
ATOM      4  C   UNL     1       2.602   7.305  18.613  0.00  0.00    +0.000 A 
ATOM      5  O   UNL     1       2.108   8.408  17.941  0.00  0.00    +0.000 OA
ATOM      6  C   UNL     1       1.266   9.259  18.621  0.00  0.00    +0.000 A 
ATOM      7  C   UNL     1       0.761  10.338  17.888  0.00  0.00    +0.000 A 
ATOM      8  C   UNL     1      -0.121  11.222  18.499  0.00  0.00    +0.000 A 
ATOM      9  C   UNL     1      -0.506  11.049  19.824  0.00  0.00    +0.000 A 
ATOM     10  C   UNL     1       0.011   9.979  20.558  0.00  0.00    +0.000 A 
ATOM     11  C   UNL     1       0.905   9.081  19.962  0.00  0.00    +0.000 A 
ENDROOT
BRANCH   4  12
ATOM     12  C   UNL     1       3.412   6.399  17.782  0.00  0.00    +0.000 A 
ATOM     13  C   UNL     1       4.644   6.852  17.284  0.00  0.00    +0.000 A 
ATOM     14  C   UNL     1       5.479   5.994  16.563  0.00  0.00    +0.000 A 
ATOM     15  C   UNL     1       5.091   4.673  16.342  0.00  0.00    +0.000 A 
ATOM     16 CL   UNL     1       6.135   3.609  15.482  0.00  0.00    +0.000 Cl
ATOM     17  C   UNL     1       3.865   4.209  16.811  0.00  0.00    +0.000 A 
ATOM     18  C   UNL     1       3.025   5.071  17.522  0.00  0.00    +0.000 A 
ATOM     19 CL   UNL     1       1.499   4.448  18.049  0.00  0.00    +0.000 Cl
ENDBRANCH   4  12
BRANCH   3  20
ATOM     20  O   UNL     1       2.897   5.938  20.568  0.00  0.00    +0.000 OA
ATOM     21  H   UNL     1       3.868   6.097  20.566  0.00  0.00    +0.000 HD
ENDBRANCH   3  20
BRANCH   8  22
ATOM     22  O   UNL     1      -0.648  12.285  17.827  0.00  0.00    +0.000 OA
ATOM     23  H   UNL     1      -1.490  12.540  18.237  0.00  0.00    +0.000 HD
ENDBRANCH   8  22
BRANCH  10  24
ATOM     24  O   UNL     1      -0.379   9.824  21.857  0.00  0.00    +0.000 OA
ATOM     25  H   UNL     1      -1.249   9.394  21.899  0.00  0.00    +0.000 HD
ENDBRANCH  10  24
TORSDOF 4
ENDMDL
MODEL 7
REMARK VINA RESULT:      -6.7      4.576      7.634
REMARK  Name = 
REMARK  4 active torsions:
REMARK  status: ('A' for Active; 'I' for Inactive)
REMARK    1  A    between atoms: C_3  and  O_4
REMARK    2  A    between atoms: C_5  and  C_6
REMARK    3  A    between atoms: C_17  and  O_18
REMARK    4  A    between atoms: C_20  and  O_21
REMARK                            x       y       z     vdW  Elec       q    Type
REMARK                         _______ _______ _______ _____ _____    ______ ____
ROOT
ATOM      1  O   UNL     1       2.038   9.439  17.411  0.00  0.00    +0.000 OA
ATOM      2  C   UNL     1       1.963   8.793  18.450  0.00  0.00    +0.000 A 
ATOM      3  C   UNL     1       2.516   7.418  18.445  0.00  0.00    +0.000 A 
ATOM      4  C   UNL     1       2.434   6.677  19.560  0.00  0.00    +0.000 A 
ATOM      5  O   UNL     1       1.826   7.086  20.733  0.00  0.00    +0.000 OA
ATOM      6  C   UNL     1       1.324   8.367  20.792  0.00  0.00    +0.000 A 
ATOM      7  C   UNL     1       0.755   8.748  22.012  0.00  0.00    +0.000 A 
ATOM      8  C   UNL     1       0.256  10.038  22.156  0.00  0.00    +0.000 A 
ATOM      9  C   UNL     1       0.315  10.950  21.108  0.00  0.00    +0.000 A 
ATOM     10  C   UNL     1       0.871  10.563  19.888  0.00  0.00    +0.000 A 
ATOM     11  C   UNL     1       1.374   9.266  19.720  0.00  0.00    +0.000 A 
ENDROOT
BRANCH   4  12
ATOM     12  C   UNL     1       3.028   5.331  19.620  0.00  0.00    +0.000 A 
ATOM     13  C   UNL     1       4.396   5.179  19.343  0.00  0.00    +0.000 A 
ATOM     14  C   UNL     1       5.013   3.931  19.472  0.00  0.00    +0.000 A 
ATOM     15  C   UNL     1       4.266   2.828  19.885  0.00  0.00    +0.000 A 
ATOM     16 CL   UNL     1       5.035   1.300  20.074  0.00  0.00    +0.000 Cl
ATOM     17  C   UNL     1       2.905   2.954  20.146  0.00  0.00    +0.000 A 
ATOM     18  C   UNL     1       2.285   4.199  20.006  0.00  0.00    +0.000 A 
ATOM     19 CL   UNL     1       0.584   4.287  20.310  0.00  0.00    +0.000 Cl
ENDBRANCH   4  12
BRANCH   3  20
ATOM     20  O   UNL     1       3.105   6.980  17.272  0.00  0.00    +0.000 OA
ATOM     21  H   UNL     1       2.349   6.675  16.722  0.00  0.00    +0.000 HD
ENDBRANCH   3  20
BRANCH   8  22
ATOM     22  O   UNL     1      -0.302  10.461  23.326  0.00  0.00    +0.000 OA
ATOM     23  H   UNL     1      -0.282   9.738  23.972  0.00  0.00    +0.000 HD
ENDBRANCH   8  22
BRANCH  10  24
ATOM     24  O   UNL     1       0.921  11.473  18.870  0.00  0.00    +0.000 OA
ATOM     25  H   UNL     1       1.271  12.319  19.192  0.00  0.00    +0.000 HD
ENDBRANCH  10  24
TORSDOF 4
ENDMDL
MODEL 8
REMARK VINA RESULT:      -6.6      5.525      7.849
REMARK  Name = 
REMARK  4 active torsions:
REMARK  status: ('A' for Active; 'I' for Inactive)
REMARK    1  A    between atoms: C_3  and  O_4
REMARK    2  A    between atoms: C_5  and  C_6
REMARK    3  A    between atoms: C_17  and  O_18
REMARK    4  A    between atoms: C_20  and  O_21
REMARK                            x       y       z     vdW  Elec       q    Type
REMARK                         _______ _______ _______ _____ _____    ______ ____
ROOT
ATOM      1  O   UNL     1       3.351   8.128  16.853  0.00  0.00    +0.000 OA
ATOM      2  C   UNL     1       2.690   8.103  17.884  0.00  0.00    +0.000 A 
ATOM      3  C   UNL     1       1.929   9.324  18.242  0.00  0.00    +0.000 A 
ATOM      4  C   UNL     1       1.209   9.337  19.374  0.00  0.00    +0.000 A 
ATOM      5  O   UNL     1       1.148   8.293  20.279  0.00  0.00    +0.000 OA
ATOM      6  C   UNL     1       1.816   7.128  19.973  0.00  0.00    +0.000 A 
ATOM      7  C   UNL     1       1.691   6.088  20.900  0.00  0.00    +0.000 A 
ATOM      8  C   UNL     1       2.312   4.871  20.642  0.00  0.00    +0.000 A 
ATOM      9  C   UNL     1       3.053   4.675  19.482  0.00  0.00    +0.000 A 
ATOM     10  C   UNL     1       3.187   5.720  18.566  0.00  0.00    +0.000 A 
ATOM     11  C   UNL     1       2.574   6.956  18.809  0.00  0.00    +0.000 A 
ENDROOT
BRANCH   4  12
ATOM     12  C   UNL     1       0.387  10.504  19.734  0.00  0.00    +0.000 A 
ATOM     13  C   UNL     1       0.811  11.338  20.780  0.00  0.00    +0.000 A 
ATOM     14  C   UNL     1       0.103  12.502  21.095  0.00  0.00    +0.000 A 
ATOM     15  C   UNL     1      -1.033  12.841  20.360  0.00  0.00    +0.000 A 
ATOM     16 CL   UNL     1      -1.886  14.290  20.729  0.00  0.00    +0.000 Cl
ATOM     17  C   UNL     1      -1.482  12.018  19.332  0.00  0.00    +0.000 A 
ATOM     18  C   UNL     1      -0.780  10.848  19.025  0.00  0.00    +0.000 A 
ATOM     19 CL   UNL     1      -1.405   9.847  17.760  0.00  0.00    +0.000 Cl
ENDBRANCH   4  12
BRANCH   3  20
ATOM     20  O   UNL     1       1.999  10.390  17.363  0.00  0.00    +0.000 OA
ATOM     21  H   UNL     1       2.772  10.182  16.792  0.00  0.00    +0.000 HD
ENDBRANCH   3  20
BRANCH   8  22
ATOM     22  O   UNL     1       2.216   3.822  21.509  0.00  0.00    +0.000 OA
ATOM     23  H   UNL     1       2.857   3.939  22.228  0.00  0.00    +0.000 HD
ENDBRANCH   8  22
BRANCH  10  24
ATOM     24  O   UNL     1       3.918   5.510  17.432  0.00  0.00    +0.000 OA
ATOM     25  H   UNL     1       3.735   6.205  16.779  0.00  0.00    +0.000 HD
ENDBRANCH  10  24
TORSDOF 4
ENDMDL
MODEL 9
REMARK VINA RESULT:      -6.5      4.077      6.825
REMARK  Name = 
REMARK  4 active torsions:
REMARK  status: ('A' for Active; 'I' for Inactive)
REMARK    1  A    between atoms: C_3  and  O_4
REMARK    2  A    between atoms: C_5  and  C_6
REMARK    3  A    between atoms: C_17  and  O_18
REMARK    4  A    between atoms: C_20  and  O_21
REMARK                            x       y       z     vdW  Elec       q    Type
REMARK                         _______ _______ _______ _____ _____    ______ ____
ROOT
ATOM      1  O   UNL     1       4.904   5.596  17.676  0.00  0.00    +0.000 OA
ATOM      2  C   UNL     1       3.966   5.762  18.446  0.00  0.00    +0.000 A 
ATOM      3  C   UNL     1       3.274   7.072  18.414  0.00  0.00    +0.000 A 
ATOM      4  C   UNL     1       2.254   7.293  19.256  0.00  0.00    +0.000 A 
ATOM      5  O   UNL     1       1.808   6.392  20.204  0.00  0.00    +0.000 OA
ATOM      6  C   UNL     1       2.402   5.150  20.251  0.00  0.00    +0.000 A 
ATOM      7  C   UNL     1       1.889   4.259  21.200  0.00  0.00    +0.000 A 
ATOM      8  C   UNL     1       2.419   2.976  21.283  0.00  0.00    +0.000 A 
ATOM      9  C   UNL     1       3.448   2.569  20.440  0.00  0.00    +0.000 A 
ATOM     10  C   UNL     1       3.966   3.465  19.504  0.00  0.00    +0.000 A 
ATOM     11  C   UNL     1       3.451   4.764  19.408  0.00  0.00    +0.000 A 
ENDROOT
BRANCH   4  12
ATOM     12  C   UNL     1       1.497   8.555  19.212  0.00  0.00    +0.000 A 
ATOM     13  C   UNL     1       1.121   9.080  17.966  0.00  0.00    +0.000 A 
ATOM     14  C   UNL     1       0.330  10.230  17.887  0.00  0.00    +0.000 A 
ATOM     15  C   UNL     1      -0.096  10.859  19.057  0.00  0.00    +0.000 A 
ATOM     16 CL   UNL     1      -1.097  12.256  18.958  0.00  0.00    +0.000 Cl
ATOM     17  C   UNL     1       0.281  10.366  20.303  0.00  0.00    +0.000 A 
ATOM     18  C   UNL     1       1.082   9.223  20.380  0.00  0.00    +0.000 A 
ATOM     19 CL   UNL     1       1.548   8.677  21.955  0.00  0.00    +0.000 Cl
ENDBRANCH   4  12
BRANCH   3  20
ATOM     20  O   UNL     1       3.723   7.998  17.489  0.00  0.00    +0.000 OA
ATOM     21  H   UNL     1       3.109   7.898  16.728  0.00  0.00    +0.000 HD
ENDBRANCH   3  20
BRANCH   8  22
ATOM     22  O   UNL     1       1.951   2.067  22.185  0.00  0.00    +0.000 OA
ATOM     23  H   UNL     1       2.267   2.301  23.072  0.00  0.00    +0.000 HD
ENDBRANCH   8  22
BRANCH  10  24
ATOM     24  O   UNL     1       4.975   3.048  18.684  0.00  0.00    +0.000 OA
ATOM     25  H   UNL     1       5.325   2.194  18.987  0.00  0.00    +0.000 HD
ENDBRANCH  10  24
TORSDOF 4
ENDMDL
