MODEL 1
REMARK VINA RESULT:      -8.1      0.000      0.000
REMARK  Name = 
REMARK  7 active torsions:
REMARK  status: ('A' for Active; 'I' for Inactive)
REMARK    1  A    between atoms: C_2  and  O_3
REMARK    2  A    between atoms: C_2  and  C_4
REMARK    3  A    between atoms: C_11  and  O_12
REMARK    4  A    between atoms: O_12  and  C_13
REMARK    5  A    between atoms: C_13  and  C_14
REMARK    6  A    between atoms: N_23  and  S_24
REMARK    7  A    between atoms: S_24  and  C_27
REMARK                            x       y       z     vdW  Elec       q    Type
REMARK                         _______ _______ _______ _____ _____    ______ ____
ROOT
ATOM      1  C   UNL     1      -3.113  12.438  23.477  0.00  0.00    +0.000 C 
ATOM      2  C   UNL     1      -1.799  13.252  23.507  0.00  0.00    +0.000 C 
ATOM      3  C   UNL     1      -0.775  12.716  22.479  0.00  0.00    +0.000 C 
ATOM      4  C   UNL     1      -1.456  12.419  21.179  0.00  0.00    +0.000 A 
ATOM      5  C   UNL     1      -2.826  12.363  21.017  0.00  0.00    +0.000 A 
ATOM      6  C   UNL     1      -3.090  12.083  19.660  0.00  0.00    +0.000 A 
ATOM      7  C   UNL     1      -4.295  11.991  18.947  0.00  0.00    +0.000 A 
ATOM      8  C   UNL     1      -4.279  11.750  17.577  0.00  0.00    +0.000 A 
ATOM      9  C   UNL     1      -3.072  11.471  16.946  0.00  0.00    +0.000 A 
ATOM     10  C   UNL     1      -1.851  11.531  17.640  0.00  0.00    +0.000 A 
ATOM     11  C   UNL     1      -1.868  11.883  19.005  0.00  0.00    +0.000 A 
ATOM     12  N   UNL     1      -0.880  12.084  19.965  0.00  0.00    +0.000 N 
ATOM     13  C   UNL     1      -3.804  12.597  22.117  0.00  0.00    +0.000 C 
ENDROOT
BRANCH  12  14
ATOM     14  S   UNL     1       0.808  12.099  19.660  0.00  0.00    +0.000 S 
ATOM     15  O   UNL     1       0.968  12.895  18.455  0.00  0.00    +0.000 OA
ATOM     16  O   UNL     1       1.480  12.452  20.893  0.00  0.00    +0.000 OA
BRANCH  14  17
ATOM     17  C   UNL     1       1.265  10.425  19.264  0.00  0.00    +0.000 A 
ATOM     18  C   UNL     1       1.092   9.448  20.255  0.00  0.00    +0.000 A 
ATOM     19  C   UNL     1       1.504   8.134  20.018  0.00  0.00    +0.000 A 
ATOM     20  C   UNL     1       2.080   7.802  18.792  0.00  0.00    +0.000 A 
ATOM     21 CL   UNL     1       2.647   6.200  18.523  0.00  0.00    +0.000 Cl
ATOM     22  C   UNL     1       2.212   8.764  17.790  0.00  0.00    +0.000 A 
ATOM     23  C   UNL     1       1.799  10.081  18.019  0.00  0.00    +0.000 A 
ENDBRANCH  14  17
ENDBRANCH  12  14
BRANCH   1  25
ATOM     24  O   UNL     1      -4.930  12.152  25.049  0.00  0.00    +0.000 OA
ATOM     25  C   UNL     1      -4.076  12.870  24.555  0.00  0.00    +0.000 C 
BRANCH  25  26
ATOM     26  O   UNL     1      -3.874  14.141  24.970  0.00  0.00    +0.000 OA
ATOM     27  H   UNL     1      -3.096  14.270  25.545  0.00  0.00    +0.000 HD
ENDBRANCH  25  26
ENDBRANCH   1  25
BRANCH   8  28
ATOM     28  O   UNL     1      -5.400  11.778  16.789  0.00  0.00    +0.000 OA
BRANCH  28  29
ATOM     29  C   UNL     1      -6.624  11.937  17.516  0.00  0.00    +0.000 C 
BRANCH  29  30
ATOM     30  C   UNL     1      -7.014  13.387  17.536  0.00  0.00    +0.000 A 
ATOM     31  C   UNL     1      -7.568  13.967  18.685  0.00  0.00    +0.000 A 
ATOM     32  C   UNL     1      -7.912  15.318  18.694  0.00  0.00    +0.000 A 
ATOM     33  C   UNL     1      -7.709  16.095  17.556  0.00  0.00    +0.000 A 
ATOM     34  C   UNL     1      -7.166  15.528  16.409  0.00  0.00    +0.000 A 
ATOM     35  C   UNL     1      -6.820  14.179  16.396  0.00  0.00    +0.000 A 
ENDBRANCH  29  30
ENDBRANCH  28  29
ENDBRANCH   8  28
TORSDOF 7
ENDMDL
MODEL 2
REMARK VINA RESULT:      -8.1      3.790      8.956
REMARK  Name = 
REMARK  7 active torsions:
REMARK  status: ('A' for Active; 'I' for Inactive)
REMARK    1  A    between atoms: C_2  and  O_3
REMARK    2  A    between atoms: C_2  and  C_4
REMARK    3  A    between atoms: C_11  and  O_12
REMARK    4  A    between atoms: O_12  and  C_13
REMARK    5  A    between atoms: C_13  and  C_14
REMARK    6  A    between atoms: N_23  and  S_24
REMARK    7  A    between atoms: S_24  and  C_27
REMARK                            x       y       z     vdW  Elec       q    Type
REMARK                         _______ _______ _______ _____ _____    ______ ____
ROOT
ATOM      1  C   UNL     1      -2.673  10.752  17.346  0.00  0.00    +0.000 C 
ATOM      2  C   UNL     1      -2.482  12.269  17.574  0.00  0.00    +0.000 C 
ATOM      3  C   UNL     1      -2.399  12.612  19.080  0.00  0.00    +0.000 C 
ATOM      4  C   UNL     1      -1.526  11.622  19.787  0.00  0.00    +0.000 A 
ATOM      5  C   UNL     1      -1.099  10.432  19.234  0.00  0.00    +0.000 A 
ATOM      6  C   UNL     1      -0.284   9.781  20.182  0.00  0.00    +0.000 A 
ATOM      7  C   UNL     1       0.457   8.591  20.113  0.00  0.00    +0.000 A 
ATOM      8  C   UNL     1       1.236   8.190  21.193  0.00  0.00    +0.000 A 
ATOM      9  C   UNL     1       1.171   8.902  22.385  0.00  0.00    +0.000 A 
ATOM     10  C   UNL     1       0.418  10.084  22.492  0.00  0.00    +0.000 A 
ATOM     11  C   UNL     1      -0.281  10.542  21.358  0.00  0.00    +0.000 A 
ATOM     12  N   UNL     1      -1.064  11.664  21.091  0.00  0.00    +0.000 N 
ATOM     13  C   UNL     1      -1.448   9.982  17.855  0.00  0.00    +0.000 C 
ENDROOT
BRANCH  12  14
ATOM     14  S   UNL     1      -1.279  12.995  22.151  0.00  0.00    +0.000 S 
ATOM     15  O   UNL     1      -0.402  12.728  23.277  0.00  0.00    +0.000 OA
ATOM     16  O   UNL     1      -1.157  14.209  21.370  0.00  0.00    +0.000 OA
BRANCH  14  17
ATOM     17  C   UNL     1      -2.955  12.907  22.741  0.00  0.00    +0.000 A 
ATOM     18  C   UNL     1      -3.957  13.500  21.959  0.00  0.00    +0.000 A 
ATOM     19  C   UNL     1      -5.277  13.521  22.416  0.00  0.00    +0.000 A 
ATOM     20  C   UNL     1      -5.592  12.945  23.645  0.00  0.00    +0.000 A 
ATOM     21 CL   UNL     1      -7.204  13.027  24.238  0.00  0.00    +0.000 Cl
ATOM     22  C   UNL     1      -4.603  12.315  24.404  0.00  0.00    +0.000 A 
ATOM     23  C   UNL     1      -3.279  12.288  23.952  0.00  0.00    +0.000 A 
ENDBRANCH  14  17
ENDBRANCH  12  14
BRANCH   1  25
ATOM     24  O   UNL     1      -2.715   9.306  15.407  0.00  0.00    +0.000 OA
ATOM     25  C   UNL     1      -2.876  10.415  15.890  0.00  0.00    +0.000 C 
BRANCH  25  26
ATOM     26  O   UNL     1      -3.309  11.465  15.156  0.00  0.00    +0.000 OA
ATOM     27  H   UNL     1      -4.160  11.326  14.698  0.00  0.00    +0.000 HD
ENDBRANCH  25  26
ENDBRANCH   1  25
BRANCH   8  28
ATOM     28  O   UNL     1       2.087   7.116  21.156  0.00  0.00    +0.000 OA
BRANCH  28  29
ATOM     29  C   UNL     1       2.467   6.714  19.835  0.00  0.00    +0.000 C 
BRANCH  29  30
ATOM     30  C   UNL     1       1.961   5.324  19.566  0.00  0.00    +0.000 A 
ATOM     31  C   UNL     1       1.989   4.788  18.272  0.00  0.00    +0.000 A 
ATOM     32  C   UNL     1       1.529   3.492  18.040  0.00  0.00    +0.000 A 
ATOM     33  C   UNL     1       1.037   2.729  19.097  0.00  0.00    +0.000 A 
ATOM     34  C   UNL     1       1.000   3.254  20.382  0.00  0.00    +0.000 A 
ATOM     35  C   UNL     1       1.459   4.548  20.620  0.00  0.00    +0.000 A 
ENDBRANCH  29  30
ENDBRANCH  28  29
ENDBRANCH   8  28
TORSDOF 7
ENDMDL
MODEL 3
REMARK VINA RESULT:      -7.9      3.766      8.988
REMARK  Name = 
REMARK  7 active torsions:
REMARK  status: ('A' for Active; 'I' for Inactive)
REMARK    1  A    between atoms: C_2  and  O_3
REMARK    2  A    between atoms: C_2  and  C_4
REMARK    3  A    between atoms: C_11  and  O_12
REMARK    4  A    between atoms: O_12  and  C_13
REMARK    5  A    between atoms: C_13  and  C_14
REMARK    6  A    between atoms: N_23  and  S_24
REMARK    7  A    between atoms: S_24  and  C_27
REMARK                            x       y       z     vdW  Elec       q    Type
REMARK                         _______ _______ _______ _____ _____    ______ ____
ROOT
ATOM      1  C   UNL     1       2.103  15.531  18.538  0.00  0.00    +0.000 C 
ATOM      2  C   UNL     1       2.062  15.894  20.040  0.00  0.00    +0.000 C 
ATOM      3  C   UNL     1       0.965  15.099  20.787  0.00  0.00    +0.000 C 
ATOM      4  C   UNL     1       0.978  13.667  20.351  0.00  0.00    +0.000 A 
ATOM      5  C   UNL     1       1.668  13.198  19.252  0.00  0.00    +0.000 A 
ATOM      6  C   UNL     1       1.462  11.805  19.172  0.00  0.00    +0.000 A 
ATOM      7  C   UNL     1       1.984  10.835  18.302  0.00  0.00    +0.000 A 
ATOM      8  C   UNL     1       1.654   9.495  18.474  0.00  0.00    +0.000 A 
ATOM      9  C   UNL     1       0.705   9.140  19.426  0.00  0.00    +0.000 A 
ATOM     10  C   UNL     1       0.147  10.093  20.294  0.00  0.00    +0.000 A 
ATOM     11  C   UNL     1       0.568  11.434  20.185  0.00  0.00    +0.000 A 
ATOM     12  N   UNL     1       0.278  12.601  20.888  0.00  0.00    +0.000 N 
ATOM     13  C   UNL     1       2.496  14.059  18.359  0.00  0.00    +0.000 C 
ENDROOT
BRANCH  12  14
ATOM     14  S   UNL     1      -0.663  12.685  22.320  0.00  0.00    +0.000 S 
ATOM     15  O   UNL     1      -0.395  11.442  23.022  0.00  0.00    +0.000 OA
ATOM     16  O   UNL     1      -0.416  13.970  22.940  0.00  0.00    +0.000 OA
BRANCH  14  17
ATOM     17  C   UNL     1      -2.367  12.658  21.809  0.00  0.00    +0.000 A 
ATOM     18  C   UNL     1      -2.637  12.655  20.432  0.00  0.00    +0.000 A 
ATOM     19  C   UNL     1      -3.958  12.709  19.982  0.00  0.00    +0.000 A 
ATOM     20  C   UNL     1      -5.002  12.759  20.904  0.00  0.00    +0.000 A 
ATOM     21 CL   UNL     1      -6.625  12.890  20.351  0.00  0.00    +0.000 Cl
ATOM     22  C   UNL     1      -4.736  12.716  22.274  0.00  0.00    +0.000 A 
ATOM     23  C   UNL     1      -3.415  12.660  22.733  0.00  0.00    +0.000 A 
ENDBRANCH  14  17
ENDBRANCH  12  14
BRANCH   1  25
ATOM     24  O   UNL     1       2.793  17.399  17.163  0.00  0.00    +0.000 OA
ATOM     25  C   UNL     1       3.085  16.383  17.772  0.00  0.00    +0.000 C 
BRANCH  25  26
ATOM     26  O   UNL     1       4.359  15.937  17.861  0.00  0.00    +0.000 OA
ATOM     27  H   UNL     1       5.007  16.424  17.316  0.00  0.00    +0.000 HD
ENDBRANCH  25  26
ENDBRANCH   1  25
BRANCH   8  28
ATOM     28  O   UNL     1       2.223   8.477  17.754  0.00  0.00    +0.000 OA
BRANCH  28  29
ATOM     29  C   UNL     1       2.545   7.317  18.530  0.00  0.00    +0.000 C 
BRANCH  29  30
ATOM     30  C   UNL     1       3.436   6.408  17.734  0.00  0.00    +0.000 A 
ATOM     31  C   UNL     1       3.238   5.021  17.740  0.00  0.00    +0.000 A 
ATOM     32  C   UNL     1       4.064   4.190  16.984  0.00  0.00    +0.000 A 
ATOM     33  C   UNL     1       5.094   4.739  16.224  0.00  0.00    +0.000 A 
ATOM     34  C   UNL     1       5.304   6.112  16.216  0.00  0.00    +0.000 A 
ATOM     35  C   UNL     1       4.479   6.947  16.968  0.00  0.00    +0.000 A 
ENDBRANCH  29  30
ENDBRANCH  28  29
ENDBRANCH   8  28
TORSDOF 7
ENDMDL
MODEL 4
REMARK VINA RESULT:      -7.8      5.204      8.371
REMARK  Name = 
REMARK  7 active torsions:
REMARK  status: ('A' for Active; 'I' for Inactive)
REMARK    1  A    between atoms: C_2  and  O_3
REMARK    2  A    between atoms: C_2  and  C_4
REMARK    3  A    between atoms: C_11  and  O_12
REMARK    4  A    between atoms: O_12  and  C_13
REMARK    5  A    between atoms: C_13  and  C_14
REMARK    6  A    between atoms: N_23  and  S_24
REMARK    7  A    between atoms: S_24  and  C_27
REMARK                            x       y       z     vdW  Elec       q    Type
REMARK                         _______ _______ _______ _____ _____    ______ ____
ROOT
ATOM      1  C   UNL     1       2.637   3.273  20.362  0.00  0.00    +0.000 C 
ATOM      2  C   UNL     1       4.174   3.194  20.209  0.00  0.00    +0.000 C 
ATOM      3  C   UNL     1       4.657   3.927  18.935  0.00  0.00    +0.000 C 
ATOM      4  C   UNL     1       3.946   5.237  18.794  0.00  0.00    +0.000 A 
ATOM      5  C   UNL     1       2.834   5.598  19.527  0.00  0.00    +0.000 A 
ATOM      6  C   UNL     1       2.461   6.901  19.136  0.00  0.00    +0.000 A 
ATOM      7  C   UNL     1       1.460   7.763  19.607  0.00  0.00    +0.000 A 
ATOM      8  C   UNL     1       1.333   9.042  19.075  0.00  0.00    +0.000 A 
ATOM      9  C   UNL     1       2.117   9.411  17.987  0.00  0.00    +0.000 A 
ATOM     10  C   UNL     1       3.111   8.559  17.478  0.00  0.00    +0.000 A 
ATOM     11  C   UNL     1       3.305   7.307  18.094  0.00  0.00    +0.000 A 
ATOM     12  N   UNL     1       4.202   6.259  17.896  0.00  0.00    +0.000 N 
ATOM     13  C   UNL     1       2.199   4.730  20.560  0.00  0.00    +0.000 C 
ENDROOT
BRANCH  12  14
ATOM     14  S   UNL     1       5.543   6.293  16.826  0.00  0.00    +0.000 S 
ATOM     15  O   UNL     1       6.085   4.946  16.857  0.00  0.00    +0.000 OA
ATOM     16  O   UNL     1       5.107   6.904  15.587  0.00  0.00    +0.000 OA
BRANCH  14  17
ATOM     17  C   UNL     1       6.748   7.376  17.560  0.00  0.00    +0.000 A 
ATOM     18  C   UNL     1       6.707   8.734  17.210  0.00  0.00    +0.000 A 
ATOM     19  C   UNL     1       7.678   9.610  17.703  0.00  0.00    +0.000 A 
ATOM     20  C   UNL     1       8.678   9.129  18.546  0.00  0.00    +0.000 A 
ATOM     21 CL   UNL     1       9.911  10.193  19.100  0.00  0.00    +0.000 Cl
ATOM     22  C   UNL     1       8.694   7.787  18.930  0.00  0.00    +0.000 A 
ATOM     23  C   UNL     1       7.723   6.904  18.443  0.00  0.00    +0.000 A 
ENDBRANCH  14  17
ENDBRANCH  12  14
BRANCH   1  25
ATOM     24  O   UNL     1       2.851   1.812  22.278  0.00  0.00    +0.000 OA
ATOM     25  C   UNL     1       2.138   2.462  21.532  0.00  0.00    +0.000 C 
BRANCH  25  26
ATOM     26  O   UNL     1       0.801   2.560  21.715  0.00  0.00    +0.000 OA
ATOM     27  H   UNL     1       0.343   1.713  21.880  0.00  0.00    +0.000 HD
ENDBRANCH  25  26
ENDBRANCH   1  25
BRANCH   8  28
ATOM     28  O   UNL     1       0.472   9.987  19.569  0.00  0.00    +0.000 OA
BRANCH  28  29
ATOM     29  C   UNL     1       0.132  11.018  18.636  0.00  0.00    +0.000 C 
BRANCH  29  30
ATOM     30  C   UNL     1      -1.317  10.901  18.258  0.00  0.00    +0.000 A 
ATOM     31  C   UNL     1      -2.289  11.691  18.884  0.00  0.00    +0.000 A 
ATOM     32  C   UNL     1      -3.629  11.581  18.513  0.00  0.00    +0.000 A 
ATOM     33  C   UNL     1      -4.003  10.679  17.519  0.00  0.00    +0.000 A 
ATOM     34  C   UNL     1      -3.048   9.886  16.897  0.00  0.00    +0.000 A 
ATOM     35  C   UNL     1      -1.708   9.993  17.263  0.00  0.00    +0.000 A 
ENDBRANCH  29  30
ENDBRANCH  28  29
ENDBRANCH   8  28
TORSDOF 7
ENDMDL
MODEL 5
REMARK VINA RESULT:      -7.8      3.857      8.773
REMARK  Name = 
REMARK  7 active torsions:
REMARK  status: ('A' for Active; 'I' for Inactive)
REMARK    1  A    between atoms: C_2  and  O_3
REMARK    2  A    between atoms: C_2  and  C_4
REMARK    3  A    between atoms: C_11  and  O_12
REMARK    4  A    between atoms: O_12  and  C_13
REMARK    5  A    between atoms: C_13  and  C_14
REMARK    6  A    between atoms: N_23  and  S_24
REMARK    7  A    between atoms: S_24  and  C_27
REMARK                            x       y       z     vdW  Elec       q    Type
REMARK                         _______ _______ _______ _____ _____    ______ ____
ROOT
ATOM      1  C   UNL     1       2.072  15.227  18.438  0.00  0.00    +0.000 C 
ATOM      2  C   UNL     1       2.061  15.734  19.899  0.00  0.00    +0.000 C 
ATOM      3  C   UNL     1       0.937  15.064  20.725  0.00  0.00    +0.000 C 
ATOM      4  C   UNL     1       0.886  13.597  20.429  0.00  0.00    +0.000 A 
ATOM      5  C   UNL     1       1.545  12.995  19.377  0.00  0.00    +0.000 A 
ATOM      6  C   UNL     1       1.279  11.611  19.434  0.00  0.00    +0.000 A 
ATOM      7  C   UNL     1       1.751  10.540  18.660  0.00  0.00    +0.000 A 
ATOM      8  C   UNL     1       1.367   9.238  18.962  0.00  0.00    +0.000 A 
ATOM      9  C   UNL     1       0.412   9.018  19.949  0.00  0.00    +0.000 A 
ATOM     10  C   UNL     1      -0.097  10.074  20.724  0.00  0.00    +0.000 A 
ATOM     11  C   UNL     1       0.380  11.378  20.483  0.00  0.00    +0.000 A 
ATOM     12  N   UNL     1       0.146  12.619  21.071  0.00  0.00    +0.000 N 
ATOM     13  C   UNL     1       2.401  13.729  18.401  0.00  0.00    +0.000 C 
ENDROOT
BRANCH  12  14
ATOM     14  S   UNL     1      -0.777  12.881  22.493  0.00  0.00    +0.000 S 
ATOM     15  O   UNL     1      -0.893  11.574  23.115  0.00  0.00    +0.000 OA
ATOM     16  O   UNL     1      -0.196  14.005  23.199  0.00  0.00    +0.000 OA
BRANCH  14  17
ATOM     17  C   UNL     1      -2.403  13.369  21.958  0.00  0.00    +0.000 A 
ATOM     18  C   UNL     1      -2.952  12.710  20.848  0.00  0.00    +0.000 A 
ATOM     19  C   UNL     1      -4.193  13.109  20.346  0.00  0.00    +0.000 A 
ATOM     20  C   UNL     1      -4.882  14.156  20.956  0.00  0.00    +0.000 A 
ATOM     21 CL   UNL     1      -6.379  14.689  20.299  0.00  0.00    +0.000 Cl
ATOM     22  C   UNL     1      -4.357  14.782  22.088  0.00  0.00    +0.000 A 
ATOM     23  C   UNL     1      -3.115  14.387  22.599  0.00  0.00    +0.000 A 
ENDBRANCH  14  17
ENDBRANCH  12  14
BRANCH   1  25
ATOM     24  O   UNL     1       3.092  17.164  17.408  0.00  0.00    +0.000 OA
ATOM     25  C   UNL     1       3.083  15.957  17.589  0.00  0.00    +0.000 C 
BRANCH  25  26
ATOM     26  O   UNL     1       4.030  15.143  17.070  0.00  0.00    +0.000 OA
ATOM     27  H   UNL     1       3.695  14.450  16.469  0.00  0.00    +0.000 HD
ENDBRANCH  25  26
ENDBRANCH   1  25
BRANCH   8  28
ATOM     28  O   UNL     1       1.885   8.131  18.341  0.00  0.00    +0.000 OA
BRANCH  28  29
ATOM     29  C   UNL     1       2.710   7.318  19.183  0.00  0.00    +0.000 C 
BRANCH  29  30
ATOM     30  C   UNL     1       2.159   5.921  19.233  0.00  0.00    +0.000 A 
ATOM     31  C   UNL     1       1.719   5.365  20.441  0.00  0.00    +0.000 A 
ATOM     32  C   UNL     1       1.197   4.072  20.469  0.00  0.00    +0.000 A 
ATOM     33  C   UNL     1       1.115   3.329  19.293  0.00  0.00    +0.000 A 
ATOM     34  C   UNL     1       1.554   3.870  18.091  0.00  0.00    +0.000 A 
ATOM     35  C   UNL     1       2.076   5.162  18.058  0.00  0.00    +0.000 A 
ENDBRANCH  29  30
ENDBRANCH  28  29
ENDBRANCH   8  28
TORSDOF 7
ENDMDL
MODEL 6
REMARK VINA RESULT:      -7.8      3.864      8.829
REMARK  Name = 
REMARK  7 active torsions:
REMARK  status: ('A' for Active; 'I' for Inactive)
REMARK    1  A    between atoms: C_2  and  O_3
REMARK    2  A    between atoms: C_2  and  C_4
REMARK    3  A    between atoms: C_11  and  O_12
REMARK    4  A    between atoms: O_12  and  C_13
REMARK    5  A    between atoms: C_13  and  C_14
REMARK    6  A    between atoms: N_23  and  S_24
REMARK    7  A    between atoms: S_24  and  C_27
REMARK                            x       y       z     vdW  Elec       q    Type
REMARK                         _______ _______ _______ _____ _____    ______ ____
ROOT
ATOM      1  C   UNL     1      -2.521  10.560  17.164  0.00  0.00    +0.000 C 
ATOM      2  C   UNL     1      -2.488  12.000  17.725  0.00  0.00    +0.000 C 
ATOM      3  C   UNL     1      -2.344  12.006  19.266  0.00  0.00    +0.000 C 
ATOM      4  C   UNL     1      -1.320  10.999  19.692  0.00  0.00    +0.000 A 
ATOM      5  C   UNL     1      -0.799  10.026  18.864  0.00  0.00    +0.000 A 
ATOM      6  C   UNL     1       0.145   9.287  19.605  0.00  0.00    +0.000 A 
ATOM      7  C   UNL     1       1.009   8.245  19.235  0.00  0.00    +0.000 A 
ATOM      8  C   UNL     1       1.898   7.712  20.163  0.00  0.00    +0.000 A 
ATOM      9  C   UNL     1       1.833   8.128  21.489  0.00  0.00    +0.000 A 
ATOM     10  C   UNL     1       0.961   9.152  21.894  0.00  0.00    +0.000 A 
ATOM     11  C   UNL     1       0.140   9.761  20.924  0.00  0.00    +0.000 A 
ATOM     12  N   UNL     1      -0.779  10.807  20.951  0.00  0.00    +0.000 N 
ATOM     13  C   UNL     1      -1.186   9.855  17.434  0.00  0.00    +0.000 C 
ENDROOT
BRANCH  12  14
ATOM     14  S   UNL     1      -1.072  11.831  22.296  0.00  0.00    +0.000 S 
ATOM     15  O   UNL     1      -2.498  12.103  22.261  0.00  0.00    +0.000 OA
ATOM     16  O   UNL     1      -0.445  11.232  23.456  0.00  0.00    +0.000 OA
BRANCH  14  17
ATOM     17  C   UNL     1      -0.225  13.360  21.962  0.00  0.00    +0.000 A 
ATOM     18  C   UNL     1       0.981  13.297  21.246  0.00  0.00    +0.000 A 
ATOM     19  C   UNL     1       1.720  14.461  21.024  0.00  0.00    +0.000 A 
ATOM     20  C   UNL     1       1.250  15.681  21.509  0.00  0.00    +0.000 A 
ATOM     21 CL   UNL     1       2.191  17.104  21.291  0.00  0.00    +0.000 Cl
ATOM     22  C   UNL     1       0.030  15.751  22.182  0.00  0.00    +0.000 A 
ATOM     23  C   UNL     1      -0.718  14.589  22.407  0.00  0.00    +0.000 A 
ENDBRANCH  14  17
ENDBRANCH  12  14
BRANCH   1  25
ATOM     24  O   UNL     1      -2.583   9.569  14.957  0.00  0.00    +0.000 OA
ATOM     25  C   UNL     1      -2.782  10.533  15.678  0.00  0.00    +0.000 C 
BRANCH  25  26
ATOM     26  O   UNL     1      -3.314  11.685  15.210  0.00  0.00    +0.000 OA
ATOM     27  H   UNL     1      -2.830  12.496  15.460  0.00  0.00    +0.000 HD
ENDBRANCH  25  26
ENDBRANCH   1  25
BRANCH   8  28
ATOM     28  O   UNL     1       2.861   6.789  19.848  0.00  0.00    +0.000 OA
BRANCH  28  29
ATOM     29  C   UNL     1       2.688   6.177  18.565  0.00  0.00    +0.000 C 
BRANCH  29  30
ATOM     30  C   UNL     1       2.258   4.748  18.741  0.00  0.00    +0.000 A 
ATOM     31  C   UNL     1       1.458   4.367  19.827  0.00  0.00    +0.000 A 
ATOM     32  C   UNL     1       1.055   3.040  19.970  0.00  0.00    +0.000 A 
ATOM     33  C   UNL     1       1.451   2.088  19.034  0.00  0.00    +0.000 A 
ATOM     34  C   UNL     1       2.250   2.454  17.957  0.00  0.00    +0.000 A 
ATOM     35  C   UNL     1       2.654   3.779  17.809  0.00  0.00    +0.000 A 
ENDBRANCH  29  30
ENDBRANCH  28  29
ENDBRANCH   8  28
TORSDOF 7
ENDMDL
MODEL 7
REMARK VINA RESULT:      -7.8      3.833      8.874
REMARK  Name = 
REMARK  7 active torsions:
REMARK  status: ('A' for Active; 'I' for Inactive)
REMARK    1  A    between atoms: C_2  and  O_3
REMARK    2  A    between atoms: C_2  and  C_4
REMARK    3  A    between atoms: C_11  and  O_12
REMARK    4  A    between atoms: O_12  and  C_13
REMARK    5  A    between atoms: C_13  and  C_14
REMARK    6  A    between atoms: N_23  and  S_24
REMARK    7  A    between atoms: S_24  and  C_27
REMARK                            x       y       z     vdW  Elec       q    Type
REMARK                         _______ _______ _______ _____ _____    ______ ____
ROOT
ATOM      1  C   UNL     1       2.252  15.318  18.558  0.00  0.00    +0.000 C 
ATOM      2  C   UNL     1       2.275  15.630  20.072  0.00  0.00    +0.000 C 
ATOM      3  C   UNL     1       1.155  14.874  20.826  0.00  0.00    +0.000 C 
ATOM      4  C   UNL     1       1.074  13.459  20.343  0.00  0.00    +0.000 A 
ATOM      5  C   UNL     1       1.704  12.990  19.209  0.00  0.00    +0.000 A 
ATOM      6  C   UNL     1       1.415  11.615  19.090  0.00  0.00    +0.000 A 
ATOM      7  C   UNL     1       1.855  10.647  18.174  0.00  0.00    +0.000 A 
ATOM      8  C   UNL     1       1.453   9.322  18.312  0.00  0.00    +0.000 A 
ATOM      9  C   UNL     1       0.513   8.990  19.280  0.00  0.00    +0.000 A 
ATOM     10  C   UNL     1       0.036   9.943  20.196  0.00  0.00    +0.000 A 
ATOM     11  C   UNL     1       0.531  11.260  20.117  0.00  0.00    +0.000 A 
ATOM     12  N   UNL     1       0.328  12.417  20.866  0.00  0.00    +0.000 N 
ATOM     13  C   UNL     1       2.554  13.833  18.319  0.00  0.00    +0.000 C 
ENDROOT
BRANCH  12  14
ATOM     14  S   UNL     1      -0.564  12.505  22.329  0.00  0.00    +0.000 S 
ATOM     15  O   UNL     1      -0.388  11.207  22.958  0.00  0.00    +0.000 OA
ATOM     16  O   UNL     1      -0.189  13.729  23.006  0.00  0.00    +0.000 OA
BRANCH  14  17
ATOM     17  C   UNL     1      -2.277  12.652  21.868  0.00  0.00    +0.000 A 
ATOM     18  C   UNL     1      -3.230  12.691  22.897  0.00  0.00    +0.000 A 
ATOM     19  C   UNL     1      -4.591  12.731  22.583  0.00  0.00    +0.000 A 
ATOM     20  C   UNL     1      -4.993  12.740  21.249  0.00  0.00    +0.000 A 
ATOM     21 CL   UNL     1      -6.669  12.725  20.862  0.00  0.00    +0.000 Cl
ATOM     22  C   UNL     1      -4.043  12.746  20.225  0.00  0.00    +0.000 A 
ATOM     23  C   UNL     1      -2.678  12.708  20.531  0.00  0.00    +0.000 A 
ENDBRANCH  14  17
ENDBRANCH  12  14
BRANCH   1  25
ATOM     24  O   UNL     1       2.984  16.880  16.862  0.00  0.00    +0.000 OA
ATOM     25  C   UNL     1       3.259  16.138  17.791  0.00  0.00    +0.000 C 
BRANCH  25  26
ATOM     26  O   UNL     1       4.519  16.013  18.265  0.00  0.00    +0.000 OA
ATOM     27  H   UNL     1       4.624  15.377  18.999  0.00  0.00    +0.000 HD
ENDBRANCH  25  26
ENDBRANCH   1  25
BRANCH   8  28
ATOM     28  O   UNL     1       1.942   8.299  17.542  0.00  0.00    +0.000 OA
BRANCH  28  29
ATOM     29  C   UNL     1       3.193   7.769  17.994  0.00  0.00    +0.000 C 
BRANCH  29  30
ATOM     30  C   UNL     1       3.212   6.280  17.798  0.00  0.00    +0.000 A 
ATOM     31  C   UNL     1       4.401   5.612  17.476  0.00  0.00    +0.000 A 
ATOM     32  C   UNL     1       4.405   4.228  17.311  0.00  0.00    +0.000 A 
ATOM     33  C   UNL     1       3.223   3.505  17.461  0.00  0.00    +0.000 A 
ATOM     34  C   UNL     1       2.038   4.159  17.774  0.00  0.00    +0.000 A 
ATOM     35  C   UNL     1       2.029   5.542  17.941  0.00  0.00    +0.000 A 
ENDBRANCH  29  30
ENDBRANCH  28  29
ENDBRANCH   8  28
TORSDOF 7
ENDMDL
MODEL 8
REMARK VINA RESULT:      -7.7      3.764      8.653
REMARK  Name = 
REMARK  7 active torsions:
REMARK  status: ('A' for Active; 'I' for Inactive)
REMARK    1  A    between atoms: C_2  and  O_3
REMARK    2  A    between atoms: C_2  and  C_4
REMARK    3  A    between atoms: C_11  and  O_12
REMARK    4  A    between atoms: O_12  and  C_13
REMARK    5  A    between atoms: C_13  and  C_14
REMARK    6  A    between atoms: N_23  and  S_24
REMARK    7  A    between atoms: S_24  and  C_27
REMARK                            x       y       z     vdW  Elec       q    Type
REMARK                         _______ _______ _______ _____ _____    ______ ____
ROOT
ATOM      1  C   UNL     1       2.033  15.071  18.848  0.00  0.00    +0.000 C 
ATOM      2  C   UNL     1       1.893  15.563  20.307  0.00  0.00    +0.000 C 
ATOM      3  C   UNL     1       0.725  14.857  21.035  0.00  0.00    +0.000 C 
ATOM      4  C   UNL     1       0.733  13.393  20.724  0.00  0.00    +0.000 A 
ATOM      5  C   UNL     1       1.489  12.817  19.723  0.00  0.00    +0.000 A 
ATOM      6  C   UNL     1       1.253  11.427  19.747  0.00  0.00    +0.000 A 
ATOM      7  C   UNL     1       1.811  10.376  19.004  0.00  0.00    +0.000 A 
ATOM      8  C   UNL     1       1.436   9.062  19.263  0.00  0.00    +0.000 A 
ATOM      9  C   UNL     1       0.412   8.809  20.169  0.00  0.00    +0.000 A 
ATOM     10  C   UNL     1      -0.183   9.844  20.910  0.00  0.00    +0.000 A 
ATOM     11  C   UNL     1       0.280  11.161  20.719  0.00  0.00    +0.000 A 
ATOM     12  N   UNL     1      -0.031  12.390  21.296  0.00  0.00    +0.000 N 
ATOM     13  C   UNL     1       2.401  13.582  18.824  0.00  0.00    +0.000 C 
ENDROOT
BRANCH  12  14
ATOM     14  S   UNL     1      -1.070  12.616  22.643  0.00  0.00    +0.000 S 
ATOM     15  O   UNL     1      -0.971  11.385  23.407  0.00  0.00    +0.000 OA
ATOM     16  O   UNL     1      -0.758  13.900  23.235  0.00  0.00    +0.000 OA
BRANCH  14  17
ATOM     17  C   UNL     1      -2.724  12.715  21.994  0.00  0.00    +0.000 A 
ATOM     18  C   UNL     1      -3.783  12.803  22.911  0.00  0.00    +0.000 A 
ATOM     19  C   UNL     1      -5.102  12.808  22.452  0.00  0.00    +0.000 A 
ATOM     20  C   UNL     1      -5.359  12.733  21.084  0.00  0.00    +0.000 A 
ATOM     21 CL   UNL     1      -6.984  12.675  20.523  0.00  0.00    +0.000 Cl
ATOM     22  C   UNL     1      -4.305  12.691  20.169  0.00  0.00    +0.000 A 
ATOM     23  C   UNL     1      -2.980  12.687  20.621  0.00  0.00    +0.000 A 
ENDBRANCH  14  17
ENDBRANCH  12  14
BRANCH   1  25
ATOM     24  O   UNL     1       3.316  15.702  16.896  0.00  0.00    +0.000 OA
ATOM     25  C   UNL     1       3.090  15.834  18.088  0.00  0.00    +0.000 C 
BRANCH  25  26
ATOM     26  O   UNL     1       3.749  16.735  18.851  0.00  0.00    +0.000 OA
ATOM     27  H   UNL     1       4.017  17.552  18.388  0.00  0.00    +0.000 HD
ENDBRANCH  25  26
ENDBRANCH   1  25
BRANCH   8  28
ATOM     28  O   UNL     1       2.030   7.974  18.677  0.00  0.00    +0.000 OA
BRANCH  28  29
ATOM     29  C   UNL     1       2.623   7.058  19.603  0.00  0.00    +0.000 C 
BRANCH  29  30
ATOM     30  C   UNL     1       2.081   5.677  19.365  0.00  0.00    +0.000 A 
ATOM     31  C   UNL     1       1.554   4.920  20.420  0.00  0.00    +0.000 A 
ATOM     32  C   UNL     1       1.041   3.646  20.181  0.00  0.00    +0.000 A 
ATOM     33  C   UNL     1       1.057   3.120  18.890  0.00  0.00    +0.000 A 
ATOM     34  C   UNL     1       1.583   3.860  17.839  0.00  0.00    +0.000 A 
ATOM     35  C   UNL     1       2.095   5.135  18.073  0.00  0.00    +0.000 A 
ENDBRANCH  29  30
ENDBRANCH  28  29
ENDBRANCH   8  28
TORSDOF 7
ENDMDL
MODEL 9
REMARK VINA RESULT:      -7.6      5.630      8.859
REMARK  Name = 
REMARK  7 active torsions:
REMARK  status: ('A' for Active; 'I' for Inactive)
REMARK    1  A    between atoms: C_2  and  O_3
REMARK    2  A    between atoms: C_2  and  C_4
REMARK    3  A    between atoms: C_11  and  O_12
REMARK    4  A    between atoms: O_12  and  C_13
REMARK    5  A    between atoms: C_13  and  C_14
REMARK    6  A    between atoms: N_23  and  S_24
REMARK    7  A    between atoms: S_24  and  C_27
REMARK                            x       y       z     vdW  Elec       q    Type
REMARK                         _______ _______ _______ _____ _____    ______ ____
ROOT
ATOM      1  C   UNL     1       2.206   3.166  20.026  0.00  0.00    +0.000 C 
ATOM      2  C   UNL     1       3.671   2.930  20.460  0.00  0.00    +0.000 C 
ATOM      3  C   UNL     1       4.669   3.469  19.409  0.00  0.00    +0.000 C 
ATOM      4  C   UNL     1       4.228   4.815  18.923  0.00  0.00    +0.000 A 
ATOM      5  C   UNL     1       2.982   5.356  19.164  0.00  0.00    +0.000 A 
ATOM      6  C   UNL     1       2.943   6.635  18.572  0.00  0.00    +0.000 A 
ATOM      7  C   UNL     1       1.956   7.633  18.577  0.00  0.00    +0.000 A 
ATOM      8  C   UNL     1       2.192   8.851  17.948  0.00  0.00    +0.000 A 
ATOM      9  C   UNL     1       3.355   9.024  17.206  0.00  0.00    +0.000 A 
ATOM     10  C   UNL     1       4.350   8.033  17.163  0.00  0.00    +0.000 A 
ATOM     11  C   UNL     1       4.149   6.844  17.892  0.00  0.00    +0.000 A 
ATOM     12  N   UNL     1       4.917   5.703  18.115  0.00  0.00    +0.000 N 
ATOM     13  C   UNL     1       1.913   4.669  19.946  0.00  0.00    +0.000 C 
ENDROOT
BRANCH  12  14
ATOM     14  S   UNL     1       6.547   5.495  17.619  0.00  0.00    +0.000 S 
ATOM     15  O   UNL     1       7.121   6.829  17.639  0.00  0.00    +0.000 OA
ATOM     16  O   UNL     1       7.115   4.416  18.401  0.00  0.00    +0.000 OA
BRANCH  14  17
ATOM     17  C   UNL     1       6.495   4.956  15.924  0.00  0.00    +0.000 A 
ATOM     18  C   UNL     1       5.416   4.154  15.525  0.00  0.00    +0.000 A 
ATOM     19  C   UNL     1       5.370   3.645  14.225  0.00  0.00    +0.000 A 
ATOM     20  C   UNL     1       6.395   3.944  13.329  0.00  0.00    +0.000 A 
ATOM     21 CL   UNL     1       6.372   3.266  11.749  0.00  0.00    +0.000 Cl
ATOM     22  C   UNL     1       7.446   4.778  13.712  0.00  0.00    +0.000 A 
ATOM     23  C   UNL     1       7.498   5.294  15.012  0.00  0.00    +0.000 A 
ENDBRANCH  14  17
ENDBRANCH  12  14
BRANCH   1  25
ATOM     24  O   UNL     1       1.473   2.229  22.133  0.00  0.00    +0.000 OA
ATOM     25  C   UNL     1       1.220   2.539  20.981  0.00  0.00    +0.000 C 
BRANCH  25  26
ATOM     26  O   UNL     1      -0.015   2.391  20.449  0.00  0.00    +0.000 OA
ATOM     27  H   UNL     1      -0.586   1.743  20.905  0.00  0.00    +0.000 HD
ENDBRANCH  25  26
ENDBRANCH   1  25
BRANCH   8  28
ATOM     28  O   UNL     1       1.336   9.919  18.021  0.00  0.00    +0.000 OA
BRANCH  28  29
ATOM     29  C   UNL     1       0.433   9.874  19.132  0.00  0.00    +0.000 C 
BRANCH  29  30
ATOM     30  C   UNL     1      -0.904  10.418  18.718  0.00  0.00    +0.000 A 
ATOM     31  C   UNL     1      -1.538   9.960  17.555  0.00  0.00    +0.000 A 
ATOM     32  C   UNL     1      -2.786  10.464  17.191  0.00  0.00    +0.000 A 
ATOM     33  C   UNL     1      -3.404  11.429  17.982  0.00  0.00    +0.000 A 
ATOM     34  C   UNL     1      -2.782  11.895  19.134  0.00  0.00    +0.000 A 
ATOM     35  C   UNL     1      -1.535  11.393  19.503  0.00  0.00    +0.000 A 
ENDBRANCH  29  30
ENDBRANCH  28  29
ENDBRANCH   8  28
TORSDOF 7
ENDMDL
