MODEL 1
REMARK VINA RESULT:      -7.5      0.000      0.000
REMARK  Name = 
REMARK  3 active torsions:
REMARK  status: ('A' for Active; 'I' for Inactive)
REMARK    1  A    between atoms: O_1  and  C_2
REMARK    2  A    between atoms: C_5  and  C_6
REMARK    3  A    between atoms: C_7  and  C_8
REMARK                            x       y       z     vdW  Elec       q    Type
REMARK                         _______ _______ _______ _____ _____    ______ ____
ROOT
ATOM      1  C   UNL     1       8.174   8.953  17.948  0.00  0.00    +0.000 C 
ATOM      2  C   UNL     1       8.972   9.360  18.948  0.00  0.00    +0.000 C 
ENDROOT
BRANCH   2   3
ATOM      3  C   UNL     1       9.595  10.691  19.045  0.00  0.00    +0.000 A 
ATOM      4  C   UNL     1       9.890  11.306  20.283  0.00  0.00    +0.000 A 
ATOM      5  C   UNL     1      10.509  12.562  20.339  0.00  0.00    +0.000 A 
ATOM      6  C   UNL     1      10.829  13.173  19.149  0.00  0.00    +0.000 A 
ATOM      7  C   UNL     1      10.562  12.578  17.940  0.00  0.00    +0.000 A 
ATOM      8  C   UNL     1       9.955  11.342  17.855  0.00  0.00    +0.000 A 
ATOM      9  O   UNL     1      10.962  13.341  16.887  0.00  0.00    +0.000 OA
ATOM     10  C   UNL     1      11.480  14.500  17.573  0.00  0.00    +0.000 C 
ATOM     11  O   UNL     1      11.430  14.385  19.010  0.00  0.00    +0.000 OA
ENDBRANCH   2   3
BRANCH   1  15
ATOM     12  C   UNL     1       6.445   5.046  17.814  0.00  0.00    +0.000 A 
ATOM     13  C   UNL     1       7.511   5.311  18.668  0.00  0.00    +0.000 A 
ATOM     14  C   UNL     1       8.071   6.592  18.691  0.00  0.00    +0.000 A 
ATOM     15  C   UNL     1       7.579   7.608  17.860  0.00  0.00    +0.000 A 
ATOM     16  C   UNL     1       6.494   7.321  17.019  0.00  0.00    +0.000 A 
ATOM     17  C   UNL     1       5.934   6.041  16.991  0.00  0.00    +0.000 A 
BRANCH  12  18
ATOM     18  O   UNL     1       5.865   3.815  17.759  0.00  0.00    +0.000 OA
ATOM     19  H   UNL     1       4.944   3.918  17.467  0.00  0.00    +0.000 HD
ENDBRANCH  12  18
ENDBRANCH   1  15
TORSDOF 3
ENDMDL
MODEL 2
REMARK VINA RESULT:      -7.5      0.945      1.416
REMARK  Name = 
REMARK  3 active torsions:
REMARK  status: ('A' for Active; 'I' for Inactive)
REMARK    1  A    between atoms: O_1  and  C_2
REMARK    2  A    between atoms: C_5  and  C_6
REMARK    3  A    between atoms: C_7  and  C_8
REMARK                            x       y       z     vdW  Elec       q    Type
REMARK                         _______ _______ _______ _____ _____    ______ ____
ROOT
ATOM      1  C   UNL     1       7.979   8.841  17.612  0.00  0.00    +0.000 C 
ATOM      2  C   UNL     1       8.674   9.491  18.559  0.00  0.00    +0.000 C 
ENDROOT
BRANCH   2   3
ATOM      3  C   UNL     1       9.275  10.827  18.400  0.00  0.00    +0.000 A 
ATOM      4  C   UNL     1       8.627  11.877  17.712  0.00  0.00    +0.000 A 
ATOM      5  C   UNL     1       9.214  13.144  17.604  0.00  0.00    +0.000 A 
ATOM      6  C   UNL     1      10.440  13.337  18.199  0.00  0.00    +0.000 A 
ATOM      7  C   UNL     1      11.072  12.329  18.885  0.00  0.00    +0.000 A 
ATOM      8  C   UNL     1      10.516  11.072  19.008  0.00  0.00    +0.000 A 
ATOM      9  O   UNL     1      12.266  12.723  19.402  0.00  0.00    +0.000 OA
ATOM     10  C   UNL     1      12.327  14.087  18.933  0.00  0.00    +0.000 C 
ATOM     11  O   UNL     1      11.155  14.493  18.198  0.00  0.00    +0.000 OA
ENDBRANCH   2   3
BRANCH   1  15
ATOM     12  C   UNL     1       6.334   4.945  18.233  0.00  0.00    +0.000 A 
ATOM     13  C   UNL     1       7.529   5.306  18.846  0.00  0.00    +0.000 A 
ATOM     14  C   UNL     1       8.058   6.582  18.624  0.00  0.00    +0.000 A 
ATOM     15  C   UNL     1       7.405   7.495  17.784  0.00  0.00    +0.000 A 
ATOM     16  C   UNL     1       6.195   7.113  17.188  0.00  0.00    +0.000 A 
ATOM     17  C   UNL     1       5.665   5.838  17.407  0.00  0.00    +0.000 A 
BRANCH  12  18
ATOM     18  O   UNL     1       5.779   3.716  18.422  0.00  0.00    +0.000 OA
ATOM     19  H   UNL     1       5.964   3.428  19.331  0.00  0.00    +0.000 HD
ENDBRANCH  12  18
ENDBRANCH   1  15
TORSDOF 3
ENDMDL
MODEL 3
REMARK VINA RESULT:      -7.5      0.902      1.828
REMARK  Name = 
REMARK  3 active torsions:
REMARK  status: ('A' for Active; 'I' for Inactive)
REMARK    1  A    between atoms: O_1  and  C_2
REMARK    2  A    between atoms: C_5  and  C_6
REMARK    3  A    between atoms: C_7  and  C_8
REMARK                            x       y       z     vdW  Elec       q    Type
REMARK                         _______ _______ _______ _____ _____    ______ ____
ROOT
ATOM      1  C   UNL     1       8.098   8.993  17.764  0.00  0.00    +0.000 C 
ATOM      2  C   UNL     1       8.845   9.625  18.684  0.00  0.00    +0.000 C 
ENDROOT
BRANCH   2   3
ATOM      3  C   UNL     1       9.403  10.981  18.534  0.00  0.00    +0.000 A 
ATOM      4  C   UNL     1       8.778  11.980  17.753  0.00  0.00    +0.000 A 
ATOM      5  C   UNL     1       9.321  13.268  17.655  0.00  0.00    +0.000 A 
ATOM      6  C   UNL     1      10.478  13.531  18.352  0.00  0.00    +0.000 A 
ATOM      7  C   UNL     1      11.085  12.574  19.126  0.00  0.00    +0.000 A 
ATOM      8  C   UNL     1      10.572  11.298  19.242  0.00  0.00    +0.000 A 
ATOM      9  O   UNL     1      12.210  13.036  19.735  0.00  0.00    +0.000 OA
ATOM     10  C   UNL     1      12.258  14.386  19.227  0.00  0.00    +0.000 C 
ATOM     11  O   UNL     1      11.143  14.717  18.375  0.00  0.00    +0.000 OA
ENDBRANCH   2   3
BRANCH   1  15
ATOM     12  C   UNL     1       6.554   5.023  18.109  0.00  0.00    +0.000 A 
ATOM     13  C   UNL     1       5.957   5.933  17.244  0.00  0.00    +0.000 A 
ATOM     14  C   UNL     1       6.469   7.231  17.151  0.00  0.00    +0.000 A 
ATOM     15  C   UNL     1       7.569   7.628  17.925  0.00  0.00    +0.000 A 
ATOM     16  C   UNL     1       8.163   6.688  18.779  0.00  0.00    +0.000 A 
ATOM     17  C   UNL     1       7.652   5.391  18.876  0.00  0.00    +0.000 A 
BRANCH  12  18
ATOM     18  O   UNL     1       6.093   3.746  18.231  0.00  0.00    +0.000 OA
ATOM     19  H   UNL     1       6.823   3.133  18.044  0.00  0.00    +0.000 HD
ENDBRANCH  12  18
ENDBRANCH   1  15
TORSDOF 3
ENDMDL
MODEL 4
REMARK VINA RESULT:      -7.5      0.164      1.148
REMARK  Name = 
REMARK  3 active torsions:
REMARK  status: ('A' for Active; 'I' for Inactive)
REMARK    1  A    between atoms: O_1  and  C_2
REMARK    2  A    between atoms: C_5  and  C_6
REMARK    3  A    between atoms: C_7  and  C_8
REMARK                            x       y       z     vdW  Elec       q    Type
REMARK                         _______ _______ _______ _____ _____    ______ ____
ROOT
ATOM      1  C   UNL     1       8.312   8.830  17.943  0.00  0.00    +0.000 C 
ATOM      2  C   UNL     1       8.861   9.384  19.036  0.00  0.00    +0.000 C 
ENDROOT
BRANCH   2   3
ATOM      3  C   UNL     1       9.567  10.676  19.065  0.00  0.00    +0.000 A 
ATOM      4  C   UNL     1       9.935  11.317  20.269  0.00  0.00    +0.000 A 
ATOM      5  C   UNL     1      10.631  12.532  20.261  0.00  0.00    +0.000 A 
ATOM      6  C   UNL     1      10.954  13.079  19.040  0.00  0.00    +0.000 A 
ATOM      7  C   UNL     1      10.617  12.458  17.862  0.00  0.00    +0.000 A 
ATOM      8  C   UNL     1       9.933  11.260  17.841  0.00  0.00    +0.000 A 
ATOM      9  O   UNL     1      11.032  13.155  16.771  0.00  0.00    +0.000 OA
ATOM     10  C   UNL     1      11.640  14.304  17.398  0.00  0.00    +0.000 C 
ATOM     11  O   UNL     1      11.625  14.244  18.840  0.00  0.00    +0.000 OA
ENDBRANCH   2   3
BRANCH   1  15
ATOM     12  C   UNL     1       6.334   5.045  17.787  0.00  0.00    +0.000 A 
ATOM     13  C   UNL     1       5.913   6.088  16.969  0.00  0.00    +0.000 A 
ATOM     14  C   UNL     1       6.565   7.323  17.040  0.00  0.00    +0.000 A 
ATOM     15  C   UNL     1       7.629   7.525  17.931  0.00  0.00    +0.000 A 
ATOM     16  C   UNL     1       8.044   6.453  18.735  0.00  0.00    +0.000 A 
ATOM     17  C   UNL     1       7.393   5.218  18.667  0.00  0.00    +0.000 A 
BRANCH  12  18
ATOM     18  O   UNL     1       5.731   3.823  17.750  0.00  0.00    +0.000 OA
ATOM     19  H   UNL     1       5.538   3.545  18.660  0.00  0.00    +0.000 HD
ENDBRANCH  12  18
ENDBRANCH   1  15
TORSDOF 3
ENDMDL
MODEL 5
REMARK VINA RESULT:      -7.5      1.288      1.584
REMARK  Name = 
REMARK  3 active torsions:
REMARK  status: ('A' for Active; 'I' for Inactive)
REMARK    1  A    between atoms: O_1  and  C_2
REMARK    2  A    between atoms: C_5  and  C_6
REMARK    3  A    between atoms: C_7  and  C_8
REMARK                            x       y       z     vdW  Elec       q    Type
REMARK                         _______ _______ _______ _____ _____    ______ ____
ROOT
ATOM      1  C   UNL     1       8.108   9.021  17.567  0.00  0.00    +0.000 C 
ATOM      2  C   UNL     1       8.830   9.726  18.453  0.00  0.00    +0.000 C 
ENDROOT
BRANCH   2   3
ATOM      3  C   UNL     1       9.389  11.068  18.212  0.00  0.00    +0.000 A 
ATOM      4  C   UNL     1      10.740  11.277  17.851  0.00  0.00    +0.000 A 
ATOM      5  C   UNL     1      11.233  12.564  17.601  0.00  0.00    +0.000 A 
ATOM      6  C   UNL     1      10.356  13.619  17.710  0.00  0.00    +0.000 A 
ATOM      7  C   UNL     1       9.038  13.427  18.044  0.00  0.00    +0.000 A 
ATOM      8  C   UNL     1       8.525  12.171  18.294  0.00  0.00    +0.000 A 
ATOM      9  O   UNL     1       8.340  14.594  18.092  0.00  0.00    +0.000 OA
ATOM     10  C   UNL     1       9.380  15.545  17.782  0.00  0.00    +0.000 C 
ATOM     11  O   UNL     1      10.655  14.929  17.505  0.00  0.00    +0.000 OA
ENDBRANCH   2   3
BRANCH   1  15
ATOM     12  C   UNL     1       6.576   5.125  18.424  0.00  0.00    +0.000 A 
ATOM     13  C   UNL     1       7.707   5.593  19.085  0.00  0.00    +0.000 A 
ATOM     14  C   UNL     1       8.200   6.866  18.785  0.00  0.00    +0.000 A 
ATOM     15  C   UNL     1       7.577   7.671  17.821  0.00  0.00    +0.000 A 
ATOM     16  C   UNL     1       6.430   7.183  17.178  0.00  0.00    +0.000 A 
ATOM     17  C   UNL     1       5.936   5.910  17.474  0.00  0.00    +0.000 A 
BRANCH  12  18
ATOM     18  O   UNL     1       6.057   3.892  18.685  0.00  0.00    +0.000 OA
ATOM     19  H   UNL     1       6.678   3.408  19.253  0.00  0.00    +0.000 HD
ENDBRANCH  12  18
ENDBRANCH   1  15
TORSDOF 3
ENDMDL
MODEL 6
REMARK VINA RESULT:      -7.4      1.216      7.752
REMARK  Name = 
REMARK  3 active torsions:
REMARK  status: ('A' for Active; 'I' for Inactive)
REMARK    1  A    between atoms: O_1  and  C_2
REMARK    2  A    between atoms: C_5  and  C_6
REMARK    3  A    between atoms: C_7  and  C_8
REMARK                            x       y       z     vdW  Elec       q    Type
REMARK                         _______ _______ _______ _____ _____    ______ ____
ROOT
ATOM      1  C   UNL     1       8.481   9.492  18.176  0.00  0.00    +0.000 C 
ATOM      2  C   UNL     1       8.571   8.256  18.693  0.00  0.00    +0.000 C 
ENDROOT
BRANCH   2   3
ATOM      3  C   UNL     1       7.848   7.075  18.190  0.00  0.00    +0.000 A 
ATOM      4  C   UNL     1       7.723   5.882  18.938  0.00  0.00    +0.000 A 
ATOM      5  C   UNL     1       7.004   4.787  18.442  0.00  0.00    +0.000 A 
ATOM      6  C   UNL     1       6.415   4.913  17.205  0.00  0.00    +0.000 A 
ATOM      7  C   UNL     1       6.516   6.072  16.475  0.00  0.00    +0.000 A 
ATOM      8  C   UNL     1       7.216   7.167  16.940  0.00  0.00    +0.000 A 
ATOM      9  O   UNL     1       5.860   5.995  15.286  0.00  0.00    +0.000 OA
ATOM     10  C   UNL     1       5.363   4.641  15.338  0.00  0.00    +0.000 C 
ATOM     11  O   UNL     1       5.683   3.961  16.569  0.00  0.00    +0.000 OA
ENDBRANCH   2   3
BRANCH   1  15
ATOM     12  C   UNL     1      10.629  12.819  19.784  0.00  0.00    +0.000 A 
ATOM     13  C   UNL     1      10.221  11.782  20.615  0.00  0.00    +0.000 A 
ATOM     14  C   UNL     1       9.510  10.706  20.074  0.00  0.00    +0.000 A 
ATOM     15  C   UNL     1       9.196  10.665  18.708  0.00  0.00    +0.000 A 
ATOM     16  C   UNL     1       9.631  11.715  17.888  0.00  0.00    +0.000 A 
ATOM     17  C   UNL     1      10.339  12.793  18.426  0.00  0.00    +0.000 A 
BRANCH  12  18
ATOM     18  O   UNL     1      11.326  13.886  20.265  0.00  0.00    +0.000 OA
ATOM     19  H   UNL     1      12.265  13.643  20.323  0.00  0.00    +0.000 HD
ENDBRANCH  12  18
ENDBRANCH   1  15
TORSDOF 3
ENDMDL
MODEL 7
REMARK VINA RESULT:      -7.4      1.284      1.946
REMARK  Name = 
REMARK  3 active torsions:
REMARK  status: ('A' for Active; 'I' for Inactive)
REMARK    1  A    between atoms: O_1  and  C_2
REMARK    2  A    between atoms: C_5  and  C_6
REMARK    3  A    between atoms: C_7  and  C_8
REMARK                            x       y       z     vdW  Elec       q    Type
REMARK                         _______ _______ _______ _____ _____    ______ ____
ROOT
ATOM      1  C   UNL     1       8.059   9.112  17.649  0.00  0.00    +0.000 C 
ATOM      2  C   UNL     1       8.935   9.752  18.440  0.00  0.00    +0.000 C 
ENDROOT
BRANCH   2   3
ATOM      3  C   UNL     1       9.462  11.106  18.196  0.00  0.00    +0.000 A 
ATOM      4  C   UNL     1      10.810  11.349  17.850  0.00  0.00    +0.000 A 
ATOM      5  C   UNL     1      11.272  12.647  17.597  0.00  0.00    +0.000 A 
ATOM      6  C   UNL     1      10.366  13.679  17.687  0.00  0.00    +0.000 A 
ATOM      7  C   UNL     1       9.049  13.454  18.007  0.00  0.00    +0.000 A 
ATOM      8  C   UNL     1       8.567  12.186  18.260  0.00  0.00    +0.000 A 
ATOM      9  O   UNL     1       8.320  14.602  18.039  0.00  0.00    +0.000 OA
ATOM     10  C   UNL     1       9.338  15.578  17.734  0.00  0.00    +0.000 C 
ATOM     11  O   UNL     1      10.632  14.995  17.477  0.00  0.00    +0.000 OA
ENDBRANCH   2   3
BRANCH   1  15
ATOM     12  C   UNL     1       6.609   5.137  18.255  0.00  0.00    +0.000 A 
ATOM     13  C   UNL     1       5.987   5.976  17.337  0.00  0.00    +0.000 A 
ATOM     14  C   UNL     1       6.469   7.277  17.158  0.00  0.00    +0.000 A 
ATOM     15  C   UNL     1       7.562   7.748  17.900  0.00  0.00    +0.000 A 
ATOM     16  C   UNL     1       8.181   6.878  18.809  0.00  0.00    +0.000 A 
ATOM     17  C   UNL     1       7.701   5.579  18.991  0.00  0.00    +0.000 A 
BRANCH  12  18
ATOM     18  O   UNL     1       6.178   3.861  18.460  0.00  0.00    +0.000 OA
ATOM     19  H   UNL     1       5.494   3.872  19.149  0.00  0.00    +0.000 HD
ENDBRANCH  12  18
ENDBRANCH   1  15
TORSDOF 3
ENDMDL
MODEL 8
REMARK VINA RESULT:      -7.3      1.254      7.810
REMARK  Name = 
REMARK  3 active torsions:
REMARK  status: ('A' for Active; 'I' for Inactive)
REMARK    1  A    between atoms: O_1  and  C_2
REMARK    2  A    between atoms: C_5  and  C_6
REMARK    3  A    between atoms: C_7  and  C_8
REMARK                            x       y       z     vdW  Elec       q    Type
REMARK                         _______ _______ _______ _____ _____    ______ ____
ROOT
ATOM      1  C   UNL     1       8.546   9.516  18.192  0.00  0.00    +0.000 C 
ATOM      2  C   UNL     1       8.558   8.291  18.740  0.00  0.00    +0.000 C 
ENDROOT
BRANCH   2   3
ATOM      3  C   UNL     1       7.862   7.113  18.195  0.00  0.00    +0.000 A 
ATOM      4  C   UNL     1       7.835   5.867  18.862  0.00  0.00    +0.000 A 
ATOM      5  C   UNL     1       7.139   4.774  18.329  0.00  0.00    +0.000 A 
ATOM      6  C   UNL     1       6.474   4.956  17.138  0.00  0.00    +0.000 A 
ATOM      7  C   UNL     1       6.480   6.166  16.488  0.00  0.00    +0.000 A 
ATOM      8  C   UNL     1       7.155   7.259  16.991  0.00  0.00    +0.000 A 
ATOM      9  O   UNL     1       5.761   6.139  15.334  0.00  0.00    +0.000 OA
ATOM     10  C   UNL     1       5.329   4.762  15.316  0.00  0.00    +0.000 C 
ATOM     11  O   UNL     1       5.751   4.015  16.476  0.00  0.00    +0.000 OA
ENDBRANCH   2   3
BRANCH   1  15
ATOM     12  C   UNL     1      10.454  12.985  19.802  0.00  0.00    +0.000 A 
ATOM     13  C   UNL     1      10.102  12.941  18.457  0.00  0.00    +0.000 A 
ATOM     14  C   UNL     1       9.488  11.794  17.945  0.00  0.00    +0.000 A 
ATOM     15  C   UNL     1       9.232  10.687  18.766  0.00  0.00    +0.000 A 
ATOM     16  C   UNL     1       9.583  10.761  20.122  0.00  0.00    +0.000 A 
ATOM     17  C   UNL     1      10.199  11.905  20.636  0.00  0.00    +0.000 A 
BRANCH  12  18
ATOM     18  O   UNL     1      11.051  14.082  20.347  0.00  0.00    +0.000 OA
ATOM     19  H   UNL     1      10.566  14.333  21.149  0.00  0.00    +0.000 HD
ENDBRANCH  12  18
ENDBRANCH   1  15
TORSDOF 3
ENDMDL
MODEL 9
REMARK VINA RESULT:      -7.3      1.005      7.946
REMARK  Name = 
REMARK  3 active torsions:
REMARK  status: ('A' for Active; 'I' for Inactive)
REMARK    1  A    between atoms: O_1  and  C_2
REMARK    2  A    between atoms: C_5  and  C_6
REMARK    3  A    between atoms: C_7  and  C_8
REMARK                            x       y       z     vdW  Elec       q    Type
REMARK                         _______ _______ _______ _____ _____    ______ ____
ROOT
ATOM      1  C   UNL     1       8.882   9.602  18.755  0.00  0.00    +0.000 C 
ATOM      2  C   UNL     1       8.197   8.994  17.773  0.00  0.00    +0.000 C 
ENDROOT
BRANCH   2   3
ATOM      3  C   UNL     1       7.590   7.655  17.868  0.00  0.00    +0.000 A 
ATOM      4  C   UNL     1       8.086   6.653  18.732  0.00  0.00    +0.000 A 
ATOM      5  C   UNL     1       7.467   5.399  18.819  0.00  0.00    +0.000 A 
ATOM      6  C   UNL     1       6.353   5.178  18.042  0.00  0.00    +0.000 A 
ATOM      7  C   UNL     1       5.851   6.150  17.211  0.00  0.00    +0.000 A 
ATOM      8  C   UNL     1       6.440   7.393  17.107  0.00  0.00    +0.000 A 
ATOM      9  O   UNL     1       4.745   5.735  16.537  0.00  0.00    +0.000 OA
ATOM     10  C   UNL     1       4.629   4.379  17.016  0.00  0.00    +0.000 C 
ATOM     11  O   UNL     1       5.626   4.030  17.997  0.00  0.00    +0.000 OA
ENDBRANCH   2   3
BRANCH   1  15
ATOM     12  C   UNL     1      10.566  13.515  18.410  0.00  0.00    +0.000 A 
ATOM     13  C   UNL     1       9.411  13.185  17.708  0.00  0.00    +0.000 A 
ATOM     14  C   UNL     1       8.879  11.897  17.825  0.00  0.00    +0.000 A 
ATOM     15  C   UNL     1       9.500  10.933  18.631  0.00  0.00    +0.000 A 
ATOM     16  C   UNL     1      10.655  11.293  19.340  0.00  0.00    +0.000 A 
ATOM     17  C   UNL     1      11.191  12.579  19.223  0.00  0.00    +0.000 A 
BRANCH  12  18
ATOM     18  O   UNL     1      11.119  14.757  18.330  0.00  0.00    +0.000 OA
ATOM     19  H   UNL     1      11.694  14.891  19.101  0.00  0.00    +0.000 HD
ENDBRANCH  12  18
ENDBRANCH   1  15
TORSDOF 3
ENDMDL
