MODEL 1
REMARK VINA RESULT:      -8.9      0.000      0.000
REMARK  Name = 
REMARK  7 active torsions:
REMARK  status: ('A' for Active; 'I' for Inactive)
REMARK    1  A    between atoms: C_1  and  N_2
REMARK    2  A    between atoms: C_4  and  C_5
REMARK    3  A    between atoms: C_14  and  C_15
REMARK    4  A    between atoms: N_21  and  C_22
REMARK    5  A    between atoms: C_22  and  C_23
REMARK    6  A    between atoms: C_23  and  C_24
REMARK    7  A    between atoms: C_24  and  N_25
REMARK                            x       y       z     vdW  Elec       q    Type
REMARK                         _______ _______ _______ _____ _____    ______ ____
ROOT
ATOM      1  C   UNL     1       0.179  10.203  18.152  0.00  0.00    +0.000 C 
ATOM      2  C   UNL     1      -1.147   9.683  17.580  0.00  0.00    +0.000 C 
ATOM      3  C   UNL     1      -2.055  10.912  17.299  0.00  0.00    +0.000 C 
ATOM      4  N   UNL     1      -2.173  11.794  18.479  0.00  0.00    +0.000 N 
ATOM      5  C   UNL     1      -3.414  12.226  18.903  0.00  0.00    +0.000 C 
ATOM      6  O   UNL     1      -4.456  11.934  18.303  0.00  0.00    +0.000 OA
ATOM      7  N   UNL     1      -3.421  13.007  20.027  0.00  0.00    +0.000 N 
ATOM      8  C   UNL     1      -0.903  12.220  19.055  0.00  0.00    +0.000 C 
ATOM      9  C   UNL     1      -0.130  10.985  19.440  0.00  0.00    +0.000 C 
ATOM     10  H   UNL     1      -2.666  12.874  20.684  0.00  0.00    +0.000 HD
ENDROOT
BRANCH   1  16
ATOM     11  C   UNL     1       0.740   9.141  20.969  0.00  0.00    +0.000 C 
ATOM     12  N   UNL     1       1.397   8.709  19.753  0.00  0.00    +0.000 N 
ATOM     13  N   UNL     1       2.004   7.511  19.740  0.00  0.00    +0.000 NA
ATOM     14  C   UNL     1       2.431   7.351  18.478  0.00  0.00    +0.000 A 
ATOM     15  C   UNL     1       2.126   8.510  17.704  0.00  0.00    +0.000 A 
ATOM     16  C   UNL     1       1.297   9.274  18.501  0.00  0.00    +0.000 A 
BRANCH  14  17
ATOM     17  C   UNL     1       2.979   6.056  18.033  0.00  0.00    +0.000 A 
ATOM     18  C   UNL     1       2.142   4.917  18.132  0.00  0.00    +0.000 A 
ATOM     19  C   UNL     1       2.563   3.657  17.704  0.00  0.00    +0.000 A 
ATOM     20  C   UNL     1       3.830   3.512  17.155  0.00  0.00    +0.000 A 
ATOM     21  C   UNL     1       4.675   4.620  17.042  0.00  0.00    +0.000 A 
ATOM     22 CL   UNL     1       6.236   4.338  16.342  0.00  0.00    +0.000 Cl
ATOM     23  C   UNL     1       4.265   5.893  17.483  0.00  0.00    +0.000 A 
ATOM     24 CL   UNL     1       5.388   7.218  17.381  0.00  0.00    +0.000 Cl
ENDBRANCH  14  17
ENDBRANCH   1  16
BRANCH   7  25
ATOM     25  C   UNL     1      -4.650  13.499  20.626  0.00  0.00    +0.000 C 
BRANCH  25  26
ATOM     26  C   UNL     1      -5.349  12.431  21.462  0.00  0.00    +0.000 C 
BRANCH  26  27
ATOM     27  C   UNL     1      -6.774  12.210  20.957  0.00  0.00    +0.000 C 
BRANCH  27  28
ATOM     28  N   UNL     1      -7.073  10.777  20.927  0.00  0.00    +0.000 NA
ATOM     29  C   UNL     1      -7.207  10.220  19.780  0.00  0.00    +0.000 C 
ATOM     30  N   UNL     1      -7.122  10.776  18.551  0.00  0.00    +0.000 N 
ATOM     31  N   UNL     1      -7.422   8.892  19.701  0.00  0.00    +0.000 N 
ATOM     32  H   UNL     1      -7.180  11.788  18.512  0.00  0.00    +0.000 HD
ATOM     33  H   UNL     1      -7.621  10.324  17.801  0.00  0.00    +0.000 HD
ATOM     34  H   UNL     1      -7.662   8.493  20.603  0.00  0.00    +0.000 HD
ATOM     35  H   UNL     1      -8.009   8.553  18.952  0.00  0.00    +0.000 HD
ENDBRANCH  27  28
ENDBRANCH  26  27
ENDBRANCH  25  26
ENDBRANCH   7  25
TORSDOF 6
ENDMDL
MODEL 2
REMARK VINA RESULT:      -8.6      1.626      1.854
REMARK  Name = 
REMARK  7 active torsions:
REMARK  status: ('A' for Active; 'I' for Inactive)
REMARK    1  A    between atoms: C_1  and  N_2
REMARK    2  A    between atoms: C_4  and  C_5
REMARK    3  A    between atoms: C_14  and  C_15
REMARK    4  A    between atoms: N_21  and  C_22
REMARK    5  A    between atoms: C_22  and  C_23
REMARK    6  A    between atoms: C_23  and  C_24
REMARK    7  A    between atoms: C_24  and  N_25
REMARK                            x       y       z     vdW  Elec       q    Type
REMARK                         _______ _______ _______ _____ _____    ______ ____
ROOT
ATOM      1  C   UNL     1      -0.150  10.318  18.401  0.00  0.00    +0.000 C 
ATOM      2  C   UNL     1      -1.277   9.672  17.585  0.00  0.00    +0.000 C 
ATOM      3  C   UNL     1      -2.251  10.800  17.146  0.00  0.00    +0.000 C 
ATOM      4  N   UNL     1      -2.688  11.628  18.290  0.00  0.00    +0.000 N 
ATOM      5  C   UNL     1      -4.027  11.907  18.475  0.00  0.00    +0.000 C 
ATOM      6  O   UNL     1      -4.898  11.518  17.686  0.00  0.00    +0.000 OA
ATOM      7  N   UNL     1      -4.335  12.649  19.583  0.00  0.00    +0.000 N 
ATOM      8  C   UNL     1      -1.606  12.175  19.098  0.00  0.00    +0.000 C 
ATOM      9  C   UNL     1      -0.782  11.024  19.614  0.00  0.00    +0.000 C 
ATOM     10  H   UNL     1      -3.706  12.582  20.370  0.00  0.00    +0.000 HD
ENDROOT
BRANCH   1  16
ATOM     11  C   UNL     1      -0.003   9.252  21.268  0.00  0.00    +0.000 C 
ATOM     12  N   UNL     1       0.912   8.927  20.194  0.00  0.00    +0.000 N 
ATOM     13  N   UNL     1       1.643   7.805  20.289  0.00  0.00    +0.000 NA
ATOM     14  C   UNL     1       2.312   7.725  19.129  0.00  0.00    +0.000 A 
ATOM     15  C   UNL     1       2.026   8.863  18.317  0.00  0.00    +0.000 A 
ATOM     16  C   UNL     1       0.983   9.510  18.948  0.00  0.00    +0.000 A 
BRANCH  14  17
ATOM     17  C   UNL     1       3.075   6.510  18.787  0.00  0.00    +0.000 A 
ATOM     18  C   UNL     1       4.038   6.606  17.752  0.00  0.00    +0.000 A 
ATOM     19  C   UNL     1       4.830   5.517  17.383  0.00  0.00    +0.000 A 
ATOM     20  C   UNL     1       4.682   4.309  18.052  0.00  0.00    +0.000 A 
ATOM     21  C   UNL     1       3.742   4.188  19.080  0.00  0.00    +0.000 A 
ATOM     22 CL   UNL     1       3.634   2.641  19.855  0.00  0.00    +0.000 Cl
ATOM     23  C   UNL     1       2.929   5.276  19.451  0.00  0.00    +0.000 A 
ATOM     24 CL   UNL     1       1.728   5.043  20.687  0.00  0.00    +0.000 Cl
ENDBRANCH  14  17
ENDBRANCH   1  16
BRANCH   7  25
ATOM     25  C   UNL     1      -5.702  12.984  19.942  0.00  0.00    +0.000 C 
BRANCH  25  26
ATOM     26  C   UNL     1      -6.245  12.076  21.042  0.00  0.00    +0.000 C 
BRANCH  26  27
ATOM     27  C   UNL     1      -7.621  11.537  20.655  0.00  0.00    +0.000 C 
BRANCH  27  28
ATOM     28  N   UNL     1      -7.885  10.289  21.373  0.00  0.00    +0.000 NA
ATOM     29  C   UNL     1      -7.744   9.190  20.728  0.00  0.00    +0.000 C 
ATOM     30  N   UNL     1      -7.388   9.001  19.438  0.00  0.00    +0.000 N 
ATOM     31  N   UNL     1      -7.916   8.013  21.363  0.00  0.00    +0.000 N 
ATOM     32  H   UNL     1      -7.449   9.813  18.833  0.00  0.00    +0.000 HD
ATOM     33  H   UNL     1      -7.694   8.153  18.991  0.00  0.00    +0.000 HD
ATOM     34  H   UNL     1      -8.352   8.134  22.272  0.00  0.00    +0.000 HD
ATOM     35  H   UNL     1      -8.311   7.246  20.837  0.00  0.00    +0.000 HD
ENDBRANCH  27  28
ENDBRANCH  26  27
ENDBRANCH  25  26
ENDBRANCH   7  25
TORSDOF 6
ENDMDL
MODEL 3
REMARK VINA RESULT:      -8.5      2.225      2.626
REMARK  Name = 
REMARK  7 active torsions:
REMARK  status: ('A' for Active; 'I' for Inactive)
REMARK    1  A    between atoms: C_1  and  N_2
REMARK    2  A    between atoms: C_4  and  C_5
REMARK    3  A    between atoms: C_14  and  C_15
REMARK    4  A    between atoms: N_21  and  C_22
REMARK    5  A    between atoms: C_22  and  C_23
REMARK    6  A    between atoms: C_23  and  C_24
REMARK    7  A    between atoms: C_24  and  N_25
REMARK                            x       y       z     vdW  Elec       q    Type
REMARK                         _______ _______ _______ _____ _____    ______ ____
ROOT
ATOM      1  C   UNL     1       0.426  10.187  18.781  0.00  0.00    +0.000 C 
ATOM      2  C   UNL     1      -1.041   9.915  19.142  0.00  0.00    +0.000 C 
ATOM      3  C   UNL     1      -1.858  11.191  18.795  0.00  0.00    +0.000 C 
ATOM      4  N   UNL     1      -1.268  12.406  19.396  0.00  0.00    +0.000 N 
ATOM      5  C   UNL     1      -2.065  13.292  20.094  0.00  0.00    +0.000 C 
ATOM      6  O   UNL     1      -3.286  13.133  20.209  0.00  0.00    +0.000 OA
ATOM      7  N   UNL     1      -1.420  14.366  20.646  0.00  0.00    +0.000 N 
ATOM      8  C   UNL     1       0.144  12.610  19.104  0.00  0.00    +0.000 C 
ATOM      9  C   UNL     1       0.901  11.404  19.595  0.00  0.00    +0.000 C 
ATOM     10  H   UNL     1      -0.447  14.244  20.885  0.00  0.00    +0.000 HD
ENDROOT
BRANCH   1  16
ATOM     11  C   UNL     1       1.112   8.849  21.448  0.00  0.00    +0.000 C 
ATOM     12  N   UNL     1       1.629   8.468  20.151  0.00  0.00    +0.000 N 
ATOM     13  N   UNL     1       2.125   7.231  19.993  0.00  0.00    +0.000 NA
ATOM     14  C   UNL     1       2.434   7.142  18.690  0.00  0.00    +0.000 A 
ATOM     15  C   UNL     1       2.173   8.384  18.037  0.00  0.00    +0.000 A 
ATOM     16  C   UNL     1       1.481   9.144  18.959  0.00  0.00    +0.000 A 
BRANCH  14  17
ATOM     17  C   UNL     1       2.827   5.849  18.100  0.00  0.00    +0.000 A 
ATOM     18  C   UNL     1       1.903   4.778  18.185  0.00  0.00    +0.000 A 
ATOM     19  C   UNL     1       2.175   3.528  17.626  0.00  0.00    +0.000 A 
ATOM     20  C   UNL     1       3.376   3.327  16.959  0.00  0.00    +0.000 A 
ATOM     21  C   UNL     1       4.304   4.367  16.858  0.00  0.00    +0.000 A 
ATOM     22 CL   UNL     1       5.772   4.018  16.005  0.00  0.00    +0.000 Cl
ATOM     23  C   UNL     1       4.045   5.628  17.429  0.00  0.00    +0.000 A 
ATOM     24 CL   UNL     1       5.270   6.860  17.333  0.00  0.00    +0.000 Cl
ENDBRANCH  14  17
ENDBRANCH   1  16
BRANCH   7  25
ATOM     25  C   UNL     1      -2.109  15.360  21.450  0.00  0.00    +0.000 C 
BRANCH  25  26
ATOM     26  C   UNL     1      -2.278  14.911  22.899  0.00  0.00    +0.000 C 
BRANCH  26  27
ATOM     27  C   UNL     1      -3.747  14.982  23.310  0.00  0.00    +0.000 C 
BRANCH  27  28
ATOM     28  N   UNL     1      -4.038  13.942  24.298  0.00  0.00    +0.000 NA
ATOM     29  C   UNL     1      -4.596  12.865  23.882  0.00  0.00    +0.000 C 
ATOM     30  N   UNL     1      -4.981  12.537  22.630  0.00  0.00    +0.000 N 
ATOM     31  N   UNL     1      -4.826  11.854  24.744  0.00  0.00    +0.000 N 
ATOM     32  H   UNL     1      -5.048  13.302  21.966  0.00  0.00    +0.000 HD
ATOM     33  H   UNL     1      -5.727  11.867  22.533  0.00  0.00    +0.000 HD
ATOM     34  H   UNL     1      -4.709  12.146  25.709  0.00  0.00    +0.000 HD
ATOM     35  H   UNL     1      -5.654  11.292  24.601  0.00  0.00    +0.000 HD
ENDBRANCH  27  28
ENDBRANCH  26  27
ENDBRANCH  25  26
ENDBRANCH   7  25
TORSDOF 6
ENDMDL
MODEL 4
REMARK VINA RESULT:      -8.4      4.643     10.274
REMARK  Name = 
REMARK  7 active torsions:
REMARK  status: ('A' for Active; 'I' for Inactive)
REMARK    1  A    between atoms: C_1  and  N_2
REMARK    2  A    between atoms: C_4  and  C_5
REMARK    3  A    between atoms: C_14  and  C_15
REMARK    4  A    between atoms: N_21  and  C_22
REMARK    5  A    between atoms: C_22  and  C_23
REMARK    6  A    between atoms: C_23  and  C_24
REMARK    7  A    between atoms: C_24  and  N_25
REMARK                            x       y       z     vdW  Elec       q    Type
REMARK                         _______ _______ _______ _____ _____    ______ ____
ROOT
ATOM      1  C   UNL     1       1.068   9.485  19.910  0.00  0.00    +0.000 C 
ATOM      2  C   UNL     1       0.934   8.394  20.981  0.00  0.00    +0.000 C 
ATOM      3  C   UNL     1       2.146   7.433  20.833  0.00  0.00    +0.000 C 
ATOM      4  N   UNL     1       2.300   6.948  19.445  0.00  0.00    +0.000 N 
ATOM      5  C   UNL     1       2.471   5.601  19.195  0.00  0.00    +0.000 C 
ATOM      6  O   UNL     1       2.542   4.764  20.104  0.00  0.00    +0.000 OA
ATOM      7  N   UNL     1       2.566   5.246  17.876  0.00  0.00    +0.000 N 
ATOM      8  C   UNL     1       2.352   7.994  18.432  0.00  0.00    +0.000 C 
ATOM      9  C   UNL     1       1.084   8.801  18.531  0.00  0.00    +0.000 C 
ATOM     10  H   UNL     1       2.105   5.843  17.206  0.00  0.00    +0.000 HD
ENDROOT
BRANCH   1  16
ATOM     11  C   UNL     1       1.640  12.197  18.608  0.00  0.00    +0.000 C 
ATOM     12  N   UNL     1       0.347  11.729  19.060  0.00  0.00    +0.000 N 
ATOM     13  N   UNL     1      -0.758  12.299  18.552  0.00  0.00    +0.000 NA
ATOM     14  C   UNL     1      -1.780  11.608  19.079  0.00  0.00    +0.000 A 
ATOM     15  C   UNL     1      -1.292  10.618  19.982  0.00  0.00    +0.000 A 
ATOM     16  C   UNL     1       0.076  10.598  19.798  0.00  0.00    +0.000 A 
BRANCH  14  17
ATOM     17  C   UNL     1      -3.157  11.824  18.595  0.00  0.00    +0.000 A 
ATOM     18  C   UNL     1      -3.453  11.449  17.261  0.00  0.00    +0.000 A 
ATOM     19  C   UNL     1      -4.736  11.586  16.729  0.00  0.00    +0.000 A 
ATOM     20  C   UNL     1      -5.755  12.091  17.525  0.00  0.00    +0.000 A 
ATOM     21  C   UNL     1      -5.491  12.465  18.847  0.00  0.00    +0.000 A 
ATOM     22 CL   UNL     1      -6.828  13.082  19.761  0.00  0.00    +0.000 Cl
ATOM     23  C   UNL     1      -4.197  12.344  19.390  0.00  0.00    +0.000 A 
ATOM     24 CL   UNL     1      -3.916  12.893  21.016  0.00  0.00    +0.000 Cl
ENDBRANCH  14  17
ENDBRANCH   1  16
BRANCH   7  25
ATOM     25  C   UNL     1       2.699   3.864  17.449  0.00  0.00    +0.000 C 
BRANCH  25  26
ATOM     26  C   UNL     1       4.071   3.580  16.845  0.00  0.00    +0.000 C 
BRANCH  26  27
ATOM     27  C   UNL     1       5.176   4.056  17.788  0.00  0.00    +0.000 C 
BRANCH  27  28
ATOM     28  N   UNL     1       5.739   5.314  17.296  0.00  0.00    +0.000 NA
ATOM     29  C   UNL     1       6.999   5.349  17.058  0.00  0.00    +0.000 C 
ATOM     30  N   UNL     1       7.919   4.373  17.208  0.00  0.00    +0.000 N 
ATOM     31  N   UNL     1       7.552   6.467  16.546  0.00  0.00    +0.000 N 
ATOM     32  H   UNL     1       7.645   3.582  17.781  0.00  0.00    +0.000 HD
ATOM     33  H   UNL     1       8.875   4.653  17.357  0.00  0.00    +0.000 HD
ATOM     34  H   UNL     1       6.919   7.259  16.592  0.00  0.00    +0.000 HD
ATOM     35  H   UNL     1       8.494   6.699  16.829  0.00  0.00    +0.000 HD
ENDBRANCH  27  28
ENDBRANCH  26  27
ENDBRANCH  25  26
ENDBRANCH   7  25
TORSDOF 6
ENDMDL
MODEL 5
REMARK VINA RESULT:      -8.4      2.265      2.992
REMARK  Name = 
REMARK  7 active torsions:
REMARK  status: ('A' for Active; 'I' for Inactive)
REMARK    1  A    between atoms: C_1  and  N_2
REMARK    2  A    between atoms: C_4  and  C_5
REMARK    3  A    between atoms: C_14  and  C_15
REMARK    4  A    between atoms: N_21  and  C_22
REMARK    5  A    between atoms: C_22  and  C_23
REMARK    6  A    between atoms: C_23  and  C_24
REMARK    7  A    between atoms: C_24  and  N_25
REMARK                            x       y       z     vdW  Elec       q    Type
REMARK                         _______ _______ _______ _____ _____    ______ ____
ROOT
ATOM      1  C   UNL     1       0.107  10.194  18.248  0.00  0.00    +0.000 C 
ATOM      2  C   UNL     1      -1.279   9.557  18.082  0.00  0.00    +0.000 C 
ATOM      3  C   UNL     1      -2.285  10.692  17.742  0.00  0.00    +0.000 C 
ATOM      4  N   UNL     1      -2.208  11.807  18.709  0.00  0.00    +0.000 N 
ATOM      5  C   UNL     1      -3.360  12.313  19.279  0.00  0.00    +0.000 C 
ATOM      6  O   UNL     1      -4.484  11.893  18.980  0.00  0.00    +0.000 OA
ATOM      7  N   UNL     1      -3.182  13.318  20.191  0.00  0.00    +0.000 N 
ATOM      8  C   UNL     1      -0.872  12.353  18.910  0.00  0.00    +0.000 C 
ATOM      9  C   UNL     1       0.022  11.234  19.379  0.00  0.00    +0.000 C 
ATOM     10  H   UNL     1      -2.306  13.334  20.692  0.00  0.00    +0.000 HD
ENDROOT
BRANCH   1  16
ATOM     11  C   UNL     1       0.657   8.828  20.933  0.00  0.00    +0.000 C 
ATOM     12  N   UNL     1       1.424   8.651  19.718  0.00  0.00    +0.000 N 
ATOM     13  N   UNL     1       2.181   7.550  19.589  0.00  0.00    +0.000 NA
ATOM     14  C   UNL     1       2.689   7.618  18.349  0.00  0.00    +0.000 A 
ATOM     15  C   UNL     1       2.276   8.828  17.715  0.00  0.00    +0.000 A 
ATOM     16  C   UNL     1       1.316   9.369  18.547  0.00  0.00    +0.000 A 
BRANCH  14  17
ATOM     17  C   UNL     1       3.421   6.473  17.775  0.00  0.00    +0.000 A 
ATOM     18  C   UNL     1       4.583   6.749  17.014  0.00  0.00    +0.000 A 
ATOM     19  C   UNL     1       5.357   5.727  16.461  0.00  0.00    +0.000 A 
ATOM     20  C   UNL     1       4.989   4.405  16.669  0.00  0.00    +0.000 A 
ATOM     21  C   UNL     1       3.848   4.104  17.419  0.00  0.00    +0.000 A 
ATOM     22 CL   UNL     1       3.473   2.425  17.624  0.00  0.00    +0.000 Cl
ATOM     23  C   UNL     1       3.053   5.128  17.971  0.00  0.00    +0.000 A 
ATOM     24 CL   UNL     1       1.606   4.693  18.833  0.00  0.00    +0.000 Cl
ENDBRANCH  14  17
ENDBRANCH   1  16
BRANCH   7  25
ATOM     25  C   UNL     1      -4.289  13.921  20.912  0.00  0.00    +0.000 C 
BRANCH  25  26
ATOM     26  C   UNL     1      -4.695  13.099  22.132  0.00  0.00    +0.000 C 
BRANCH  26  27
ATOM     27  C   UNL     1      -3.607  13.163  23.203  0.00  0.00    +0.000 C 
BRANCH  27  28
ATOM     28  N   UNL     1      -2.970  11.852  23.342  0.00  0.00    +0.000 NA
ATOM     29  C   UNL     1      -1.719  11.767  23.077  0.00  0.00    +0.000 C 
ATOM     30  N   UNL     1      -0.871  12.732  22.661  0.00  0.00    +0.000 N 
ATOM     31  N   UNL     1      -1.076  10.594  23.250  0.00  0.00    +0.000 N 
ATOM     32  H   UNL     1      -1.298  13.579  22.300  0.00  0.00    +0.000 HD
ATOM     33  H   UNL     1      -0.061  12.445  22.137  0.00  0.00    +0.000 HD
ATOM     34  H   UNL     1      -1.723   9.824  23.388  0.00  0.00    +0.000 HD
ATOM     35  H   UNL     1      -0.327  10.368  22.610  0.00  0.00    +0.000 HD
ENDBRANCH  27  28
ENDBRANCH  26  27
ENDBRANCH  25  26
ENDBRANCH   7  25
TORSDOF 6
ENDMDL
MODEL 6
REMARK VINA RESULT:      -8.2      1.661      2.607
REMARK  Name = 
REMARK  7 active torsions:
REMARK  status: ('A' for Active; 'I' for Inactive)
REMARK    1  A    between atoms: C_1  and  N_2
REMARK    2  A    between atoms: C_4  and  C_5
REMARK    3  A    between atoms: C_14  and  C_15
REMARK    4  A    between atoms: N_21  and  C_22
REMARK    5  A    between atoms: C_22  and  C_23
REMARK    6  A    between atoms: C_23  and  C_24
REMARK    7  A    between atoms: C_24  and  N_25
REMARK                            x       y       z     vdW  Elec       q    Type
REMARK                         _______ _______ _______ _____ _____    ______ ____
ROOT
ATOM      1  C   UNL     1       0.139  10.251  18.252  0.00  0.00    +0.000 C 
ATOM      2  C   UNL     1      -1.128   9.783  17.525  0.00  0.00    +0.000 C 
ATOM      3  C   UNL     1      -2.062  11.014  17.359  0.00  0.00    +0.000 C 
ATOM      4  N   UNL     1      -2.285  11.715  18.642  0.00  0.00    +0.000 N 
ATOM      5  C   UNL     1      -3.565  12.047  19.038  0.00  0.00    +0.000 C 
ATOM      6  O   UNL     1      -4.556  11.815  18.335  0.00  0.00    +0.000 OA
ATOM      7  N   UNL     1      -3.671  12.660  20.258  0.00  0.00    +0.000 N 
ATOM      8  C   UNL     1      -1.070  12.089  19.354  0.00  0.00    +0.000 C 
ATOM      9  C   UNL     1      -0.278  10.833  19.614  0.00  0.00    +0.000 C 
ATOM     10  H   UNL     1      -2.954  12.456  20.938  0.00  0.00    +0.000 HD
ENDROOT
BRANCH   1  16
ATOM     11  C   UNL     1       0.878   9.231  21.043  0.00  0.00    +0.000 C 
ATOM     12  N   UNL     1       1.445   8.769  19.793  0.00  0.00    +0.000 N 
ATOM     13  N   UNL     1       2.035   7.563  19.761  0.00  0.00    +0.000 NA
ATOM     14  C   UNL     1       2.373   7.375  18.476  0.00  0.00    +0.000 A 
ATOM     15  C   UNL     1       2.030   8.524  17.703  0.00  0.00    +0.000 A 
ATOM     16  C   UNL     1       1.267   9.314  18.540  0.00  0.00    +0.000 A 
BRANCH  14  17
ATOM     17  C   UNL     1       2.872   6.065  18.018  0.00  0.00    +0.000 A 
ATOM     18  C   UNL     1       1.997   4.955  18.118  0.00  0.00    +0.000 A 
ATOM     19  C   UNL     1       2.373   3.683  17.678  0.00  0.00    +0.000 A 
ATOM     20  C   UNL     1       3.629   3.499  17.118  0.00  0.00    +0.000 A 
ATOM     21  C   UNL     1       4.511   4.579  17.004  0.00  0.00    +0.000 A 
ATOM     22 CL   UNL     1       6.055   4.248  16.289  0.00  0.00    +0.000 Cl
ATOM     23  C   UNL     1       4.147   5.862  17.456  0.00  0.00    +0.000 A 
ATOM     24 CL   UNL     1       5.314   7.148  17.353  0.00  0.00    +0.000 Cl
ENDBRANCH  14  17
ENDBRANCH   1  16
BRANCH   7  25
ATOM     25  C   UNL     1      -4.952  13.027  20.836  0.00  0.00    +0.000 C 
BRANCH  25  26
ATOM     26  C   UNL     1      -4.940  12.941  22.360  0.00  0.00    +0.000 C 
BRANCH  26  27
ATOM     27  C   UNL     1      -3.518  13.117  22.891  0.00  0.00    +0.000 C 
BRANCH  27  28
ATOM     28  N   UNL     1      -2.916  11.807  23.143  0.00  0.00    +0.000 NA
ATOM     29  C   UNL     1      -1.640  11.713  23.066  0.00  0.00    +0.000 C 
ATOM     30  N   UNL     1      -0.735  12.670  22.764  0.00  0.00    +0.000 N 
ATOM     31  N   UNL     1      -1.036  10.542  23.349  0.00  0.00    +0.000 N 
ATOM     32  H   UNL     1      -1.100  13.511  22.331  0.00  0.00    +0.000 HD
ATOM     33  H   UNL     1       0.142  12.372  22.368  0.00  0.00    +0.000 HD
ATOM     34  H   UNL     1      -1.700   9.776  23.403  0.00  0.00    +0.000 HD
ATOM     35  H   UNL     1      -0.202  10.303  22.830  0.00  0.00    +0.000 HD
ENDBRANCH  27  28
ENDBRANCH  26  27
ENDBRANCH  25  26
ENDBRANCH   7  25
TORSDOF 6
ENDMDL
MODEL 7
REMARK VINA RESULT:      -8.1      1.942      2.570
REMARK  Name = 
REMARK  7 active torsions:
REMARK  status: ('A' for Active; 'I' for Inactive)
REMARK    1  A    between atoms: C_1  and  N_2
REMARK    2  A    between atoms: C_4  and  C_5
REMARK    3  A    between atoms: C_14  and  C_15
REMARK    4  A    between atoms: N_21  and  C_22
REMARK    5  A    between atoms: C_22  and  C_23
REMARK    6  A    between atoms: C_23  and  C_24
REMARK    7  A    between atoms: C_24  and  N_25
REMARK                            x       y       z     vdW  Elec       q    Type
REMARK                         _______ _______ _______ _____ _____    ______ ____
ROOT
ATOM      1  C   UNL     1      -0.391  10.587  18.497  0.00  0.00    +0.000 C 
ATOM      2  C   UNL     1      -1.278  10.041  17.370  0.00  0.00    +0.000 C 
ATOM      3  C   UNL     1      -2.334  11.129  17.028  0.00  0.00    +0.000 C 
ATOM      4  N   UNL     1      -3.051  11.601  18.232  0.00  0.00    +0.000 N 
ATOM      5  C   UNL     1      -4.429  11.678  18.233  0.00  0.00    +0.000 C 
ATOM      6  O   UNL     1      -5.108  11.402  17.236  0.00  0.00    +0.000 OA
ATOM      7  N   UNL     1      -5.002  12.089  19.407  0.00  0.00    +0.000 N 
ATOM      8  C   UNL     1      -2.192  12.047  19.321  0.00  0.00    +0.000 C 
ATOM      9  C   UNL     1      -1.292  10.901  19.704  0.00  0.00    +0.000 C 
ATOM     10  H   UNL     1      -4.492  11.900  20.257  0.00  0.00    +0.000 HD
ENDROOT
BRANCH   1  16
ATOM     11  C   UNL     1       0.503  10.618  21.425  0.00  0.00    +0.000 C 
ATOM     12  N   UNL     1       1.003   9.732  20.395  0.00  0.00    +0.000 N 
ATOM     13  N   UNL     1       1.597   8.586  20.764  0.00  0.00    +0.000 NA
ATOM     14  C   UNL     1       1.865   7.947  19.616  0.00  0.00    +0.000 A 
ATOM     15  C   UNL     1       1.476   8.750  18.502  0.00  0.00    +0.000 A 
ATOM     16  C   UNL     1       0.755   9.797  19.041  0.00  0.00    +0.000 A 
BRANCH  14  17
ATOM     17  C   UNL     1       2.346   6.552  19.630  0.00  0.00    +0.000 A 
ATOM     18  C   UNL     1       1.804   5.679  20.605  0.00  0.00    +0.000 A 
ATOM     19  C   UNL     1       2.175   4.334  20.672  0.00  0.00    +0.000 A 
ATOM     20  C   UNL     1       3.089   3.832  19.755  0.00  0.00    +0.000 A 
ATOM     21  C   UNL     1       3.636   4.672  18.780  0.00  0.00    +0.000 A 
ATOM     22 CL   UNL     1       4.766   3.952  17.681  0.00  0.00    +0.000 Cl
ATOM     23  C   UNL     1       3.279   6.033  18.712  0.00  0.00    +0.000 A 
ATOM     24 CL   UNL     1       4.048   7.043  17.522  0.00  0.00    +0.000 Cl
ENDBRANCH  14  17
ENDBRANCH   1  16
BRANCH   7  25
ATOM     25  C   UNL     1      -6.441  12.175  19.583  0.00  0.00    +0.000 C 
BRANCH  25  26
ATOM     26  C   UNL     1      -6.820  12.740  20.949  0.00  0.00    +0.000 C 
BRANCH  26  27
ATOM     27  C   UNL     1      -5.609  13.402  21.605  0.00  0.00    +0.000 C 
BRANCH  27  28
ATOM     28  N   UNL     1      -5.089  12.543  22.670  0.00  0.00    +0.000 NA
ATOM     29  C   UNL     1      -5.382  12.851  23.879  0.00  0.00    +0.000 C 
ATOM     30  N   UNL     1      -6.112  13.890  24.338  0.00  0.00    +0.000 N 
ATOM     31  N   UNL     1      -4.977  12.054  24.890  0.00  0.00    +0.000 N 
ATOM     32  H   UNL     1      -6.271  14.649  23.685  0.00  0.00    +0.000 HD
ATOM     33  H   UNL     1      -5.927  14.210  25.276  0.00  0.00    +0.000 HD
ATOM     34  H   UNL     1      -4.287  11.376  24.584  0.00  0.00    +0.000 HD
ATOM     35  H   UNL     1      -4.736  12.493  25.768  0.00  0.00    +0.000 HD
ENDBRANCH  27  28
ENDBRANCH  26  27
ENDBRANCH  25  26
ENDBRANCH   7  25
TORSDOF 6
ENDMDL
MODEL 8
REMARK VINA RESULT:      -8.1      2.260      2.845
REMARK  Name = 
REMARK  7 active torsions:
REMARK  status: ('A' for Active; 'I' for Inactive)
REMARK    1  A    between atoms: C_1  and  N_2
REMARK    2  A    between atoms: C_4  and  C_5
REMARK    3  A    between atoms: C_14  and  C_15
REMARK    4  A    between atoms: N_21  and  C_22
REMARK    5  A    between atoms: C_22  and  C_23
REMARK    6  A    between atoms: C_23  and  C_24
REMARK    7  A    between atoms: C_24  and  N_25
REMARK                            x       y       z     vdW  Elec       q    Type
REMARK                         _______ _______ _______ _____ _____    ______ ____
ROOT
ATOM      1  C   UNL     1       0.308  10.149  18.544  0.00  0.00    +0.000 C 
ATOM      2  C   UNL     1      -1.123   9.723  18.898  0.00  0.00    +0.000 C 
ATOM      3  C   UNL     1      -2.073  10.893  18.519  0.00  0.00    +0.000 C 
ATOM      4  N   UNL     1      -1.627  12.178  19.100  0.00  0.00    +0.000 N 
ATOM      5  C   UNL     1      -2.524  12.983  19.773  0.00  0.00    +0.000 C 
ATOM      6  O   UNL     1      -3.722  12.692  19.882  0.00  0.00    +0.000 OA
ATOM      7  N   UNL     1      -2.008  14.133  20.308  0.00  0.00    +0.000 N 
ATOM      8  C   UNL     1      -0.243  12.532  18.815  0.00  0.00    +0.000 C 
ATOM      9  C   UNL     1       0.637  11.426  19.337  0.00  0.00    +0.000 C 
ATOM     10  H   UNL     1      -1.030  14.124  20.557  0.00  0.00    +0.000 HD
ENDROOT
BRANCH   1  16
ATOM     11  C   UNL     1       0.953   8.732  21.181  0.00  0.00    +0.000 C 
ATOM     12  N   UNL     1       1.611   8.503  19.912  0.00  0.00    +0.000 N 
ATOM     13  N   UNL     1       2.271   7.348  19.728  0.00  0.00    +0.000 NA
ATOM     14  C   UNL     1       2.687   7.384  18.454  0.00  0.00    +0.000 A 
ATOM     15  C   UNL     1       2.321   8.625  17.851  0.00  0.00    +0.000 A 
ATOM     16  C   UNL     1       1.471   9.233  18.752  0.00  0.00    +0.000 A 
BRANCH  14  17
ATOM     17  C   UNL     1       3.285   6.190  17.828  0.00  0.00    +0.000 A 
ATOM     18  C   UNL     1       4.405   6.380  16.982  0.00  0.00    +0.000 A 
ATOM     19  C   UNL     1       5.056   5.304  16.373  0.00  0.00    +0.000 A 
ATOM     20  C   UNL     1       4.605   4.013  16.608  0.00  0.00    +0.000 A 
ATOM     21  C   UNL     1       3.503   3.797  17.442  0.00  0.00    +0.000 A 
ATOM     22 CL   UNL     1       3.017   2.149  17.675  0.00  0.00    +0.000 Cl
ATOM     23  C   UNL     1       2.831   4.875  18.051  0.00  0.00    +0.000 A 
ATOM     24 CL   UNL     1       1.424   4.547  19.019  0.00  0.00    +0.000 Cl
ENDBRANCH  14  17
ENDBRANCH   1  16
BRANCH   7  25
ATOM     25  C   UNL     1      -2.811  15.060  21.085  0.00  0.00    +0.000 C 
BRANCH  25  26
ATOM     26  C   UNL     1      -2.313  15.186  22.523  0.00  0.00    +0.000 C 
BRANCH  26  27
ATOM     27  C   UNL     1      -3.387  14.711  23.501  0.00  0.00    +0.000 C 
BRANCH  27  28
ATOM     28  N   UNL     1      -4.454  14.025  22.771  0.00  0.00    +0.000 NA
ATOM     29  C   UNL     1      -4.876  12.910  23.243  0.00  0.00    +0.000 C 
ATOM     30  N   UNL     1      -4.464  12.242  24.342  0.00  0.00    +0.000 N 
ATOM     31  N   UNL     1      -5.900  12.272  22.640  0.00  0.00    +0.000 N 
ATOM     32  H   UNL     1      -3.571  12.526  24.731  0.00  0.00    +0.000 HD
ATOM     33  H   UNL     1      -4.601  11.244  24.359  0.00  0.00    +0.000 HD
ATOM     34  H   UNL     1      -6.102  12.661  21.724  0.00  0.00    +0.000 HD
ATOM     35  H   UNL     1      -5.894  11.261  22.645  0.00  0.00    +0.000 HD
ENDBRANCH  27  28
ENDBRANCH  26  27
ENDBRANCH  25  26
ENDBRANCH   7  25
TORSDOF 6
ENDMDL
MODEL 9
REMARK VINA RESULT:      -8.1      4.644      9.973
REMARK  Name = 
REMARK  7 active torsions:
REMARK  status: ('A' for Active; 'I' for Inactive)
REMARK    1  A    between atoms: C_1  and  N_2
REMARK    2  A    between atoms: C_4  and  C_5
REMARK    3  A    between atoms: C_14  and  C_15
REMARK    4  A    between atoms: N_21  and  C_22
REMARK    5  A    between atoms: C_22  and  C_23
REMARK    6  A    between atoms: C_23  and  C_24
REMARK    7  A    between atoms: C_24  and  N_25
REMARK                            x       y       z     vdW  Elec       q    Type
REMARK                         _______ _______ _______ _____ _____    ______ ____
ROOT
ATOM      1  C   UNL     1       0.650  10.108  20.137  0.00  0.00    +0.000 C 
ATOM      2  C   UNL     1       0.563   9.019  21.214  0.00  0.00    +0.000 C 
ATOM      3  C   UNL     1       1.848   8.151  21.116  0.00  0.00    +0.000 C 
ATOM      4  N   UNL     1       2.085   7.669  19.739  0.00  0.00    +0.000 N 
ATOM      5  C   UNL     1       2.366   6.336  19.509  0.00  0.00    +0.000 C 
ATOM      6  O   UNL     1       2.470   5.515  20.428  0.00  0.00    +0.000 OA
ATOM      7  N   UNL     1       2.531   5.980  18.197  0.00  0.00    +0.000 N 
ATOM      8  C   UNL     1       2.092   8.708  18.718  0.00  0.00    +0.000 C 
ATOM      9  C   UNL     1       0.763   9.417  18.767  0.00  0.00    +0.000 C 
ATOM     10  H   UNL     1       2.049   6.535  17.506  0.00  0.00    +0.000 HD
ENDROOT
BRANCH   1  16
ATOM     11  C   UNL     1       0.999  12.757  18.642  0.00  0.00    +0.000 C 
ATOM     12  N   UNL     1      -0.247  12.235  19.163  0.00  0.00    +0.000 N 
ATOM     13  N   UNL     1      -1.401  12.694  18.652  0.00  0.00    +0.000 NA
ATOM     14  C   UNL     1      -2.359  11.973  19.253  0.00  0.00    +0.000 A 
ATOM     15  C   UNL     1      -1.781  11.082  20.205  0.00  0.00    +0.000 A 
ATOM     16  C   UNL     1      -0.419  11.141  19.982  0.00  0.00    +0.000 A 
BRANCH  14  17
ATOM     17  C   UNL     1      -3.759  12.062  18.798  0.00  0.00    +0.000 A 
ATOM     18  C   UNL     1      -4.055  11.615  17.486  0.00  0.00    +0.000 A 
ATOM     19  C   UNL     1      -5.357  11.631  16.982  0.00  0.00    +0.000 A 
ATOM     20  C   UNL     1      -6.394  12.084  17.786  0.00  0.00    +0.000 A 
ATOM     21  C   UNL     1      -6.130  12.528  19.086  0.00  0.00    +0.000 A 
ATOM     22 CL   UNL     1      -7.491  13.074  20.011  0.00  0.00    +0.000 Cl
ATOM     23  C   UNL     1      -4.819  12.529  19.599  0.00  0.00    +0.000 A 
ATOM     24 CL   UNL     1      -4.544  13.161  21.197  0.00  0.00    +0.000 Cl
ENDBRANCH  14  17
ENDBRANCH   1  16
BRANCH   7  25
ATOM     25  C   UNL     1       2.783   4.609  17.788  0.00  0.00    +0.000 C 
BRANCH  25  26
ATOM     26  C   UNL     1       1.510   3.767  17.788  0.00  0.00    +0.000 C 
BRANCH  26  27
ATOM     27  C   UNL     1       1.762   2.423  18.469  0.00  0.00    +0.000 C 
BRANCH  27  28
ATOM     28  N   UNL     1       2.897   2.535  19.386  0.00  0.00    +0.000 NA
ATOM     29  C   UNL     1       3.891   1.747  19.202  0.00  0.00    +0.000 C 
ATOM     30  N   UNL     1       4.051   0.786  18.266  0.00  0.00    +0.000 N 
ATOM     31  N   UNL     1       4.985   1.855  19.982  0.00  0.00    +0.000 N 
ATOM     32  H   UNL     1       3.212   0.487  17.782  0.00  0.00    +0.000 HD
ATOM     33  H   UNL     1       4.672   0.023  18.485  0.00  0.00    +0.000 HD
ATOM     34  H   UNL     1       4.816   2.442  20.793  0.00  0.00    +0.000 HD
ATOM     35  H   UNL     1       5.489   1.008  20.208  0.00  0.00    +0.000 HD
ENDBRANCH  27  28
ENDBRANCH  26  27
ENDBRANCH  25  26
ENDBRANCH   7  25
TORSDOF 6
ENDMDL
