MODEL 1
REMARK VINA RESULT:      -7.8      0.000      0.000
REMARK  Name = 
REMARK  15 active torsions:
REMARK  status: ('A' for Active; 'I' for Inactive)
REMARK    1  A    between atoms: C_1  and  C_2
REMARK    2  A    between atoms: N_4  and  C_5
REMARK    3  A    between atoms: C_5  and  C_6
REMARK    4  A    between atoms: C_5  and  C_7
REMARK    5  A    between atoms: N_9  and  C_10
REMARK    6  A    between atoms: C_10  and  C_11
REMARK    7  A    between atoms: N_13  and  C_14
REMARK    8  A    between atoms: C_14  and  C_15
REMARK    9  A    between atoms: C_14  and  C_19
REMARK   10  A    between atoms: C_15  and  C_16
REMARK   11  A    between atoms: N_21  and  C_22
REMARK   12  A    between atoms: C_22  and  C_23
REMARK   13  A    between atoms: C_22  and  C_31
REMARK   14  A    between atoms: C_23  and  C_24
REMARK   15  A    between atoms: C_27  and  O_28
REMARK                            x       y       z     vdW  Elec       q    Type
REMARK                         _______ _______ _______ _____ _____    ______ ____
ROOT
ATOM      1  C   UNL     1       1.190   9.513  20.360  0.00  0.00    +0.000 C 
ENDROOT
BRANCH   1   4
ATOM      2  C   UNL     1       0.918  11.878  19.551  0.00  0.00    +0.000 C 
ATOM      3  O   UNL     1       1.855  12.291  20.232  0.00  0.00    +0.000 OA
ATOM      4  N   UNL     1       0.517  10.560  19.566  0.00  0.00    +0.000 N 
ATOM      5  H   UNL     1      -0.242  10.256  18.956  0.00  0.00    +0.000 HD
BRANCH   2   6
ATOM      6  C   UNL     1       0.058  12.831  18.695  0.00  0.00    +0.000 C 
BRANCH   6   9
ATOM      7  C   UNL     1      -2.200  11.834  18.458  0.00  0.00    +0.000 C 
ATOM      8  O   UNL     1      -2.447  12.023  19.648  0.00  0.00    +0.000 OA
ATOM      9  N   UNL     1      -0.965  12.135  17.925  0.00  0.00    +0.000 N 
ATOM     10  H   UNL     1      -0.818  12.008  16.934  0.00  0.00    +0.000 HD
BRANCH   7  11
ATOM     11  C   UNL     1      -3.189  11.120  17.502  0.00  0.00    +0.000 C 
ATOM     12  C   UNL     1      -2.493  10.625  16.242  0.00  0.00    +0.000 C 
BRANCH  11  16
ATOM     13  C   UNL     1      -6.564  12.804  17.110  0.00  0.00    +0.000 C 
ATOM     14  C   UNL     1      -5.573  11.770  17.564  0.00  0.00    +0.000 C 
ATOM     15  O   UNL     1      -5.884  10.814  18.263  0.00  0.00    +0.000 OA
ATOM     16  N   UNL     1      -4.289  12.014  17.133  0.00  0.00    +0.000 N 
ATOM     17  H   UNL     1      -4.094  12.858  16.613  0.00  0.00    +0.000 HD
ENDBRANCH  11  16
ENDBRANCH   7  11
ENDBRANCH   6   9
ENDBRANCH   2   6
ENDBRANCH   1   4
BRANCH   1  18
ATOM     18  C   UNL     1       1.723   8.389  19.446  0.00  0.00    +0.000 C 
ATOM     19  O   UNL     1       1.716   8.511  18.224  0.00  0.00    +0.000 OA
ATOM     20  N   UNL     1       2.110   7.222  20.075  0.00  0.00    +0.000 N 
ATOM     21  H   UNL     1       2.286   7.225  21.073  0.00  0.00    +0.000 HD
BRANCH  20  22
ATOM     22  C   UNL     1       2.553   6.036  19.307  0.00  0.00    +0.000 C 
BRANCH  22  23
ATOM     23  C   UNL     1       1.655   4.797  19.491  0.00  0.00    +0.000 C 
ATOM     24  N   UNL     1       1.493   3.962  18.428  0.00  0.00    +0.000 N 
ATOM     25  O   UNL     1       1.061   4.564  20.543  0.00  0.00    +0.000 OA
ATOM     26  H   UNL     1       2.237   3.854  17.745  0.00  0.00    +0.000 HD
ATOM     27  H   UNL     1       0.988   3.107  18.632  0.00  0.00    +0.000 HD
ENDBRANCH  22  23
BRANCH  22  28
ATOM     28  C   UNL     1       3.997   5.597  19.650  0.00  0.00    +0.000 C 
BRANCH  28  29
ATOM     29  C   UNL     1       4.932   5.687  18.469  0.00  0.00    +0.000 A 
ATOM     30  C   UNL     1       4.427   5.945  17.187  0.00  0.00    +0.000 A 
ATOM     31  C   UNL     1       5.269   5.873  16.075  0.00  0.00    +0.000 A 
ATOM     32  C   UNL     1       6.614   5.571  16.255  0.00  0.00    +0.000 A 
ATOM     33  C   UNL     1       7.145   5.391  17.524  0.00  0.00    +0.000 A 
ATOM     34  C   UNL     1       6.306   5.465  18.633  0.00  0.00    +0.000 A 
BRANCH  32  35
ATOM     35  O   UNL     1       7.458   5.431  15.192  0.00  0.00    +0.000 OA
ATOM     36  H   UNL     1       6.926   5.252  14.400  0.00  0.00    +0.000 HD
ENDBRANCH  32  35
ENDBRANCH  28  29
ENDBRANCH  22  28
ENDBRANCH  20  22
ENDBRANCH   1  18
BRANCH   1  37
ATOM     37  C   UNL     1       0.287   8.878  21.422  0.00  0.00    +0.000 C 
BRANCH  37  38
ATOM     38  C   UNL     1      -0.054   9.789  22.581  0.00  0.00    +0.000 C 
ATOM     39  N   UNL     1      -1.019  10.733  22.364  0.00  0.00    +0.000 N 
ATOM     40  O   UNL     1       0.520   9.716  23.655  0.00  0.00    +0.000 OA
ATOM     41  H   UNL     1      -1.735  10.621  21.652  0.00  0.00    +0.000 HD
ATOM     42  H   UNL     1      -1.258  11.357  23.122  0.00  0.00    +0.000 HD
ENDBRANCH  37  38
ENDBRANCH   1  37
TORSDOF 13
ENDMDL
MODEL 2
REMARK VINA RESULT:      -7.7      3.016      5.425
REMARK  Name = 
REMARK  15 active torsions:
REMARK  status: ('A' for Active; 'I' for Inactive)
REMARK    1  A    between atoms: C_1  and  C_2
REMARK    2  A    between atoms: N_4  and  C_5
REMARK    3  A    between atoms: C_5  and  C_6
REMARK    4  A    between atoms: C_5  and  C_7
REMARK    5  A    between atoms: N_9  and  C_10
REMARK    6  A    between atoms: C_10  and  C_11
REMARK    7  A    between atoms: N_13  and  C_14
REMARK    8  A    between atoms: C_14  and  C_15
REMARK    9  A    between atoms: C_14  and  C_19
REMARK   10  A    between atoms: C_15  and  C_16
REMARK   11  A    between atoms: N_21  and  C_22
REMARK   12  A    between atoms: C_22  and  C_23
REMARK   13  A    between atoms: C_22  and  C_31
REMARK   14  A    between atoms: C_23  and  C_24
REMARK   15  A    between atoms: C_27  and  O_28
REMARK                            x       y       z     vdW  Elec       q    Type
REMARK                         _______ _______ _______ _____ _____    ______ ____
ROOT
ATOM      1  C   UNL     1       3.054   5.006  19.584  0.00  0.00    +0.000 C 
ENDROOT
BRANCH   1   4
ATOM      2  C   UNL     1       2.189   7.340  19.222  0.00  0.00    +0.000 C 
ATOM      3  O   UNL     1       2.215   7.608  20.422  0.00  0.00    +0.000 OA
ATOM      4  N   UNL     1       2.557   6.105  18.732  0.00  0.00    +0.000 N 
ATOM      5  H   UNL     1       2.554   5.940  17.726  0.00  0.00    +0.000 HD
BRANCH   2   6
ATOM      6  C   UNL     1       1.650   8.341  18.180  0.00  0.00    +0.000 C 
BRANCH   6   9
ATOM      7  C   UNL     1       0.316  10.398  18.553  0.00  0.00    +0.000 C 
ATOM      8  O   UNL     1      -0.591   9.983  17.833  0.00  0.00    +0.000 OA
ATOM      9  N   UNL     1       1.485   9.686  18.718  0.00  0.00    +0.000 N 
ATOM     10  H   UNL     1       2.185  10.040  19.353  0.00  0.00    +0.000 HD
BRANCH   7  11
ATOM     11  C   UNL     1       0.286  11.802  19.211  0.00  0.00    +0.000 C 
ATOM     12  C   UNL     1       1.554  12.589  18.912  0.00  0.00    +0.000 C 
BRANCH  11  16
ATOM     13  C   UNL     1      -1.119  11.670  22.731  0.00  0.00    +0.000 C 
ATOM     14  C   UNL     1      -1.128  11.844  21.238  0.00  0.00    +0.000 C 
ATOM     15  O   UNL     1      -2.147  12.084  20.603  0.00  0.00    +0.000 OA
ATOM     16  N   UNL     1       0.112  11.690  20.661  0.00  0.00    +0.000 N 
ATOM     17  H   UNL     1       0.898  11.428  21.240  0.00  0.00    +0.000 HD
ENDBRANCH  11  16
ENDBRANCH   7  11
ENDBRANCH   6   9
ENDBRANCH   2   6
ENDBRANCH   1   4
BRANCH   1  18
ATOM     18  C   UNL     1       4.485   4.599  19.173  0.00  0.00    +0.000 C 
ATOM     19  O   UNL     1       4.937   3.496  19.468  0.00  0.00    +0.000 OA
ATOM     20  N   UNL     1       5.242   5.572  18.552  0.00  0.00    +0.000 N 
ATOM     21  H   UNL     1       4.787   6.385  18.156  0.00  0.00    +0.000 HD
BRANCH  20  22
ATOM     22  C   UNL     1       6.660   5.340  18.191  0.00  0.00    +0.000 C 
BRANCH  22  23
ATOM     23  C   UNL     1       7.665   5.807  19.262  0.00  0.00    +0.000 C 
ATOM     24  N   UNL     1       8.422   6.905  18.989  0.00  0.00    +0.000 N 
ATOM     25  O   UNL     1       7.826   5.205  20.322  0.00  0.00    +0.000 OA
ATOM     26  H   UNL     1       8.058   7.642  18.394  0.00  0.00    +0.000 HD
ATOM     27  H   UNL     1       8.984   7.237  19.766  0.00  0.00    +0.000 HD
ENDBRANCH  22  23
BRANCH  22  28
ATOM     28  C   UNL     1       7.067   6.027  16.864  0.00  0.00    +0.000 C 
BRANCH  28  29
ATOM     29  C   UNL     1       6.776   5.177  15.652  0.00  0.00    +0.000 A 
ATOM     30  C   UNL     1       7.608   5.245  14.525  0.00  0.00    +0.000 A 
ATOM     31  C   UNL     1       7.252   4.579  13.351  0.00  0.00    +0.000 A 
ATOM     32  C   UNL     1       6.082   3.828  13.318  0.00  0.00    +0.000 A 
ATOM     33  C   UNL     1       5.290   3.687  14.449  0.00  0.00    +0.000 A 
ATOM     34  C   UNL     1       5.646   4.349  15.621  0.00  0.00    +0.000 A 
BRANCH  32  35
ATOM     35  O   UNL     1       5.667   3.212  12.174  0.00  0.00    +0.000 OA
ATOM     36  H   UNL     1       4.897   2.659  12.386  0.00  0.00    +0.000 HD
ENDBRANCH  32  35
ENDBRANCH  28  29
ENDBRANCH  22  28
ENDBRANCH  20  22
ENDBRANCH   1  18
BRANCH   1  37
ATOM     37  C   UNL     1       2.170   3.756  19.543  0.00  0.00    +0.000 C 
BRANCH  37  38
ATOM     38  C   UNL     1       1.888   3.232  18.152  0.00  0.00    +0.000 C 
ATOM     39  N   UNL     1       2.424   2.017  17.827  0.00  0.00    +0.000 N 
ATOM     40  O   UNL     1       1.240   3.869  17.338  0.00  0.00    +0.000 OA
ATOM     41  H   UNL     1       2.659   1.323  18.531  0.00  0.00    +0.000 HD
ATOM     42  H   UNL     1       2.254   1.652  16.901  0.00  0.00    +0.000 HD
ENDBRANCH  37  38
ENDBRANCH   1  37
TORSDOF 13
ENDMDL
MODEL 3
REMARK VINA RESULT:      -7.5      5.044      9.332
REMARK  Name = 
REMARK  15 active torsions:
REMARK  status: ('A' for Active; 'I' for Inactive)
REMARK    1  A    between atoms: C_1  and  C_2
REMARK    2  A    between atoms: N_4  and  C_5
REMARK    3  A    between atoms: C_5  and  C_6
REMARK    4  A    between atoms: C_5  and  C_7
REMARK    5  A    between atoms: N_9  and  C_10
REMARK    6  A    between atoms: C_10  and  C_11
REMARK    7  A    between atoms: N_13  and  C_14
REMARK    8  A    between atoms: C_14  and  C_15
REMARK    9  A    between atoms: C_14  and  C_19
REMARK   10  A    between atoms: C_15  and  C_16
REMARK   11  A    between atoms: N_21  and  C_22
REMARK   12  A    between atoms: C_22  and  C_23
REMARK   13  A    between atoms: C_22  and  C_31
REMARK   14  A    between atoms: C_23  and  C_24
REMARK   15  A    between atoms: C_27  and  O_28
REMARK                            x       y       z     vdW  Elec       q    Type
REMARK                         _______ _______ _______ _____ _____    ______ ____
ROOT
ATOM      1  C   UNL     1       7.044   6.314  17.766  0.00  0.00    +0.000 C 
ENDROOT
BRANCH   1   4
ATOM      2  C   UNL     1       7.986   8.631  18.021  0.00  0.00    +0.000 C 
ATOM      3  O   UNL     1       7.176   9.120  17.236  0.00  0.00    +0.000 OA
ATOM      4  N   UNL     1       8.007   7.286  18.319  0.00  0.00    +0.000 N 
ATOM      5  H   UNL     1       8.674   6.932  19.005  0.00  0.00    +0.000 HD
BRANCH   2   6
ATOM      6  C   UNL     1       9.105   9.478  18.661  0.00  0.00    +0.000 C 
BRANCH   6   9
ATOM      7  C   UNL     1      10.357  11.562  18.172  0.00  0.00    +0.000 C 
ATOM      8  O   UNL     1      11.317  11.184  18.840  0.00  0.00    +0.000 OA
ATOM      9  N   UNL     1       9.200  10.817  18.093  0.00  0.00    +0.000 N 
ATOM     10  H   UNL     1       8.451  11.141  17.497  0.00  0.00    +0.000 HD
BRANCH   7  11
ATOM     11  C   UNL     1      10.308  12.954  17.491  0.00  0.00    +0.000 C 
ATOM     12  C   UNL     1      11.611  13.273  16.772  0.00  0.00    +0.000 C 
BRANCH  11  16
ATOM     13  C   UNL     1       8.634  15.381  19.876  0.00  0.00    +0.000 C 
ATOM     14  C   UNL     1       8.731  14.299  18.838  0.00  0.00    +0.000 C 
ATOM     15  O   UNL     1       7.749  13.732  18.376  0.00  0.00    +0.000 OA
ATOM     16  N   UNL     1      10.024  14.001  18.475  0.00  0.00    +0.000 N 
ATOM     17  H   UNL     1      10.790  14.465  18.946  0.00  0.00    +0.000 HD
ENDBRANCH  11  16
ENDBRANCH   7  11
ENDBRANCH   6   9
ENDBRANCH   2   6
ENDBRANCH   1   4
BRANCH   1  18
ATOM     18  C   UNL     1       6.303   5.570  18.898  0.00  0.00    +0.000 C 
ATOM     19  O   UNL     1       6.861   5.326  19.964  0.00  0.00    +0.000 OA
ATOM     20  N   UNL     1       5.031   5.121  18.603  0.00  0.00    +0.000 N 
ATOM     21  H   UNL     1       4.538   5.502  17.805  0.00  0.00    +0.000 HD
BRANCH  20  22
ATOM     22  C   UNL     1       4.249   4.316  19.569  0.00  0.00    +0.000 C 
BRANCH  22  23
ATOM     23  C   UNL     1       4.394   2.793  19.379  0.00  0.00    +0.000 C 
ATOM     24  N   UNL     1       4.176   2.282  18.136  0.00  0.00    +0.000 N 
ATOM     25  O   UNL     1       4.662   2.035  20.310  0.00  0.00    +0.000 OA
ATOM     26  H   UNL     1       4.380   2.837  17.311  0.00  0.00    +0.000 HD
ATOM     27  H   UNL     1       4.393   1.296  18.038  0.00  0.00    +0.000 HD
ENDBRANCH  22  23
BRANCH  22  28
ATOM     28  C   UNL     1       2.733   4.629  19.532  0.00  0.00    +0.000 C 
BRANCH  28  29
ATOM     29  C   UNL     1       2.444   6.105  19.405  0.00  0.00    +0.000 A 
ATOM     30  C   UNL     1       1.990   6.833  20.514  0.00  0.00    +0.000 A 
ATOM     31  C   UNL     1       1.574   8.157  20.360  0.00  0.00    +0.000 A 
ATOM     32  C   UNL     1       1.641   8.753  19.105  0.00  0.00    +0.000 A 
ATOM     33  C   UNL     1       2.162   8.071  18.015  0.00  0.00    +0.000 A 
ATOM     34  C   UNL     1       2.579   6.751  18.169  0.00  0.00    +0.000 A 
BRANCH  32  35
ATOM     35  O   UNL     1       1.189  10.023  18.898  0.00  0.00    +0.000 OA
ATOM     36  H   UNL     1       1.538  10.338  18.049  0.00  0.00    +0.000 HD
ENDBRANCH  32  35
ENDBRANCH  28  29
ENDBRANCH  22  28
ENDBRANCH  20  22
ENDBRANCH   1  18
BRANCH   1  37
ATOM     37  C   UNL     1       7.690   5.269  16.850  0.00  0.00    +0.000 C 
BRANCH  37  38
ATOM     38  C   UNL     1       6.773   4.720  15.780  0.00  0.00    +0.000 C 
ATOM     39  N   UNL     1       6.712   5.410  14.601  0.00  0.00    +0.000 N 
ATOM     40  O   UNL     1       6.089   3.726  15.960  0.00  0.00    +0.000 OA
ATOM     41  H   UNL     1       7.473   6.004  14.282  0.00  0.00    +0.000 HD
ATOM     42  H   UNL     1       6.100   5.065  13.875  0.00  0.00    +0.000 HD
ENDBRANCH  37  38
ENDBRANCH   1  37
TORSDOF 13
ENDMDL
MODEL 4
REMARK VINA RESULT:      -7.5      2.842      4.586
REMARK  Name = 
REMARK  15 active torsions:
REMARK  status: ('A' for Active; 'I' for Inactive)
REMARK    1  A    between atoms: C_1  and  C_2
REMARK    2  A    between atoms: N_4  and  C_5
REMARK    3  A    between atoms: C_5  and  C_6
REMARK    4  A    between atoms: C_5  and  C_7
REMARK    5  A    between atoms: N_9  and  C_10
REMARK    6  A    between atoms: C_10  and  C_11
REMARK    7  A    between atoms: N_13  and  C_14
REMARK    8  A    between atoms: C_14  and  C_15
REMARK    9  A    between atoms: C_14  and  C_19
REMARK   10  A    between atoms: C_15  and  C_16
REMARK   11  A    between atoms: N_21  and  C_22
REMARK   12  A    between atoms: C_22  and  C_23
REMARK   13  A    between atoms: C_22  and  C_31
REMARK   14  A    between atoms: C_23  and  C_24
REMARK   15  A    between atoms: C_27  and  O_28
REMARK                            x       y       z     vdW  Elec       q    Type
REMARK                         _______ _______ _______ _____ _____    ______ ____
ROOT
ATOM      1  C   UNL     1       2.465   6.285  19.655  0.00  0.00    +0.000 C 
ENDROOT
BRANCH   1   4
ATOM      2  C   UNL     1       2.523   8.274  18.118  0.00  0.00    +0.000 C 
ATOM      3  O   UNL     1       3.476   7.836  17.476  0.00  0.00    +0.000 OA
ATOM      4  N   UNL     1       1.985   7.603  19.195  0.00  0.00    +0.000 N 
ATOM      5  H   UNL     1       1.172   7.988  19.674  0.00  0.00    +0.000 HD
BRANCH   2   6
ATOM      6  C   UNL     1       1.917   9.661  17.821  0.00  0.00    +0.000 C 
BRANCH   6   9
ATOM      7  C   UNL     1       0.601  11.110  19.343  0.00  0.00    +0.000 C 
ATOM      8  O   UNL     1       1.535  11.902  19.455  0.00  0.00    +0.000 OA
ATOM      9  N   UNL     1       0.731   9.945  18.618  0.00  0.00    +0.000 N 
ATOM     10  H   UNL     1      -0.074   9.344  18.514  0.00  0.00    +0.000 HD
BRANCH   7  11
ATOM     11  C   UNL     1      -0.733  11.277  20.114  0.00  0.00    +0.000 C 
ATOM     12  C   UNL     1      -1.293  12.685  19.969  0.00  0.00    +0.000 C 
BRANCH  11  16
ATOM     13  C   UNL     1      -0.118   9.558  23.438  0.00  0.00    +0.000 C 
ATOM     14  C   UNL     1      -0.301   9.681  21.952  0.00  0.00    +0.000 C 
ATOM     15  O   UNL     1      -0.219   8.725  21.191  0.00  0.00    +0.000 OA
ATOM     16  N   UNL     1      -0.552  10.968  21.535  0.00  0.00    +0.000 N 
ATOM     17  H   UNL     1      -0.542  11.719  22.212  0.00  0.00    +0.000 HD
ENDBRANCH  11  16
ENDBRANCH   7  11
ENDBRANCH   6   9
ENDBRANCH   2   6
ENDBRANCH   1   4
BRANCH   1  18
ATOM     18  C   UNL     1       2.498   5.275  18.488  0.00  0.00    +0.000 C 
ATOM     19  O   UNL     1       1.485   5.023  17.842  0.00  0.00    +0.000 OA
ATOM     20  N   UNL     1       3.693   4.615  18.285  0.00  0.00    +0.000 N 
ATOM     21  H   UNL     1       4.544   4.980  18.697  0.00  0.00    +0.000 HD
BRANCH  20  22
ATOM     22  C   UNL     1       3.831   3.556  17.259  0.00  0.00    +0.000 C 
BRANCH  22  23
ATOM     23  C   UNL     1       3.403   2.156  17.740  0.00  0.00    +0.000 C 
ATOM     24  N   UNL     1       2.072   1.870  17.767  0.00  0.00    +0.000 N 
ATOM     25  O   UNL     1       4.213   1.316  18.128  0.00  0.00    +0.000 OA
ATOM     26  H   UNL     1       1.442   2.304  17.100  0.00  0.00    +0.000 HD
ATOM     27  H   UNL     1       1.849   0.904  17.982  0.00  0.00    +0.000 HD
ENDBRANCH  22  23
BRANCH  22  28
ATOM     28  C   UNL     1       5.276   3.421  16.718  0.00  0.00    +0.000 C 
BRANCH  28  29
ATOM     29  C   UNL     1       6.136   4.618  17.043  0.00  0.00    +0.000 A 
ATOM     30  C   UNL     1       7.007   4.584  18.141  0.00  0.00    +0.000 A 
ATOM     31  C   UNL     1       7.684   5.740  18.534  0.00  0.00    +0.000 A 
ATOM     32  C   UNL     1       7.508   6.914  17.810  0.00  0.00    +0.000 A 
ATOM     33  C   UNL     1       6.712   6.943  16.674  0.00  0.00    +0.000 A 
ATOM     34  C   UNL     1       6.038   5.789  16.281  0.00  0.00    +0.000 A 
BRANCH  32  35
ATOM     35  O   UNL     1       8.103   8.080  18.194  0.00  0.00    +0.000 OA
ATOM     36  H   UNL     1       8.600   8.434  17.439  0.00  0.00    +0.000 HD
ENDBRANCH  32  35
ENDBRANCH  28  29
ENDBRANCH  22  28
ENDBRANCH  20  22
ENDBRANCH   1  18
BRANCH   1  37
ATOM     37  C   UNL     1       1.617   5.687  20.782  0.00  0.00    +0.000 C 
BRANCH  37  38
ATOM     38  C   UNL     1       1.682   4.179  20.883  0.00  0.00    +0.000 C 
ATOM     39  N   UNL     1       0.565   3.485  20.509  0.00  0.00    +0.000 N 
ATOM     40  O   UNL     1       2.667   3.599  21.308  0.00  0.00    +0.000 OA
ATOM     41  H   UNL     1      -0.115   3.864  19.856  0.00  0.00    +0.000 HD
ATOM     42  H   UNL     1       0.584   2.477  20.575  0.00  0.00    +0.000 HD
ENDBRANCH  37  38
ENDBRANCH   1  37
TORSDOF 13
ENDMDL
MODEL 5
REMARK VINA RESULT:      -7.4      2.613      5.618
REMARK  Name = 
REMARK  15 active torsions:
REMARK  status: ('A' for Active; 'I' for Inactive)
REMARK    1  A    between atoms: C_1  and  C_2
REMARK    2  A    between atoms: N_4  and  C_5
REMARK    3  A    between atoms: C_5  and  C_6
REMARK    4  A    between atoms: C_5  and  C_7
REMARK    5  A    between atoms: N_9  and  C_10
REMARK    6  A    between atoms: C_10  and  C_11
REMARK    7  A    between atoms: N_13  and  C_14
REMARK    8  A    between atoms: C_14  and  C_15
REMARK    9  A    between atoms: C_14  and  C_19
REMARK   10  A    between atoms: C_15  and  C_16
REMARK   11  A    between atoms: N_21  and  C_22
REMARK   12  A    between atoms: C_22  and  C_23
REMARK   13  A    between atoms: C_22  and  C_31
REMARK   14  A    between atoms: C_23  and  C_24
REMARK   15  A    between atoms: C_27  and  O_28
REMARK                            x       y       z     vdW  Elec       q    Type
REMARK                         _______ _______ _______ _____ _____    ______ ____
ROOT
ATOM      1  C   UNL     1       3.245   4.342  19.451  0.00  0.00    +0.000 C 
ENDROOT
BRANCH   1   4
ATOM      2  C   UNL     1       1.783   6.060  20.562  0.00  0.00    +0.000 C 
ATOM      3  O   UNL     1       0.865   5.262  20.741  0.00  0.00    +0.000 OA
ATOM      4  N   UNL     1       2.957   5.708  19.931  0.00  0.00    +0.000 N 
ATOM      5  H   UNL     1       3.705   6.395  19.837  0.00  0.00    +0.000 HD
BRANCH   2   6
ATOM      6  C   UNL     1       1.649   7.548  20.948  0.00  0.00    +0.000 C 
BRANCH   6   9
ATOM      7  C   UNL     1       1.157   9.751  19.922  0.00  0.00    +0.000 C 
ATOM      8  O   UNL     1       0.829  10.224  21.009  0.00  0.00    +0.000 OA
ATOM      9  N   UNL     1       1.502   8.423  19.791  0.00  0.00    +0.000 N 
ATOM     10  H   UNL     1       1.809   8.086  18.890  0.00  0.00    +0.000 HD
BRANCH   7  11
ATOM     11  C   UNL     1       1.072  10.556  18.600  0.00  0.00    +0.000 C 
ATOM     12  C   UNL     1       0.936  12.050  18.860  0.00  0.00    +0.000 C 
BRANCH  11  16
ATOM     13  C   UNL     1      -2.378   9.854  17.189  0.00  0.00    +0.000 C 
ATOM     14  C   UNL     1      -1.354  10.381  18.154  0.00  0.00    +0.000 C 
ATOM     15  O   UNL     1      -1.651  11.014  19.159  0.00  0.00    +0.000 OA
ATOM     16  N   UNL     1      -0.057  10.098  17.787  0.00  0.00    +0.000 N 
ATOM     17  H   UNL     1       0.117   9.627  16.910  0.00  0.00    +0.000 HD
ENDBRANCH  11  16
ENDBRANCH   7  11
ENDBRANCH   6   9
ENDBRANCH   2   6
ENDBRANCH   1   4
BRANCH   1  18
ATOM     18  C   UNL     1       4.745   4.182  19.121  0.00  0.00    +0.000 C 
ATOM     19  O   UNL     1       5.387   3.227  19.548  0.00  0.00    +0.000 OA
ATOM     20  N   UNL     1       5.327   5.213  18.410  0.00  0.00    +0.000 N 
ATOM     21  H   UNL     1       4.741   5.874  17.915  0.00  0.00    +0.000 HD
BRANCH  20  22
ATOM     22  C   UNL     1       6.777   5.226  18.109  0.00  0.00    +0.000 C 
BRANCH  22  23
ATOM     23  C   UNL     1       7.641   5.872  19.209  0.00  0.00    +0.000 C 
ATOM     24  N   UNL     1       8.326   7.008  18.898  0.00  0.00    +0.000 N 
ATOM     25  O   UNL     1       7.757   5.381  20.331  0.00  0.00    +0.000 OA
ATOM     26  H   UNL     1       7.956   7.655  18.208  0.00  0.00    +0.000 HD
ATOM     27  H   UNL     1       8.786   7.454  19.683  0.00  0.00    +0.000 HD
ENDBRANCH  22  23
BRANCH  22  28
ATOM     28  C   UNL     1       7.114   5.958  16.787  0.00  0.00    +0.000 C 
BRANCH  28  29
ATOM     29  C   UNL     1       6.813   5.126  15.564  0.00  0.00    +0.000 A 
ATOM     30  C   UNL     1       7.615   5.237  14.420  0.00  0.00    +0.000 A 
ATOM     31  C   UNL     1       7.247   4.587  13.241  0.00  0.00    +0.000 A 
ATOM     32  C   UNL     1       6.094   3.810  13.220  0.00  0.00    +0.000 A 
ATOM     33  C   UNL     1       5.332   3.627  14.366  0.00  0.00    +0.000 A 
ATOM     34  C   UNL     1       5.702   4.273  15.543  0.00  0.00    +0.000 A 
BRANCH  32  35
ATOM     35  O   UNL     1       5.665   3.207  12.074  0.00  0.00    +0.000 OA
ATOM     36  H   UNL     1       6.440   3.001  11.527  0.00  0.00    +0.000 HD
ENDBRANCH  32  35
ENDBRANCH  28  29
ENDBRANCH  22  28
ENDBRANCH  20  22
ENDBRANCH   1  18
BRANCH   1  37
ATOM     37  C   UNL     1       2.437   3.949  18.211  0.00  0.00    +0.000 C 
BRANCH  37  38
ATOM     38  C   UNL     1       1.760   2.599  18.305  0.00  0.00    +0.000 C 
ATOM     39  N   UNL     1       2.562   1.496  18.215  0.00  0.00    +0.000 N 
ATOM     40  O   UNL     1       0.551   2.487  18.425  0.00  0.00    +0.000 OA
ATOM     41  H   UNL     1       3.549   1.523  18.455  0.00  0.00    +0.000 HD
ATOM     42  H   UNL     1       2.129   0.584  18.269  0.00  0.00    +0.000 HD
ENDBRANCH  37  38
ENDBRANCH   1  37
TORSDOF 13
ENDMDL
MODEL 6
REMARK VINA RESULT:      -7.3      2.941      5.561
REMARK  Name = 
REMARK  15 active torsions:
REMARK  status: ('A' for Active; 'I' for Inactive)
REMARK    1  A    between atoms: C_1  and  C_2
REMARK    2  A    between atoms: N_4  and  C_5
REMARK    3  A    between atoms: C_5  and  C_6
REMARK    4  A    between atoms: C_5  and  C_7
REMARK    5  A    between atoms: N_9  and  C_10
REMARK    6  A    between atoms: C_10  and  C_11
REMARK    7  A    between atoms: N_13  and  C_14
REMARK    8  A    between atoms: C_14  and  C_15
REMARK    9  A    between atoms: C_14  and  C_19
REMARK   10  A    between atoms: C_15  and  C_16
REMARK   11  A    between atoms: N_21  and  C_22
REMARK   12  A    between atoms: C_22  and  C_23
REMARK   13  A    between atoms: C_22  and  C_31
REMARK   14  A    between atoms: C_23  and  C_24
REMARK   15  A    between atoms: C_27  and  O_28
REMARK                            x       y       z     vdW  Elec       q    Type
REMARK                         _______ _______ _______ _____ _____    ______ ____
ROOT
ATOM      1  C   UNL     1       3.235   5.412  19.128  0.00  0.00    +0.000 C 
ENDROOT
BRANCH   1   4
ATOM      2  C   UNL     1       2.290   7.726  18.851  0.00  0.00    +0.000 C 
ATOM      3  O   UNL     1       2.011   7.829  20.044  0.00  0.00    +0.000 OA
ATOM      4  N   UNL     1       2.863   6.590  18.320  0.00  0.00    +0.000 N 
ATOM      5  H   UNL     1       3.111   6.564  17.331  0.00  0.00    +0.000 HD
BRANCH   2   6
ATOM      6  C   UNL     1       1.931   8.832  17.837  0.00  0.00    +0.000 C 
BRANCH   6   9
ATOM      7  C   UNL     1       0.317  10.561  18.581  0.00  0.00    +0.000 C 
ATOM      8  O   UNL     1      -0.615   9.980  18.028  0.00  0.00    +0.000 OA
ATOM      9  N   UNL     1       1.613  10.103  18.474  0.00  0.00    +0.000 N 
ATOM     10  H   UNL     1       2.343  10.584  18.980  0.00  0.00    +0.000 HD
BRANCH   7  11
ATOM     11  C   UNL     1       0.142  11.917  19.312  0.00  0.00    +0.000 C 
ATOM     12  C   UNL     1      -1.035  12.707  18.756  0.00  0.00    +0.000 C 
BRANCH  11  16
ATOM     13  C   UNL     1       3.175  14.076  20.032  0.00  0.00    +0.000 C 
ATOM     14  C   UNL     1       1.914  13.312  20.323  0.00  0.00    +0.000 C 
ATOM     15  O   UNL     1       1.441  13.215  21.448  0.00  0.00    +0.000 OA
ATOM     16  N   UNL     1       1.361  12.722  19.210  0.00  0.00    +0.000 N 
ATOM     17  H   UNL     1       1.842  12.790  18.323  0.00  0.00    +0.000 HD
ENDBRANCH  11  16
ENDBRANCH   7  11
ENDBRANCH   6   9
ENDBRANCH   2   6
ENDBRANCH   1   4
BRANCH   1  18
ATOM     18  C   UNL     1       4.697   4.999  18.856  0.00  0.00    +0.000 C 
ATOM     19  O   UNL     1       5.199   4.037  19.430  0.00  0.00    +0.000 OA
ATOM     20  N   UNL     1       5.418   5.825  18.016  0.00  0.00    +0.000 N 
ATOM     21  H   UNL     1       4.931   6.481  17.419  0.00  0.00    +0.000 HD
BRANCH  20  22
ATOM     22  C   UNL     1       6.856   5.592  17.746  0.00  0.00    +0.000 C 
BRANCH  22  23
ATOM     23  C   UNL     1       7.799   6.183  18.813  0.00  0.00    +0.000 C 
ATOM     24  N   UNL     1       8.032   5.448  19.935  0.00  0.00    +0.000 N 
ATOM     25  O   UNL     1       8.309   7.296  18.698  0.00  0.00    +0.000 OA
ATOM     26  H   UNL     1       8.013   4.434  19.896  0.00  0.00    +0.000 HD
ATOM     27  H   UNL     1       8.743   5.827  20.550  0.00  0.00    +0.000 HD
ENDBRANCH  22  23
BRANCH  22  28
ATOM     28  C   UNL     1       7.315   6.158  16.380  0.00  0.00    +0.000 C 
BRANCH  28  29
ATOM     29  C   UNL     1       6.852   5.319  15.214  0.00  0.00    +0.000 A 
ATOM     30  C   UNL     1       5.770   4.440  15.361  0.00  0.00    +0.000 A 
ATOM     31  C   UNL     1       5.443   3.554  14.334  0.00  0.00    +0.000 A 
ATOM     32  C   UNL     1       6.182   3.570  13.156  0.00  0.00    +0.000 A 
ATOM     33  C   UNL     1       7.205   4.488  12.964  0.00  0.00    +0.000 A 
ATOM     34  C   UNL     1       7.530   5.374  13.989  0.00  0.00    +0.000 A 
BRANCH  32  35
ATOM     35  O   UNL     1       5.935   2.680  12.151  0.00  0.00    +0.000 OA
ATOM     36  H   UNL     1       6.310   1.821  12.404  0.00  0.00    +0.000 HD
ENDBRANCH  32  35
ENDBRANCH  28  29
ENDBRANCH  22  28
ENDBRANCH  20  22
ENDBRANCH   1  18
BRANCH   1  37
ATOM     37  C   UNL     1       2.339   4.195  18.879  0.00  0.00    +0.000 C 
BRANCH  37  38
ATOM     38  C   UNL     1       1.817   3.533  20.135  0.00  0.00    +0.000 C 
ATOM     39  N   UNL     1       2.619   2.593  20.721  0.00  0.00    +0.000 N 
ATOM     40  O   UNL     1       0.718   3.793  20.597  0.00  0.00    +0.000 OA
ATOM     41  H   UNL     1       3.627   2.589  20.595  0.00  0.00    +0.000 HD
ATOM     42  H   UNL     1       2.287   2.134  21.557  0.00  0.00    +0.000 HD
ENDBRANCH  37  38
ENDBRANCH   1  37
TORSDOF 13
ENDMDL
MODEL 7
REMARK VINA RESULT:      -7.2      2.945      5.115
REMARK  Name = 
REMARK  15 active torsions:
REMARK  status: ('A' for Active; 'I' for Inactive)
REMARK    1  A    between atoms: C_1  and  C_2
REMARK    2  A    between atoms: N_4  and  C_5
REMARK    3  A    between atoms: C_5  and  C_6
REMARK    4  A    between atoms: C_5  and  C_7
REMARK    5  A    between atoms: N_9  and  C_10
REMARK    6  A    between atoms: C_10  and  C_11
REMARK    7  A    between atoms: N_13  and  C_14
REMARK    8  A    between atoms: C_14  and  C_15
REMARK    9  A    between atoms: C_14  and  C_19
REMARK   10  A    between atoms: C_15  and  C_16
REMARK   11  A    between atoms: N_21  and  C_22
REMARK   12  A    between atoms: C_22  and  C_23
REMARK   13  A    between atoms: C_22  and  C_31
REMARK   14  A    between atoms: C_23  and  C_24
REMARK   15  A    between atoms: C_27  and  O_28
REMARK                            x       y       z     vdW  Elec       q    Type
REMARK                         _______ _______ _______ _____ _____    ______ ____
ROOT
ATOM      1  C   UNL     1       2.895   5.617  18.801  0.00  0.00    +0.000 C 
ENDROOT
BRANCH   1   4
ATOM      2  C   UNL     1       2.067   7.991  18.842  0.00  0.00    +0.000 C 
ATOM      3  O   UNL     1       1.962   8.005  20.067  0.00  0.00    +0.000 OA
ATOM      4  N   UNL     1       2.489   6.877  18.148  0.00  0.00    +0.000 N 
ATOM      5  H   UNL     1       2.596   6.925  17.135  0.00  0.00    +0.000 HD
BRANCH   2   6
ATOM      6  C   UNL     1       1.640   9.197  17.979  0.00  0.00    +0.000 C 
BRANCH   6   9
ATOM      7  C   UNL     1       0.064  10.709  19.153  0.00  0.00    +0.000 C 
ATOM      8  O   UNL     1      -0.907  10.081  18.733  0.00  0.00    +0.000 OA
ATOM      9  N   UNL     1       1.348  10.385  18.770  0.00  0.00    +0.000 N 
ATOM     10  H   UNL     1       2.120  10.897  19.173  0.00  0.00    +0.000 HD
BRANCH   7  11
ATOM     11  C   UNL     1      -0.078  11.988  20.017  0.00  0.00    +0.000 C 
ATOM     12  C   UNL     1       1.267  12.663  20.245  0.00  0.00    +0.000 C 
BRANCH  11  16
ATOM     13  C   UNL     1      -2.281  11.911  23.103  0.00  0.00    +0.000 C 
ATOM     14  C   UNL     1      -1.770  12.391  21.774  0.00  0.00    +0.000 C 
ATOM     15  O   UNL     1      -2.280  13.321  21.162  0.00  0.00    +0.000 OA
ATOM     16  N   UNL     1      -0.691  11.673  21.310  0.00  0.00    +0.000 N 
ATOM     17  H   UNL     1      -0.363  10.876  21.837  0.00  0.00    +0.000 HD
ENDBRANCH  11  16
ENDBRANCH   7  11
ENDBRANCH   6   9
ENDBRANCH   2   6
ENDBRANCH   1   4
BRANCH   1  18
ATOM     18  C   UNL     1       3.983   4.898  17.975  0.00  0.00    +0.000 C 
ATOM     19  O   UNL     1       3.785   3.781  17.505  0.00  0.00    +0.000 OA
ATOM     20  N   UNL     1       5.204   5.537  17.885  0.00  0.00    +0.000 N 
ATOM     21  H   UNL     1       5.272   6.522  18.110  0.00  0.00    +0.000 HD
BRANCH  20  22
ATOM     22  C   UNL     1       6.358   4.912  17.200  0.00  0.00    +0.000 C 
BRANCH  22  23
ATOM     23  C   UNL     1       7.595   4.722  18.100  0.00  0.00    +0.000 C 
ATOM     24  N   UNL     1       7.613   5.362  19.302  0.00  0.00    +0.000 N 
ATOM     25  O   UNL     1       8.565   4.050  17.755  0.00  0.00    +0.000 OA
ATOM     26  H   UNL     1       6.746   5.543  19.799  0.00  0.00    +0.000 HD
ATOM     27  H   UNL     1       8.393   5.116  19.902  0.00  0.00    +0.000 HD
ENDBRANCH  22  23
BRANCH  22  28
ATOM     28  C   UNL     1       6.828   5.706  15.957  0.00  0.00    +0.000 C 
BRANCH  28  29
ATOM     29  C   UNL     1       6.542   4.988  14.661  0.00  0.00    +0.000 A 
ATOM     30  C   UNL     1       5.335   4.295  14.489  0.00  0.00    +0.000 A 
ATOM     31  C   UNL     1       5.137   3.504  13.357  0.00  0.00    +0.000 A 
ATOM     32  C   UNL     1       6.134   3.431  12.390  0.00  0.00    +0.000 A 
ATOM     33  C   UNL     1       7.301   4.173  12.508  0.00  0.00    +0.000 A 
ATOM     34  C   UNL     1       7.497   4.965  13.637  0.00  0.00    +0.000 A 
BRANCH  32  35
ATOM     35  O   UNL     1       6.006   2.623  11.298  0.00  0.00    +0.000 OA
ATOM     36  H   UNL     1       5.190   2.106  11.393  0.00  0.00    +0.000 HD
ENDBRANCH  32  35
ENDBRANCH  28  29
ENDBRANCH  22  28
ENDBRANCH  20  22
ENDBRANCH   1  18
BRANCH   1  37
ATOM     37  C   UNL     1       1.735   4.641  19.017  0.00  0.00    +0.000 C 
BRANCH  37  38
ATOM     38  C   UNL     1       1.607   4.122  20.432  0.00  0.00    +0.000 C 
ATOM     39  N   UNL     1       2.320   4.775  21.399  0.00  0.00    +0.000 N 
ATOM     40  O   UNL     1       0.928   3.147  20.706  0.00  0.00    +0.000 OA
ATOM     41  H   UNL     1       2.605   5.746  21.298  0.00  0.00    +0.000 HD
ATOM     42  H   UNL     1       2.255   4.441  22.350  0.00  0.00    +0.000 HD
ENDBRANCH  37  38
ENDBRANCH   1  37
TORSDOF 13
ENDMDL
MODEL 8
REMARK VINA RESULT:      -7.1      3.694      8.790
REMARK  Name = 
REMARK  15 active torsions:
REMARK  status: ('A' for Active; 'I' for Inactive)
REMARK    1  A    between atoms: C_1  and  C_2
REMARK    2  A    between atoms: N_4  and  C_5
REMARK    3  A    between atoms: C_5  and  C_6
REMARK    4  A    between atoms: C_5  and  C_7
REMARK    5  A    between atoms: N_9  and  C_10
REMARK    6  A    between atoms: C_10  and  C_11
REMARK    7  A    between atoms: N_13  and  C_14
REMARK    8  A    between atoms: C_14  and  C_15
REMARK    9  A    between atoms: C_14  and  C_19
REMARK   10  A    between atoms: C_15  and  C_16
REMARK   11  A    between atoms: N_21  and  C_22
REMARK   12  A    between atoms: C_22  and  C_23
REMARK   13  A    between atoms: C_22  and  C_31
REMARK   14  A    between atoms: C_23  and  C_24
REMARK   15  A    between atoms: C_27  and  O_28
REMARK                            x       y       z     vdW  Elec       q    Type
REMARK                         _______ _______ _______ _____ _____    ______ ____
ROOT
ATOM      1  C   UNL     1       1.933   5.319  19.682  0.00  0.00    +0.000 C 
ENDROOT
BRANCH   1   4
ATOM      2  C   UNL     1       3.760   3.740  18.980  0.00  0.00    +0.000 C 
ATOM      3  O   UNL     1       3.051   3.183  18.144  0.00  0.00    +0.000 OA
ATOM      4  N   UNL     1       3.298   4.764  19.778  0.00  0.00    +0.000 N 
ATOM      5  H   UNL     1       3.933   5.221  20.432  0.00  0.00    +0.000 HD
BRANCH   2   6
ATOM      6  C   UNL     1       5.201   3.267  19.264  0.00  0.00    +0.000 C 
BRANCH   6   9
ATOM      7  C   UNL     1       6.468   5.266  18.527  0.00  0.00    +0.000 C 
ATOM      8  O   UNL     1       5.801   6.001  19.253  0.00  0.00    +0.000 OA
ATOM      9  N   UNL     1       6.190   3.921  18.417  0.00  0.00    +0.000 N 
ATOM     10  H   UNL     1       6.791   3.344  17.845  0.00  0.00    +0.000 HD
BRANCH   7  11
ATOM     11  C   UNL     1       7.568   5.805  17.577  0.00  0.00    +0.000 C 
ATOM     12  C   UNL     1       7.469   7.314  17.402  0.00  0.00    +0.000 C 
BRANCH  11  16
ATOM     13  C   UNL     1       6.421   4.487  14.211  0.00  0.00    +0.000 C 
ATOM     14  C   UNL     1       6.315   5.181  15.540  0.00  0.00    +0.000 C 
ATOM     15  O   UNL     1       5.288   5.727  15.924  0.00  0.00    +0.000 OA
ATOM     16  N   UNL     1       7.483   5.156  16.267  0.00  0.00    +0.000 N 
ATOM     17  H   UNL     1       8.311   4.743  15.859  0.00  0.00    +0.000 HD
ENDBRANCH  11  16
ENDBRANCH   7  11
ENDBRANCH   6   9
ENDBRANCH   2   6
ENDBRANCH   1   4
BRANCH   1  18
ATOM     18  C   UNL     1       1.953   6.855  19.838  0.00  0.00    +0.000 C 
ATOM     19  O   UNL     1       2.693   7.551  19.149  0.00  0.00    +0.000 OA
ATOM     20  N   UNL     1       1.172   7.375  20.851  0.00  0.00    +0.000 N 
ATOM     21  H   UNL     1       0.440   6.808  21.262  0.00  0.00    +0.000 HD
BRANCH  20  22
ATOM     22  C   UNL     1       1.172   8.822  21.166  0.00  0.00    +0.000 C 
BRANCH  22  23
ATOM     23  C   UNL     1       0.709   9.153  22.598  0.00  0.00    +0.000 C 
ATOM     24  N   UNL     1      -0.624   9.088  22.869  0.00  0.00    +0.000 N 
ATOM     25  O   UNL     1       1.492   9.504  23.480  0.00  0.00    +0.000 OA
ATOM     26  H   UNL     1      -1.216   8.432  22.369  0.00  0.00    +0.000 HD
ATOM     27  H   UNL     1      -0.864   9.203  23.847  0.00  0.00    +0.000 HD
ENDBRANCH  22  23
BRANCH  22  28
ATOM     28  C   UNL     1       0.283   9.651  20.206  0.00  0.00    +0.000 C 
BRANCH  28  29
ATOM     29  C   UNL     1       0.984  10.877  19.672  0.00  0.00    +0.000 A 
ATOM     30  C   UNL     1       1.616  10.841  18.421  0.00  0.00    +0.000 A 
ATOM     31  C   UNL     1       2.394  11.920  17.998  0.00  0.00    +0.000 A 
ATOM     32  C   UNL     1       2.514  13.038  18.816  0.00  0.00    +0.000 A 
ATOM     33  C   UNL     1       1.831  13.121  20.021  0.00  0.00    +0.000 A 
ATOM     34  C   UNL     1       1.052  12.046  20.442  0.00  0.00    +0.000 A 
BRANCH  32  35
ATOM     35  O   UNL     1       3.312  14.089  18.468  0.00  0.00    +0.000 OA
ATOM     36  H   UNL     1       2.828  14.912  18.643  0.00  0.00    +0.000 HD
ENDBRANCH  32  35
ENDBRANCH  28  29
ENDBRANCH  22  28
ENDBRANCH  20  22
ENDBRANCH   1  18
BRANCH   1  37
ATOM     37  C   UNL     1       0.966   4.744  20.722  0.00  0.00    +0.000 C 
BRANCH  37  38
ATOM     38  C   UNL     1       1.133   3.263  20.982  0.00  0.00    +0.000 C 
ATOM     39  N   UNL     1       0.617   2.408  20.048  0.00  0.00    +0.000 N 
ATOM     40  O   UNL     1       1.672   2.838  21.990  0.00  0.00    +0.000 OA
ATOM     41  H   UNL     1       0.481   2.683  19.079  0.00  0.00    +0.000 HD
ATOM     42  H   UNL     1       0.712   1.415  20.205  0.00  0.00    +0.000 HD
ENDBRANCH  37  38
ENDBRANCH   1  37
TORSDOF 13
ENDMDL
MODEL 9
REMARK VINA RESULT:      -7.0      2.251      4.119
REMARK  Name = 
REMARK  15 active torsions:
REMARK  status: ('A' for Active; 'I' for Inactive)
REMARK    1  A    between atoms: C_1  and  C_2
REMARK    2  A    between atoms: N_4  and  C_5
REMARK    3  A    between atoms: C_5  and  C_6
REMARK    4  A    between atoms: C_5  and  C_7
REMARK    5  A    between atoms: N_9  and  C_10
REMARK    6  A    between atoms: C_10  and  C_11
REMARK    7  A    between atoms: N_13  and  C_14
REMARK    8  A    between atoms: C_14  and  C_15
REMARK    9  A    between atoms: C_14  and  C_19
REMARK   10  A    between atoms: C_15  and  C_16
REMARK   11  A    between atoms: N_21  and  C_22
REMARK   12  A    between atoms: C_22  and  C_23
REMARK   13  A    between atoms: C_22  and  C_31
REMARK   14  A    between atoms: C_23  and  C_24
REMARK   15  A    between atoms: C_27  and  O_28
REMARK                            x       y       z     vdW  Elec       q    Type
REMARK                         _______ _______ _______ _____ _____    ______ ____
ROOT
ATOM      1  C   UNL     1       2.735   7.110  18.860  0.00  0.00    +0.000 C 
ENDROOT
BRANCH   1   4
ATOM      2  C   UNL     1       1.346   9.193  19.098  0.00  0.00    +0.000 C 
ATOM      3  O   UNL     1       1.037   8.935  20.260  0.00  0.00    +0.000 OA
ATOM      4  N   UNL     1       2.143   8.359  18.343  0.00  0.00    +0.000 N 
ATOM      5  H   UNL     1       2.403   8.632  17.396  0.00  0.00    +0.000 HD
BRANCH   2   6
ATOM      6  C   UNL     1       0.784  10.428  18.366  0.00  0.00    +0.000 C 
BRANCH   6   9
ATOM      7  C   UNL     1      -1.674  10.751  18.292  0.00  0.00    +0.000 C 
ATOM      8  O   UNL     1      -1.659  11.372  19.354  0.00  0.00    +0.000 OA
ATOM      9  N   UNL     1      -0.526  10.189  17.774  0.00  0.00    +0.000 N 
ATOM     10  H   UNL     1      -0.573   9.726  16.878  0.00  0.00    +0.000 HD
BRANCH   7  11
ATOM     11  C   UNL     1      -2.984  10.426  17.531  0.00  0.00    +0.000 C 
ATOM     12  C   UNL     1      -2.705   9.914  16.125  0.00  0.00    +0.000 C 
BRANCH  11  16
ATOM     13  C   UNL     1      -5.887  12.859  17.726  0.00  0.00    +0.000 C 
ATOM     14  C   UNL     1      -5.165  11.547  17.847  0.00  0.00    +0.000 C 
ATOM     15  O   UNL     1      -5.702  10.529  18.266  0.00  0.00    +0.000 OA
ATOM     16  N   UNL     1      -3.846  11.608  17.458  0.00  0.00    +0.000 N 
ATOM     17  H   UNL     1      -3.452  12.497  17.183  0.00  0.00    +0.000 HD
ENDBRANCH  11  16
ENDBRANCH   7  11
ENDBRANCH   6   9
ENDBRANCH   2   6
ENDBRANCH   1   4
BRANCH   1  18
ATOM     18  C   UNL     1       4.014   6.744  18.078  0.00  0.00    +0.000 C 
ATOM     19  O   UNL     1       4.075   6.893  16.861  0.00  0.00    +0.000 OA
ATOM     20  N   UNL     1       5.030   6.159  18.808  0.00  0.00    +0.000 N 
ATOM     21  H   UNL     1       5.026   6.229  19.819  0.00  0.00    +0.000 HD
BRANCH  20  22
ATOM     22  C   UNL     1       6.272   5.677  18.162  0.00  0.00    +0.000 C 
BRANCH  22  23
ATOM     23  C   UNL     1       6.783   6.588  17.027  0.00  0.00    +0.000 C 
ATOM     24  N   UNL     1       6.706   6.120  15.751  0.00  0.00    +0.000 N 
ATOM     25  O   UNL     1       7.282   7.691  17.241  0.00  0.00    +0.000 OA
ATOM     26  H   UNL     1       5.965   5.479  15.485  0.00  0.00    +0.000 HD
ATOM     27  H   UNL     1       6.948   6.796  15.035  0.00  0.00    +0.000 HD
ENDBRANCH  22  23
BRANCH  22  28
ATOM     28  C   UNL     1       6.134   4.255  17.566  0.00  0.00    +0.000 C 
BRANCH  28  29
ATOM     29  C   UNL     1       4.850   3.574  17.971  0.00  0.00    +0.000 A 
ATOM     30  C   UNL     1       4.691   3.084  19.275  0.00  0.00    +0.000 A 
ATOM     31  C   UNL     1       3.571   2.319  19.605  0.00  0.00    +0.000 A 
ATOM     32  C   UNL     1       2.604   2.071  18.637  0.00  0.00    +0.000 A 
ATOM     33  C   UNL     1       2.707   2.615  17.364  0.00  0.00    +0.000 A 
ATOM     34  C   UNL     1       3.824   3.380  17.037  0.00  0.00    +0.000 A 
BRANCH  32  35
ATOM     35  O   UNL     1       1.524   1.279  18.899  0.00  0.00    +0.000 OA
ATOM     36  H   UNL     1       1.835   0.366  19.013  0.00  0.00    +0.000 HD
ENDBRANCH  32  35
ENDBRANCH  28  29
ENDBRANCH  22  28
ENDBRANCH  20  22
ENDBRANCH   1  18
BRANCH   1  37
ATOM     37  C   UNL     1       1.780   5.913  18.802  0.00  0.00    +0.000 C 
BRANCH  37  38
ATOM     38  C   UNL     1       1.572   5.212  20.126  0.00  0.00    +0.000 C 
ATOM     39  N   UNL     1       2.443   5.519  21.134  0.00  0.00    +0.000 N 
ATOM     40  O   UNL     1       0.691   4.384  20.290  0.00  0.00    +0.000 OA
ATOM     41  H   UNL     1       2.944   6.403  21.166  0.00  0.00    +0.000 HD
ATOM     42  H   UNL     1       2.327   5.057  22.025  0.00  0.00    +0.000 HD
ENDBRANCH  37  38
ENDBRANCH   1  37
TORSDOF 13
ENDMDL
