MODEL 1
REMARK VINA RESULT:      -7.9      0.000      0.000
REMARK  Name = 
REMARK  6 active torsions:
REMARK  status: ('A' for Active; 'I' for Inactive)
REMARK    1  A    between atoms: N_1  and  C_2
REMARK    2  A    between atoms: C_2  and  N_4
REMARK    3  A    between atoms: N_4  and  N_5
REMARK    4  A    between atoms: C_6  and  C_7
REMARK    5  A    between atoms: C_6  and  C_14
REMARK    6  A    between atoms: C_11  and  O_12
REMARK                            x       y       z     vdW  Elec       q    Type
REMARK                         _______ _______ _______ _____ _____    ______ ____
ROOT
ATOM      1  N   UNL     1       4.109   6.134  17.952  0.00  0.00    +0.000 NA
ATOM      2  C   UNL     1       2.974   6.106  18.598  0.00  0.00    +0.000 C 
ENDROOT
BRANCH   2   3
ATOM      3  C   UNL     1       2.333   7.451  18.827  0.00  0.00    +0.000 A 
ATOM      4  C   UNL     1       2.275   8.356  17.754  0.00  0.00    +0.000 A 
ATOM      5  C   UNL     1       1.670   9.605  17.914  0.00  0.00    +0.000 A 
ATOM      6  C   UNL     1       1.119   9.957  19.144  0.00  0.00    +0.000 A 
ATOM      7  C   UNL     1       1.190   9.065  20.214  0.00  0.00    +0.000 A 
ATOM      8 BR   UNL     1       0.428   9.542  21.879  0.00  0.00    +0.000 Br
ATOM      9  C   UNL     1       1.806   7.821  20.070  0.00  0.00    +0.000 A 
ENDBRANCH   2   3
BRANCH   2  10
ATOM     10  C   UNL     1       2.292   4.880  19.143  0.00  0.00    +0.000 A 
ATOM     11  C   UNL     1       1.535   4.050  18.300  0.00  0.00    +0.000 A 
ATOM     12  C   UNL     1       0.904   2.906  18.798  0.00  0.00    +0.000 A 
ATOM     13  C   UNL     1       1.077   2.538  20.131  0.00  0.00    +0.000 A 
ATOM     14  C   UNL     1       1.860   3.336  20.957  0.00  0.00    +0.000 A 
ATOM     15  C   UNL     1       2.440   4.513  20.488  0.00  0.00    +0.000 A 
BRANCH  14  16
ATOM     16  O   UNL     1       2.104   2.982  22.253  0.00  0.00    +0.000 OA
ATOM     17  H   UNL     1       2.140   3.786  22.797  0.00  0.00    +0.000 HD
ENDBRANCH  14  16
ENDBRANCH   2  10
BRANCH   1  18
ATOM     18  N   UNL     1       4.692   4.971  17.549  0.00  0.00    +0.000 N 
ATOM     19  H   UNL     1       4.269   4.414  16.812  0.00  0.00    +0.000 HD
BRANCH  18  20
ATOM     20  C   UNL     1       5.839   4.516  18.140  0.00  0.00    +0.000 C 
ATOM     21  S   UNL     1       7.346   4.964  17.617  0.00  0.00    +0.000 S 
BRANCH  20  22
ATOM     22  N   UNL     1       5.658   3.639  19.156  0.00  0.00    +0.000 N 
ATOM     23  H   UNL     1       4.848   3.677  19.755  0.00  0.00    +0.000 HD
ATOM     24  H   UNL     1       6.340   2.894  19.241  0.00  0.00    +0.000 HD
ENDBRANCH  20  22
ENDBRANCH  18  20
ENDBRANCH   1  18
TORSDOF 6
ENDMDL
MODEL 2
REMARK VINA RESULT:      -7.8      4.525      6.417
REMARK  Name = 
REMARK  6 active torsions:
REMARK  status: ('A' for Active; 'I' for Inactive)
REMARK    1  A    between atoms: N_1  and  C_2
REMARK    2  A    between atoms: C_2  and  N_4
REMARK    3  A    between atoms: N_4  and  N_5
REMARK    4  A    between atoms: C_6  and  C_7
REMARK    5  A    between atoms: C_6  and  C_14
REMARK    6  A    between atoms: C_11  and  O_12
REMARK                            x       y       z     vdW  Elec       q    Type
REMARK                         _______ _______ _______ _____ _____    ______ ____
ROOT
ATOM      1  N   UNL     1       7.553   4.596  16.823  0.00  0.00    +0.000 NA
ATOM      2  C   UNL     1       6.423   4.584  16.169  0.00  0.00    +0.000 C 
ENDROOT
BRANCH   2   3
ATOM      3  C   UNL     1       6.550   4.507  14.668  0.00  0.00    +0.000 A 
ATOM      4  C   UNL     1       7.669   5.102  14.061  0.00  0.00    +0.000 A 
ATOM      5  C   UNL     1       7.840   5.037  12.676  0.00  0.00    +0.000 A 
ATOM      6  C   UNL     1       6.899   4.377  11.890  0.00  0.00    +0.000 A 
ATOM      7  C   UNL     1       5.780   3.799  12.491  0.00  0.00    +0.000 A 
ATOM      8 BR   UNL     1       4.510   2.892  11.421  0.00  0.00    +0.000 Br
ATOM      9  C   UNL     1       5.590   3.872  13.872  0.00  0.00    +0.000 A 
ENDBRANCH   2   3
BRANCH   2  10
ATOM     10  C   UNL     1       5.046   4.669  16.772  0.00  0.00    +0.000 A 
ATOM     11  C   UNL     1       4.510   5.908  17.156  0.00  0.00    +0.000 A 
ATOM     12  C   UNL     1       3.229   5.995  17.710  0.00  0.00    +0.000 A 
ATOM     13  C   UNL     1       2.441   4.853  17.827  0.00  0.00    +0.000 A 
ATOM     14  C   UNL     1       2.953   3.630  17.408  0.00  0.00    +0.000 A 
ATOM     15  C   UNL     1       4.252   3.522  16.915  0.00  0.00    +0.000 A 
BRANCH  14  16
ATOM     16  O   UNL     1       2.195   2.497  17.450  0.00  0.00    +0.000 OA
ATOM     17  H   UNL     1       2.733   1.746  17.149  0.00  0.00    +0.000 HD
ENDBRANCH  14  16
ENDBRANCH   2  10
BRANCH   1  18
ATOM     18  N   UNL     1       7.554   4.499  18.181  0.00  0.00    +0.000 N 
ATOM     19  H   UNL     1       7.306   3.624  18.633  0.00  0.00    +0.000 HD
BRANCH  18  20
ATOM     20  C   UNL     1       7.863   5.579  18.963  0.00  0.00    +0.000 C 
ATOM     21  S   UNL     1       7.922   7.123  18.364  0.00  0.00    +0.000 S 
BRANCH  20  22
ATOM     22  N   UNL     1       8.163   5.293  20.252  0.00  0.00    +0.000 N 
ATOM     23  H   UNL     1       7.797   4.477  20.717  0.00  0.00    +0.000 HD
ATOM     24  H   UNL     1       8.835   5.899  20.708  0.00  0.00    +0.000 HD
ENDBRANCH  20  22
ENDBRANCH  18  20
ENDBRANCH   1  18
TORSDOF 6
ENDMDL
MODEL 3
REMARK VINA RESULT:      -7.8      3.371      5.406
REMARK  Name = 
REMARK  6 active torsions:
REMARK  status: ('A' for Active; 'I' for Inactive)
REMARK    1  A    between atoms: N_1  and  C_2
REMARK    2  A    between atoms: C_2  and  N_4
REMARK    3  A    between atoms: N_4  and  N_5
REMARK    4  A    between atoms: C_6  and  C_7
REMARK    5  A    between atoms: C_6  and  C_14
REMARK    6  A    between atoms: C_11  and  O_12
REMARK                            x       y       z     vdW  Elec       q    Type
REMARK                         _______ _______ _______ _____ _____    ______ ____
ROOT
ATOM      1  N   UNL     1       5.273   3.744  15.820  0.00  0.00    +0.000 NA
ATOM      2  C   UNL     1       5.172   4.440  16.922  0.00  0.00    +0.000 C 
ENDROOT
BRANCH   2   3
ATOM      3  C   UNL     1       3.846   4.328  17.633  0.00  0.00    +0.000 A 
ATOM      4  C   UNL     1       3.006   3.248  17.315  0.00  0.00    +0.000 A 
ATOM      5  C   UNL     1       1.780   3.092  17.964  0.00  0.00    +0.000 A 
ATOM      6  C   UNL     1       1.385   4.011  18.934  0.00  0.00    +0.000 A 
ATOM      7  C   UNL     1       2.212   5.093  19.237  0.00  0.00    +0.000 A 
ATOM      8 BR   UNL     1       1.678   6.333  20.564  0.00  0.00    +0.000 Br
ATOM      9  C   UNL     1       3.433   5.268  18.584  0.00  0.00    +0.000 A 
ENDBRANCH   2   3
BRANCH   2  10
ATOM     10  C   UNL     1       6.229   5.339  17.504  0.00  0.00    +0.000 A 
ATOM     11  C   UNL     1       6.428   6.631  16.992  0.00  0.00    +0.000 A 
ATOM     12  C   UNL     1       7.403   7.476  17.532  0.00  0.00    +0.000 A 
ATOM     13  C   UNL     1       8.148   7.064  18.635  0.00  0.00    +0.000 A 
ATOM     14  C   UNL     1       7.924   5.800  19.170  0.00  0.00    +0.000 A 
ATOM     15  C   UNL     1       7.001   4.926  18.599  0.00  0.00    +0.000 A 
BRANCH  14  16
ATOM     16  O   UNL     1       8.590   5.379  20.285  0.00  0.00    +0.000 OA
ATOM     17  H   UNL     1       8.771   6.146  20.852  0.00  0.00    +0.000 HD
ENDBRANCH  14  16
ENDBRANCH   2  10
BRANCH   1  18
ATOM     18  N   UNL     1       6.474   3.642  15.187  0.00  0.00    +0.000 N 
ATOM     19  H   UNL     1       7.247   3.154  15.630  0.00  0.00    +0.000 HD
BRANCH  18  20
ATOM     20  C   UNL     1       6.673   4.212  13.959  0.00  0.00    +0.000 C 
ATOM     21  S   UNL     1       6.030   3.577  12.570  0.00  0.00    +0.000 S 
BRANCH  20  22
ATOM     22  N   UNL     1       7.469   5.307  13.951  0.00  0.00    +0.000 N 
ATOM     23  H   UNL     1       7.876   5.677  14.796  0.00  0.00    +0.000 HD
ATOM     24  H   UNL     1       7.700   5.695  13.044  0.00  0.00    +0.000 HD
ENDBRANCH  20  22
ENDBRANCH  18  20
ENDBRANCH   1  18
TORSDOF 6
ENDMDL
MODEL 4
REMARK VINA RESULT:      -7.8      1.029      1.488
REMARK  Name = 
REMARK  6 active torsions:
REMARK  status: ('A' for Active; 'I' for Inactive)
REMARK    1  A    between atoms: N_1  and  C_2
REMARK    2  A    between atoms: C_2  and  N_4
REMARK    3  A    between atoms: N_4  and  N_5
REMARK    4  A    between atoms: C_6  and  C_7
REMARK    5  A    between atoms: C_6  and  C_14
REMARK    6  A    between atoms: C_11  and  O_12
REMARK                            x       y       z     vdW  Elec       q    Type
REMARK                         _______ _______ _______ _____ _____    ______ ____
ROOT
ATOM      1  N   UNL     1       4.059   6.316  18.119  0.00  0.00    +0.000 NA
ATOM      2  C   UNL     1       2.947   6.239  18.800  0.00  0.00    +0.000 C 
ENDROOT
BRANCH   2   3
ATOM      3  C   UNL     1       2.220   7.547  18.991  0.00  0.00    +0.000 A 
ATOM      4  C   UNL     1       2.073   8.398  17.884  0.00  0.00    +0.000 A 
ATOM      5  C   UNL     1       1.388   9.608  18.008  0.00  0.00    +0.000 A 
ATOM      6  C   UNL     1       0.843   9.975  19.237  0.00  0.00    +0.000 A 
ATOM      7  C   UNL     1       1.002   9.137  20.341  0.00  0.00    +0.000 A 
ATOM      8 BR   UNL     1       0.250   9.632  22.005  0.00  0.00    +0.000 Br
ATOM      9  C   UNL     1       1.699   7.932  20.232  0.00  0.00    +0.000 A 
ENDBRANCH   2   3
BRANCH   2  10
ATOM     10  C   UNL     1       2.368   4.995  19.418  0.00  0.00    +0.000 A 
ATOM     11  C   UNL     1       2.538   4.731  20.786  0.00  0.00    +0.000 A 
ATOM     12  C   UNL     1       1.997   3.581  21.369  0.00  0.00    +0.000 A 
ATOM     13  C   UNL     1       1.222   2.711  20.604  0.00  0.00    +0.000 A 
ATOM     14  C   UNL     1       1.017   2.991  19.258  0.00  0.00    +0.000 A 
ATOM     15  C   UNL     1       1.606   4.100  18.653  0.00  0.00    +0.000 A 
BRANCH  14  16
ATOM     16  O   UNL     1       0.218   2.199  18.487  0.00  0.00    +0.000 OA
ATOM     17  H   UNL     1       0.084   1.351  18.940  0.00  0.00    +0.000 HD
ENDBRANCH  14  16
ENDBRANCH   2  10
BRANCH   1  18
ATOM     18  N   UNL     1       4.710   5.178  17.749  0.00  0.00    +0.000 N 
ATOM     19  H   UNL     1       4.363   4.617  16.976  0.00  0.00    +0.000 HD
BRANCH  18  20
ATOM     20  C   UNL     1       5.825   4.756  18.420  0.00  0.00    +0.000 C 
ATOM     21  S   UNL     1       7.269   5.566  18.343  0.00  0.00    +0.000 S 
BRANCH  20  22
ATOM     22  N   UNL     1       5.680   3.604  19.116  0.00  0.00    +0.000 N 
ATOM     23  H   UNL     1       6.007   2.719  18.757  0.00  0.00    +0.000 HD
ATOM     24  H   UNL     1       5.294   3.681  20.049  0.00  0.00    +0.000 HD
ENDBRANCH  20  22
ENDBRANCH  18  20
ENDBRANCH   1  18
TORSDOF 6
ENDMDL
MODEL 5
REMARK VINA RESULT:      -7.8      2.481      3.857
REMARK  Name = 
REMARK  6 active torsions:
REMARK  status: ('A' for Active; 'I' for Inactive)
REMARK    1  A    between atoms: N_1  and  C_2
REMARK    2  A    between atoms: C_2  and  N_4
REMARK    3  A    between atoms: N_4  and  N_5
REMARK    4  A    between atoms: C_6  and  C_7
REMARK    5  A    between atoms: C_6  and  C_14
REMARK    6  A    between atoms: C_11  and  O_12
REMARK                            x       y       z     vdW  Elec       q    Type
REMARK                         _______ _______ _______ _____ _____    ______ ____
ROOT
ATOM      1  N   UNL     1       2.609   4.843  17.836  0.00  0.00    +0.000 NA
ATOM      2  C   UNL     1       3.378   5.855  18.136  0.00  0.00    +0.000 C 
ENDROOT
BRANCH   2   3
ATOM      3  C   UNL     1       2.654   7.120  18.523  0.00  0.00    +0.000 A 
ATOM      4  C   UNL     1       2.474   8.114  17.546  0.00  0.00    +0.000 A 
ATOM      5  C   UNL     1       1.790   9.291  17.853  0.00  0.00    +0.000 A 
ATOM      6  C   UNL     1       1.279   9.484  19.135  0.00  0.00    +0.000 A 
ATOM      7  C   UNL     1       1.471   8.504  20.110  0.00  0.00    +0.000 A 
ATOM      8 BR   UNL     1       0.764   8.764  21.846  0.00  0.00    +0.000 Br
ATOM      9  C   UNL     1       2.167   7.330  19.818  0.00  0.00    +0.000 A 
ENDBRANCH   2   3
BRANCH   2  10
ATOM     10  C   UNL     1       4.883   5.869  18.098  0.00  0.00    +0.000 A 
ATOM     11  C   UNL     1       5.564   6.241  16.928  0.00  0.00    +0.000 A 
ATOM     12  C   UNL     1       6.961   6.264  16.886  0.00  0.00    +0.000 A 
ATOM     13  C   UNL     1       7.697   5.978  18.035  0.00  0.00    +0.000 A 
ATOM     14  C   UNL     1       7.025   5.650  19.206  0.00  0.00    +0.000 A 
ATOM     15  C   UNL     1       5.635   5.561  19.241  0.00  0.00    +0.000 A 
BRANCH  14  16
ATOM     16  O   UNL     1       7.703   5.421  20.368  0.00  0.00    +0.000 OA
ATOM     17  H   UNL     1       8.234   4.613  20.268  0.00  0.00    +0.000 HD
ENDBRANCH  14  16
ENDBRANCH   2  10
BRANCH   1  18
ATOM     18  N   UNL     1       3.153   3.612  17.631  0.00  0.00    +0.000 N 
ATOM     19  H   UNL     1       3.702   3.426  16.797  0.00  0.00    +0.000 HD
BRANCH  18  20
ATOM     20  C   UNL     1       2.954   2.597  18.527  0.00  0.00    +0.000 C 
ATOM     21  S   UNL     1       3.757   2.519  19.974  0.00  0.00    +0.000 S 
BRANCH  20  22
ATOM     22  N   UNL     1       2.088   1.636  18.129  0.00  0.00    +0.000 N 
ATOM     23  H   UNL     1       2.218   1.122  17.271  0.00  0.00    +0.000 HD
ATOM     24  H   UNL     1       1.340   1.402  18.771  0.00  0.00    +0.000 HD
ENDBRANCH  20  22
ENDBRANCH  18  20
ENDBRANCH   1  18
TORSDOF 6
ENDMDL
MODEL 6
REMARK VINA RESULT:      -7.7      4.614      6.464
REMARK  Name = 
REMARK  6 active torsions:
REMARK  status: ('A' for Active; 'I' for Inactive)
REMARK    1  A    between atoms: N_1  and  C_2
REMARK    2  A    between atoms: C_2  and  N_4
REMARK    3  A    between atoms: N_4  and  N_5
REMARK    4  A    between atoms: C_6  and  C_7
REMARK    5  A    between atoms: C_6  and  C_14
REMARK    6  A    between atoms: C_11  and  O_12
REMARK                            x       y       z     vdW  Elec       q    Type
REMARK                         _______ _______ _______ _____ _____    ______ ____
ROOT
ATOM      1  N   UNL     1       7.565   4.605  16.814  0.00  0.00    +0.000 NA
ATOM      2  C   UNL     1       6.440   4.606  16.150  0.00  0.00    +0.000 C 
ENDROOT
BRANCH   2   3
ATOM      3  C   UNL     1       6.578   4.518  14.651  0.00  0.00    +0.000 A 
ATOM      4  C   UNL     1       7.684   5.137  14.044  0.00  0.00    +0.000 A 
ATOM      5  C   UNL     1       7.865   5.062  12.661  0.00  0.00    +0.000 A 
ATOM      6  C   UNL     1       6.946   4.368  11.877  0.00  0.00    +0.000 A 
ATOM      7  C   UNL     1       5.840   3.767  12.477  0.00  0.00    +0.000 A 
ATOM      8 BR   UNL     1       4.601   2.814  11.410  0.00  0.00    +0.000 Br
ATOM      9  C   UNL     1       5.640   3.849  13.857  0.00  0.00    +0.000 A 
ENDBRANCH   2   3
BRANCH   2  10
ATOM     10  C   UNL     1       5.060   4.717  16.741  0.00  0.00    +0.000 A 
ATOM     11  C   UNL     1       4.301   3.566  17.004  0.00  0.00    +0.000 A 
ATOM     12  C   UNL     1       3.021   3.661  17.560  0.00  0.00    +0.000 A 
ATOM     13  C   UNL     1       2.509   4.905  17.922  0.00  0.00    +0.000 A 
ATOM     14  C   UNL     1       3.276   6.044  17.701  0.00  0.00    +0.000 A 
ATOM     15  C   UNL     1       4.525   5.966  17.088  0.00  0.00    +0.000 A 
BRANCH  14  16
ATOM     16  O   UNL     1       2.838   7.275  18.094  0.00  0.00    +0.000 OA
ATOM     17  H   UNL     1       2.759   7.845  17.312  0.00  0.00    +0.000 HD
ENDBRANCH  14  16
ENDBRANCH   2  10
BRANCH   1  18
ATOM     18  N   UNL     1       7.553   4.517  18.172  0.00  0.00    +0.000 N 
ATOM     19  H   UNL     1       7.296   3.646  18.628  0.00  0.00    +0.000 HD
BRANCH  18  20
ATOM     20  C   UNL     1       7.862   5.600  18.950  0.00  0.00    +0.000 C 
ATOM     21  S   UNL     1       7.914   7.142  18.346  0.00  0.00    +0.000 S 
BRANCH  20  22
ATOM     22  N   UNL     1       8.168   5.319  20.238  0.00  0.00    +0.000 N 
ATOM     23  H   UNL     1       8.407   6.042  20.900  0.00  0.00    +0.000 HD
ATOM     24  H   UNL     1       8.074   4.353  20.529  0.00  0.00    +0.000 HD
ENDBRANCH  20  22
ENDBRANCH  18  20
ENDBRANCH   1  18
TORSDOF 6
ENDMDL
MODEL 7
REMARK VINA RESULT:      -7.6      0.975      1.306
REMARK  Name = 
REMARK  6 active torsions:
REMARK  status: ('A' for Active; 'I' for Inactive)
REMARK    1  A    between atoms: N_1  and  C_2
REMARK    2  A    between atoms: C_2  and  N_4
REMARK    3  A    between atoms: N_4  and  N_5
REMARK    4  A    between atoms: C_6  and  C_7
REMARK    5  A    between atoms: C_6  and  C_14
REMARK    6  A    between atoms: C_11  and  O_12
REMARK                            x       y       z     vdW  Elec       q    Type
REMARK                         _______ _______ _______ _____ _____    ______ ____
ROOT
ATOM      1  N   UNL     1       4.118   6.474  17.916  0.00  0.00    +0.000 NA
ATOM      2  C   UNL     1       3.004   6.292  18.573  0.00  0.00    +0.000 C 
ENDROOT
BRANCH   2   3
ATOM      3  C   UNL     1       2.241   7.551  18.903  0.00  0.00    +0.000 A 
ATOM      4  C   UNL     1       1.980   8.465  17.869  0.00  0.00    +0.000 A 
ATOM      5  C   UNL     1       1.257   9.633  18.124  0.00  0.00    +0.000 A 
ATOM      6  C   UNL     1       0.790   9.893  19.410  0.00  0.00    +0.000 A 
ATOM      7  C   UNL     1       1.063   8.993  20.440  0.00  0.00    +0.000 A 
ATOM      8 BR   UNL     1       0.415   9.344  22.184  0.00  0.00    +0.000 Br
ATOM      9  C   UNL     1       1.797   7.830  20.201  0.00  0.00    +0.000 A 
ENDBRANCH   2   3
BRANCH   2  10
ATOM     10  C   UNL     1       2.453   4.971  19.039  0.00  0.00    +0.000 A 
ATOM     11  C   UNL     1       1.639   4.200  18.196  0.00  0.00    +0.000 A 
ATOM     12  C   UNL     1       1.129   2.968  18.620  0.00  0.00    +0.000 A 
ATOM     13  C   UNL     1       1.481   2.461  19.869  0.00  0.00    +0.000 A 
ATOM     14  C   UNL     1       2.321   3.204  20.690  0.00  0.00    +0.000 A 
ATOM     15  C   UNL     1       2.782   4.462  20.304  0.00  0.00    +0.000 A 
BRANCH  14  16
ATOM     16  O   UNL     1       2.738   2.720  21.895  0.00  0.00    +0.000 OA
ATOM     17  H   UNL     1       2.400   3.296  22.600  0.00  0.00    +0.000 HD
ENDBRANCH  14  16
ENDBRANCH   2  10
BRANCH   1  18
ATOM     18  N   UNL     1       4.802   5.403  17.425  0.00  0.00    +0.000 N 
ATOM     19  H   UNL     1       4.835   4.533  17.948  0.00  0.00    +0.000 HD
BRANCH  18  20
ATOM     20  C   UNL     1       5.475   5.482  16.237  0.00  0.00    +0.000 C 
ATOM     21  S   UNL     1       6.533   4.310  15.735  0.00  0.00    +0.000 S 
BRANCH  20  22
ATOM     22  N   UNL     1       5.252   6.608  15.519  0.00  0.00    +0.000 N 
ATOM     23  H   UNL     1       4.988   7.477  15.958  0.00  0.00    +0.000 HD
ATOM     24  H   UNL     1       5.435   6.558  14.524  0.00  0.00    +0.000 HD
ENDBRANCH  20  22
ENDBRANCH  18  20
ENDBRANCH   1  18
TORSDOF 6
ENDMDL
MODEL 8
REMARK VINA RESULT:      -7.6      3.458      5.219
REMARK  Name = 
REMARK  6 active torsions:
REMARK  status: ('A' for Active; 'I' for Inactive)
REMARK    1  A    between atoms: N_1  and  C_2
REMARK    2  A    between atoms: C_2  and  N_4
REMARK    3  A    between atoms: N_4  and  N_5
REMARK    4  A    between atoms: C_6  and  C_7
REMARK    5  A    between atoms: C_6  and  C_14
REMARK    6  A    between atoms: C_11  and  O_12
REMARK                            x       y       z     vdW  Elec       q    Type
REMARK                         _______ _______ _______ _____ _____    ______ ____
ROOT
ATOM      1  N   UNL     1       3.154   7.145  18.392  0.00  0.00    +0.000 NA
ATOM      2  C   UNL     1       3.435   5.871  18.475  0.00  0.00    +0.000 C 
ENDROOT
BRANCH   2   3
ATOM      3  C   UNL     1       4.748   5.462  17.854  0.00  0.00    +0.000 A 
ATOM      4  C   UNL     1       5.901   5.477  18.656  0.00  0.00    +0.000 A 
ATOM      5  C   UNL     1       7.133   5.084  18.130  0.00  0.00    +0.000 A 
ATOM      6  C   UNL     1       7.222   4.674  16.802  0.00  0.00    +0.000 A 
ATOM      7  C   UNL     1       6.080   4.674  16.000  0.00  0.00    +0.000 A 
ATOM      8 BR   UNL     1       6.203   4.103  14.200  0.00  0.00    +0.000 Br
ATOM      9  C   UNL     1       4.846   5.079  16.511  0.00  0.00    +0.000 A 
ENDBRANCH   2   3
BRANCH   2  10
ATOM     10  C   UNL     1       2.567   4.808  19.093  0.00  0.00    +0.000 A 
ATOM     11  C   UNL     1       1.686   4.057  18.300  0.00  0.00    +0.000 A 
ATOM     12  C   UNL     1       0.882   3.062  18.867  0.00  0.00    +0.000 A 
ATOM     13  C   UNL     1       0.996   2.761  20.222  0.00  0.00    +0.000 A 
ATOM     14  C   UNL     1       1.899   3.476  21.001  0.00  0.00    +0.000 A 
ATOM     15  C   UNL     1       2.657   4.513  20.461  0.00  0.00    +0.000 A 
BRANCH  14  16
ATOM     16  O   UNL     1       2.085   3.175  22.319  0.00  0.00    +0.000 OA
ATOM     17  H   UNL     1       1.620   2.347  22.521  0.00  0.00    +0.000 HD
ENDBRANCH  14  16
ENDBRANCH   2  10
BRANCH   1  18
ATOM     18  N   UNL     1       2.079   7.648  19.058  0.00  0.00    +0.000 N 
ATOM     19  H   UNL     1       1.586   7.080  19.741  0.00  0.00    +0.000 HD
BRANCH  18  20
ATOM     20  C   UNL     1       1.626   8.915  18.807  0.00  0.00    +0.000 C 
ATOM     21  S   UNL     1       0.705   9.762  19.893  0.00  0.00    +0.000 S 
BRANCH  20  22
ATOM     22  N   UNL     1       1.943   9.412  17.588  0.00  0.00    +0.000 N 
ATOM     23  H   UNL     1       2.890   9.661  17.344  0.00  0.00    +0.000 HD
ATOM     24  H   UNL     1       1.197   9.454  16.904  0.00  0.00    +0.000 HD
ENDBRANCH  20  22
ENDBRANCH  18  20
ENDBRANCH   1  18
TORSDOF 6
ENDMDL
MODEL 9
REMARK VINA RESULT:      -7.6      2.834      4.169
REMARK  Name = 
REMARK  6 active torsions:
REMARK  status: ('A' for Active; 'I' for Inactive)
REMARK    1  A    between atoms: N_1  and  C_2
REMARK    2  A    between atoms: C_2  and  N_4
REMARK    3  A    between atoms: N_4  and  N_5
REMARK    4  A    between atoms: C_6  and  C_7
REMARK    5  A    between atoms: C_6  and  C_14
REMARK    6  A    between atoms: C_11  and  O_12
REMARK                            x       y       z     vdW  Elec       q    Type
REMARK                         _______ _______ _______ _____ _____    ______ ____
ROOT
ATOM      1  N   UNL     1       2.452   4.857  17.829  0.00  0.00    +0.000 NA
ATOM      2  C   UNL     1       3.255   5.843  18.132  0.00  0.00    +0.000 C 
ENDROOT
BRANCH   2   3
ATOM      3  C   UNL     1       2.572   7.128  18.530  0.00  0.00    +0.000 A 
ATOM      4  C   UNL     1       2.401   8.124  17.554  0.00  0.00    +0.000 A 
ATOM      5  C   UNL     1       1.755   9.320  17.872  0.00  0.00    +0.000 A 
ATOM      6  C   UNL     1       1.275   9.529  19.163  0.00  0.00    +0.000 A 
ATOM      7  C   UNL     1       1.459   8.547  20.136  0.00  0.00    +0.000 A 
ATOM      8 BR   UNL     1       0.795   8.829  21.885  0.00  0.00    +0.000 Br
ATOM      9  C   UNL     1       2.117   7.353  19.834  0.00  0.00    +0.000 A 
ENDBRANCH   2   3
BRANCH   2  10
ATOM     10  C   UNL     1       4.759   5.809  18.085  0.00  0.00    +0.000 A 
ATOM     11  C   UNL     1       5.503   5.556  19.248  0.00  0.00    +0.000 A 
ATOM     12  C   UNL     1       6.901   5.516  19.211  0.00  0.00    +0.000 A 
ATOM     13  C   UNL     1       7.570   5.663  17.999  0.00  0.00    +0.000 A 
ATOM     14  C   UNL     1       6.834   5.873  16.839  0.00  0.00    +0.000 A 
ATOM     15  C   UNL     1       5.445   5.980  16.874  0.00  0.00    +0.000 A 
BRANCH  14  16
ATOM     16  O   UNL     1       7.445   5.964  15.622  0.00  0.00    +0.000 OA
ATOM     17  H   UNL     1       7.027   5.335  15.012  0.00  0.00    +0.000 HD
ENDBRANCH  14  16
ENDBRANCH   2  10
BRANCH   1  18
ATOM     18  N   UNL     1       2.955   3.610  17.615  0.00  0.00    +0.000 N 
ATOM     19  H   UNL     1       3.444   3.397  16.750  0.00  0.00    +0.000 HD
BRANCH  18  20
ATOM     20  C   UNL     1       2.795   2.618  18.543  0.00  0.00    +0.000 C 
ATOM     21  S   UNL     1       3.932   2.294  19.704  0.00  0.00    +0.000 S 
BRANCH  20  22
ATOM     22  N   UNL     1       1.662   1.887  18.418  0.00  0.00    +0.000 N 
ATOM     23  H   UNL     1       1.679   0.923  18.123  0.00  0.00    +0.000 HD
ATOM     24  H   UNL     1       0.799   2.332  18.708  0.00  0.00    +0.000 HD
ENDBRANCH  20  22
ENDBRANCH  18  20
ENDBRANCH   1  18
TORSDOF 6
ENDMDL
