MODEL 1
REMARK VINA RESULT:      -7.0      0.000      0.000
REMARK  Name = 
REMARK  8 active torsions:
REMARK  status: ('A' for Active; 'I' for Inactive)
REMARK    1  A    between atoms: C_1  and  C_2
REMARK    2  A    between atoms: C_2  and  N_3
REMARK    3  A    between atoms: C_6  and  N_7
REMARK    4  A    between atoms: N_7  and  C_8
REMARK    5  A    between atoms: C_9  and  C_10
REMARK    6  A    between atoms: C_10  and  C_12
REMARK    7  A    between atoms: C_20  and  C_21
REMARK    8  A    between atoms: C_25  and  O_26
REMARK                            x       y       z     vdW  Elec       q    Type
REMARK                         _______ _______ _______ _____ _____    ______ ____
ROOT
ATOM      1  C   UNL     1       0.182  13.012  21.046  0.00  0.00    +0.000 A 
ATOM      2  C   UNL     1      -0.457  14.037  21.789  0.00  0.00    +0.000 A 
ATOM      3  C   UNL     1      -1.199  13.682  22.908  0.00  0.00    +0.000 A 
ATOM      4  N   UNL     1      -1.368  12.413  23.342  0.00  0.00    +0.000 NA
ATOM      5  C   UNL     1      -0.743  11.431  22.677  0.00  0.00    +0.000 A 
ATOM      6  C   UNL     1      -0.925  10.116  23.103  0.00  0.00    +0.000 A 
ATOM      7  C   UNL     1      -0.304   9.022  22.474  0.00  0.00    +0.000 A 
ATOM      8  C   UNL     1       0.588   9.234  21.431  0.00  0.00    +0.000 A 
ATOM      9  C   UNL     1       0.806  10.569  21.069  0.00  0.00    +0.000 A 
ATOM     10  C   UNL     1       0.093  11.680  21.572  0.00  0.00    +0.000 A 
ENDROOT
BRANCH   8  11
ATOM     11  C   UNL     1       1.293   8.164  20.686  0.00  0.00    +0.000 A 
ATOM     12  C   UNL     1       1.273   6.834  21.165  0.00  0.00    +0.000 A 
ATOM     13  C   UNL     1       1.837   5.784  20.443  0.00  0.00    +0.000 A 
ATOM     14 CL   UNL     1       1.704   4.176  21.060  0.00  0.00    +0.000 Cl
ATOM     15  C   UNL     1       2.480   6.032  19.234  0.00  0.00    +0.000 A 
ATOM     16  C   UNL     1       2.550   7.343  18.759  0.00  0.00    +0.000 A 
ATOM     17 CL   UNL     1       3.342   7.709  17.269  0.00  0.00    +0.000 Cl
ATOM     18  C   UNL     1       1.960   8.397  19.475  0.00  0.00    +0.000 A 
BRANCH  15  19
ATOM     19  O   UNL     1       3.032   5.005  18.515  0.00  0.00    +0.000 OA
ATOM     20  H   UNL     1       3.530   4.438  19.135  0.00  0.00    +0.000 HD
ENDBRANCH  15  19
ENDBRANCH   8  11
BRANCH   1  21
ATOM     21  N   UNL     1       0.926  13.368  19.902  0.00  0.00    +0.000 N 
ATOM     22  H   UNL     1       0.370  13.199  19.050  0.00  0.00    +0.000 HD
BRANCH  21  27
ATOM     23  C   UNL     1       4.961  15.751  18.739  0.00  0.00    +0.000 C 
ATOM     24  C   UNL     1       3.433  15.815  18.914  0.00  0.00    +0.000 C 
ATOM     25  C   UNL     1       2.710  14.920  17.887  0.00  0.00    +0.000 C 
ATOM     26  C   UNL     1       2.757  13.425  18.214  0.00  0.00    +0.000 C 
ATOM     27  C   UNL     1       2.352  13.096  19.661  0.00  0.00    +0.000 C 
ATOM     28  C   UNL     1       3.195  13.947  20.628  0.00  0.00    +0.000 C 
ATOM     29  C   UNL     1       3.045  15.442  20.351  0.00  0.00    +0.000 C 
BRANCH  24  30
ATOM     30  N   UNL     1       3.018  17.205  18.682  0.00  0.00    +0.000 NA
ATOM     31  H   UNL     1       2.601  17.301  17.758  0.00  0.00    +0.000 HD
ATOM     32  H   UNL     1       3.825  17.826  18.710  0.00  0.00    +0.000 HD
ENDBRANCH  24  30
ENDBRANCH  21  27
ENDBRANCH   1  21
BRANCH   2  33
ATOM     33  C   UNL     1      -0.409  15.470  21.373  0.00  0.00    +0.000 C 
ATOM     34  O   UNL     1       0.322  16.262  21.965  0.00  0.00    +0.000 OA
BRANCH  33  35
ATOM     35  C   UNL     1      -1.229  15.940  20.211  0.00  0.00    +0.000 C 
ATOM     36  C   UNL     1      -1.282  17.406  19.841  0.00  0.00    +0.000 C 
ATOM     37  C   UNL     1      -0.523  16.447  18.972  0.00  0.00    +0.000 C 
ENDBRANCH  33  35
ENDBRANCH   2  33
TORSDOF 7
ENDMDL
MODEL 2
REMARK VINA RESULT:      -7.0      0.785      1.015
REMARK  Name = 
REMARK  8 active torsions:
REMARK  status: ('A' for Active; 'I' for Inactive)
REMARK    1  A    between atoms: C_1  and  C_2
REMARK    2  A    between atoms: C_2  and  N_3
REMARK    3  A    between atoms: C_6  and  N_7
REMARK    4  A    between atoms: N_7  and  C_8
REMARK    5  A    between atoms: C_9  and  C_10
REMARK    6  A    between atoms: C_10  and  C_12
REMARK    7  A    between atoms: C_20  and  C_21
REMARK    8  A    between atoms: C_25  and  O_26
REMARK                            x       y       z     vdW  Elec       q    Type
REMARK                         _______ _______ _______ _____ _____    ______ ____
ROOT
ATOM      1  C   UNL     1       0.206  12.949  21.057  0.00  0.00    +0.000 A 
ATOM      2  C   UNL     1      -0.429  13.974  21.803  0.00  0.00    +0.000 A 
ATOM      3  C   UNL     1      -1.171  13.618  22.922  0.00  0.00    +0.000 A 
ATOM      4  N   UNL     1      -1.343  12.348  23.353  0.00  0.00    +0.000 NA
ATOM      5  C   UNL     1      -0.721  11.366  22.684  0.00  0.00    +0.000 A 
ATOM      6  C   UNL     1      -0.907  10.050  23.106  0.00  0.00    +0.000 A 
ATOM      7  C   UNL     1      -0.290   8.957  22.474  0.00  0.00    +0.000 A 
ATOM      8  C   UNL     1       0.602   9.169  21.431  0.00  0.00    +0.000 A 
ATOM      9  C   UNL     1       0.823  10.504  21.072  0.00  0.00    +0.000 A 
ATOM     10  C   UNL     1       0.114  11.616  21.579  0.00  0.00    +0.000 A 
ENDROOT
BRANCH   8  11
ATOM     11  C   UNL     1       1.303   8.099  20.682  0.00  0.00    +0.000 A 
ATOM     12  C   UNL     1       1.263   6.765  21.146  0.00  0.00    +0.000 A 
ATOM     13  C   UNL     1       1.823   5.715  20.420  0.00  0.00    +0.000 A 
ATOM     14 CL   UNL     1       1.666   4.103  21.018  0.00  0.00    +0.000 Cl
ATOM     15  C   UNL     1       2.482   5.970  19.220  0.00  0.00    +0.000 A 
ATOM     16  C   UNL     1       2.571   7.285  18.760  0.00  0.00    +0.000 A 
ATOM     17 CL   UNL     1       3.383   7.657  17.282  0.00  0.00    +0.000 Cl
ATOM     18  C   UNL     1       1.985   8.337  19.480  0.00  0.00    +0.000 A 
BRANCH  15  19
ATOM     19  O   UNL     1       3.030   4.944  18.496  0.00  0.00    +0.000 OA
ATOM     20  H   UNL     1       3.973   4.875  18.739  0.00  0.00    +0.000 HD
ENDBRANCH  15  19
ENDBRANCH   8  11
BRANCH   1  21
ATOM     21  N   UNL     1       0.951  13.307  19.914  0.00  0.00    +0.000 N 
ATOM     22  H   UNL     1       0.417  13.084  19.059  0.00  0.00    +0.000 HD
BRANCH  21  27
ATOM     23  C   UNL     1       4.920  15.884  18.961  0.00  0.00    +0.000 C 
ATOM     24  C   UNL     1       3.388  15.884  19.095  0.00  0.00    +0.000 C 
ATOM     25  C   UNL     1       2.727  15.005  18.013  0.00  0.00    +0.000 C 
ATOM     26  C   UNL     1       2.823  13.501  18.281  0.00  0.00    +0.000 C 
ATOM     27  C   UNL     1       2.391  13.098  19.702  0.00  0.00    +0.000 C 
ATOM     28  C   UNL     1       3.175  13.939  20.725  0.00  0.00    +0.000 C 
ATOM     29  C   UNL     1       2.975  15.437  20.505  0.00  0.00    +0.000 C 
BRANCH  24  30
ATOM     30  N   UNL     1       2.925  17.265  18.908  0.00  0.00    +0.000 NA
ATOM     31  H   UNL     1       2.122  17.288  18.283  0.00  0.00    +0.000 HD
ATOM     32  H   UNL     1       3.655  17.828  18.474  0.00  0.00    +0.000 HD
ENDBRANCH  24  30
ENDBRANCH  21  27
ENDBRANCH   1  21
BRANCH   2  33
ATOM     33  C   UNL     1      -0.377  15.408  21.392  0.00  0.00    +0.000 C 
ATOM     34  O   UNL     1      -0.606  15.725  20.226  0.00  0.00    +0.000 OA
BRANCH  33  35
ATOM     35  C   UNL     1      -0.076  16.467  22.406  0.00  0.00    +0.000 C 
ATOM     36  C   UNL     1      -0.096  17.933  22.028  0.00  0.00    +0.000 C 
ATOM     37  C   UNL     1      -1.195  17.370  22.879  0.00  0.00    +0.000 C 
ENDBRANCH  33  35
ENDBRANCH   2  33
TORSDOF 7
ENDMDL
MODEL 3
REMARK VINA RESULT:      -7.0      0.154      1.584
REMARK  Name = 
REMARK  8 active torsions:
REMARK  status: ('A' for Active; 'I' for Inactive)
REMARK    1  A    between atoms: C_1  and  C_2
REMARK    2  A    between atoms: C_2  and  N_3
REMARK    3  A    between atoms: C_6  and  N_7
REMARK    4  A    between atoms: N_7  and  C_8
REMARK    5  A    between atoms: C_9  and  C_10
REMARK    6  A    between atoms: C_10  and  C_12
REMARK    7  A    between atoms: C_20  and  C_21
REMARK    8  A    between atoms: C_25  and  O_26
REMARK                            x       y       z     vdW  Elec       q    Type
REMARK                         _______ _______ _______ _____ _____    ______ ____
ROOT
ATOM      1  C   UNL     1       0.186  13.082  21.018  0.00  0.00    +0.000 A 
ATOM      2  C   UNL     1      -0.417  14.126  21.763  0.00  0.00    +0.000 A 
ATOM      3  C   UNL     1      -1.147  13.796  22.897  0.00  0.00    +0.000 A 
ATOM      4  N   UNL     1      -1.337  12.534  23.344  0.00  0.00    +0.000 NA
ATOM      5  C   UNL     1      -0.745  11.533  22.676  0.00  0.00    +0.000 A 
ATOM      6  C   UNL     1      -0.949  10.226  23.115  0.00  0.00    +0.000 A 
ATOM      7  C   UNL     1      -0.363   9.114  22.485  0.00  0.00    +0.000 A 
ATOM      8  C   UNL     1       0.516   9.299  21.425  0.00  0.00    +0.000 A 
ATOM      9  C   UNL     1       0.757  10.625  21.049  0.00  0.00    +0.000 A 
ATOM     10  C   UNL     1       0.078  11.756  21.555  0.00  0.00    +0.000 A 
ENDROOT
BRANCH   8  11
ATOM     11  C   UNL     1       1.185   8.207  20.677  0.00  0.00    +0.000 A 
ATOM     12  C   UNL     1       1.808   8.474  19.437  0.00  0.00    +0.000 A 
ATOM     13  C   UNL     1       2.532   7.500  18.752  0.00  0.00    +0.000 A 
ATOM     14 CL   UNL     1       3.327   7.926  17.280  0.00  0.00    +0.000 Cl
ATOM     15  C   UNL     1       2.623   6.209  19.264  0.00  0.00    +0.000 A 
ATOM     16  C   UNL     1       1.982   5.909  20.467  0.00  0.00    +0.000 A 
ATOM     17 CL   UNL     1       2.058   4.321  21.144  0.00  0.00    +0.000 Cl
ATOM     18  C   UNL     1       1.274   6.897  21.169  0.00  0.00    +0.000 A 
BRANCH  15  19
ATOM     19  O   UNL     1       3.338   5.247  18.601  0.00  0.00    +0.000 OA
ATOM     20  H   UNL     1       3.895   5.691  17.934  0.00  0.00    +0.000 HD
ENDBRANCH  15  19
ENDBRANCH   8  11
BRANCH   1  21
ATOM     21  N   UNL     1       0.919  13.413  19.858  0.00  0.00    +0.000 N 
ATOM     22  H   UNL     1       0.343  13.253  19.017  0.00  0.00    +0.000 HD
BRANCH  21  27
ATOM     23  C   UNL     1       5.027  15.711  18.788  0.00  0.00    +0.000 C 
ATOM     24  C   UNL     1       3.504  15.819  18.977  0.00  0.00    +0.000 C 
ATOM     25  C   UNL     1       2.745  15.002  17.912  0.00  0.00    +0.000 C 
ATOM     26  C   UNL     1       2.742  13.492  18.162  0.00  0.00    +0.000 C 
ATOM     27  C   UNL     1       2.332  13.104  19.594  0.00  0.00    +0.000 C 
ATOM     28  C   UNL     1       3.210  13.875  20.596  0.00  0.00    +0.000 C 
ATOM     29  C   UNL     1       3.110  15.386  20.397  0.00  0.00    +0.000 C 
BRANCH  24  30
ATOM     30  N   UNL     1       3.136  17.232  18.820  0.00  0.00    +0.000 NA
ATOM     31  H   UNL     1       2.132  17.322  18.672  0.00  0.00    +0.000 HD
ATOM     32  H   UNL     1       3.593  17.628  18.000  0.00  0.00    +0.000 HD
ENDBRANCH  24  30
ENDBRANCH  21  27
ENDBRANCH   1  21
BRANCH   2  33
ATOM     33  C   UNL     1      -0.345  15.554  21.335  0.00  0.00    +0.000 C 
ATOM     34  O   UNL     1       0.410  16.336  21.912  0.00  0.00    +0.000 OA
BRANCH  33  35
ATOM     35  C   UNL     1      -1.169  16.032  20.179  0.00  0.00    +0.000 C 
ATOM     36  C   UNL     1      -1.210  17.499  19.809  0.00  0.00    +0.000 C 
ATOM     37  C   UNL     1      -0.468  16.532  18.935  0.00  0.00    +0.000 C 
ENDBRANCH  33  35
ENDBRANCH   2  33
TORSDOF 7
ENDMDL
MODEL 4
REMARK VINA RESULT:      -6.9      0.793      1.885
REMARK  Name = 
REMARK  8 active torsions:
REMARK  status: ('A' for Active; 'I' for Inactive)
REMARK    1  A    between atoms: C_1  and  C_2
REMARK    2  A    between atoms: C_2  and  N_3
REMARK    3  A    between atoms: C_6  and  N_7
REMARK    4  A    between atoms: N_7  and  C_8
REMARK    5  A    between atoms: C_9  and  C_10
REMARK    6  A    between atoms: C_10  and  C_12
REMARK    7  A    between atoms: C_20  and  C_21
REMARK    8  A    between atoms: C_25  and  O_26
REMARK                            x       y       z     vdW  Elec       q    Type
REMARK                         _______ _______ _______ _____ _____    ______ ____
ROOT
ATOM      1  C   UNL     1       0.205  12.952  21.045  0.00  0.00    +0.000 A 
ATOM      2  C   UNL     1      -0.396  13.992  21.798  0.00  0.00    +0.000 A 
ATOM      3  C   UNL     1      -1.123  13.655  22.932  0.00  0.00    +0.000 A 
ATOM      4  N   UNL     1      -1.312  12.391  23.372  0.00  0.00    +0.000 NA
ATOM      5  C   UNL     1      -0.722  11.394  22.697  0.00  0.00    +0.000 A 
ATOM      6  C   UNL     1      -0.925  10.085  23.130  0.00  0.00    +0.000 A 
ATOM      7  C   UNL     1      -0.341   8.976  22.492  0.00  0.00    +0.000 A 
ATOM      8  C   UNL     1       0.535   9.167  21.431  0.00  0.00    +0.000 A 
ATOM      9  C   UNL     1       0.775  10.495  21.061  0.00  0.00    +0.000 A 
ATOM     10  C   UNL     1       0.097  11.623  21.576  0.00  0.00    +0.000 A 
ENDROOT
BRANCH   8  11
ATOM     11  C   UNL     1       1.202   8.079  20.674  0.00  0.00    +0.000 A 
ATOM     12  C   UNL     1       1.857   8.361  19.455  0.00  0.00    +0.000 A 
ATOM     13  C   UNL     1       2.580   7.388  18.766  0.00  0.00    +0.000 A 
ATOM     14 CL   UNL     1       3.415   7.830  17.321  0.00  0.00    +0.000 Cl
ATOM     15  C   UNL     1       2.637   6.085  19.252  0.00  0.00    +0.000 A 
ATOM     16  C   UNL     1       1.963   5.771  20.434  0.00  0.00    +0.000 A 
ATOM     17 CL   UNL     1       1.995   4.169  21.078  0.00  0.00    +0.000 Cl
ATOM     18  C   UNL     1       1.257   6.758  21.140  0.00  0.00    +0.000 A 
BRANCH  15  19
ATOM     19  O   UNL     1       3.349   5.124  18.585  0.00  0.00    +0.000 OA
ATOM     20  H   UNL     1       2.946   5.008  17.704  0.00  0.00    +0.000 HD
ENDBRANCH  15  19
ENDBRANCH   8  11
BRANCH   1  21
ATOM     21  N   UNL     1       0.935  13.289  19.886  0.00  0.00    +0.000 N 
ATOM     22  H   UNL     1       0.373  13.091  19.043  0.00  0.00    +0.000 HD
BRANCH  21  27
ATOM     23  C   UNL     1       4.966  15.726  18.832  0.00  0.00    +0.000 C 
ATOM     24  C   UNL     1       3.439  15.780  19.005  0.00  0.00    +0.000 C 
ATOM     25  C   UNL     1       2.721  14.925  17.940  0.00  0.00    +0.000 C 
ATOM     26  C   UNL     1       2.770  13.418  18.207  0.00  0.00    +0.000 C 
ATOM     27  C   UNL     1       2.361  13.030  19.638  0.00  0.00    +0.000 C 
ATOM     28  C   UNL     1       3.199  13.843  20.641  0.00  0.00    +0.000 C 
ATOM     29  C   UNL     1       3.046  15.348  20.425  0.00  0.00    +0.000 C 
BRANCH  24  30
ATOM     30  N   UNL     1       3.020  17.176  18.828  0.00  0.00    +0.000 NA
ATOM     31  H   UNL     1       2.091  17.320  19.219  0.00  0.00    +0.000 HD
ATOM     32  H   UNL     1       2.964  17.407  17.838  0.00  0.00    +0.000 HD
ENDBRANCH  24  30
ENDBRANCH  21  27
ENDBRANCH   1  21
BRANCH   2  33
ATOM     33  C   UNL     1      -0.325  15.423  21.378  0.00  0.00    +0.000 C 
ATOM     34  O   UNL     1      -0.670  15.753  20.244  0.00  0.00    +0.000 OA
BRANCH  33  35
ATOM     35  C   UNL     1       0.139  16.465  22.348  0.00  0.00    +0.000 C 
ATOM     36  C   UNL     1       0.101  17.934  21.986  0.00  0.00    +0.000 C 
ATOM     37  C   UNL     1      -0.882  17.387  22.977  0.00  0.00    +0.000 C 
ENDBRANCH  33  35
ENDBRANCH   2  33
TORSDOF 7
ENDMDL
MODEL 5
REMARK VINA RESULT:      -6.9      4.562      6.437
REMARK  Name = 
REMARK  8 active torsions:
REMARK  status: ('A' for Active; 'I' for Inactive)
REMARK    1  A    between atoms: C_1  and  C_2
REMARK    2  A    between atoms: C_2  and  N_3
REMARK    3  A    between atoms: C_6  and  N_7
REMARK    4  A    between atoms: N_7  and  C_8
REMARK    5  A    between atoms: C_9  and  C_10
REMARK    6  A    between atoms: C_10  and  C_12
REMARK    7  A    between atoms: C_20  and  C_21
REMARK    8  A    between atoms: C_25  and  O_26
REMARK                            x       y       z     vdW  Elec       q    Type
REMARK                         _______ _______ _______ _____ _____    ______ ____
ROOT
ATOM      1  C   UNL     1      -4.724  12.662  19.386  0.00  0.00    +0.000 A 
ATOM      2  C   UNL     1      -5.922  13.162  18.815  0.00  0.00    +0.000 A 
ATOM      3  C   UNL     1      -6.196  12.871  17.486  0.00  0.00    +0.000 A 
ATOM      4  N   UNL     1      -5.389  12.144  16.680  0.00  0.00    +0.000 NA
ATOM      5  C   UNL     1      -4.269  11.630  17.208  0.00  0.00    +0.000 A 
ATOM      6  C   UNL     1      -3.419  10.896  16.383  0.00  0.00    +0.000 A 
ATOM      7  C   UNL     1      -2.228  10.312  16.848  0.00  0.00    +0.000 A 
ATOM      8  C   UNL     1      -1.895  10.391  18.195  0.00  0.00    +0.000 A 
ATOM      9  C   UNL     1      -2.800  11.074  19.014  0.00  0.00    +0.000 A 
ATOM     10  C   UNL     1      -3.926  11.800  18.563  0.00  0.00    +0.000 A 
ENDROOT
BRANCH   8  11
ATOM     11  C   UNL     1      -0.664   9.825  18.799  0.00  0.00    +0.000 A 
ATOM     12  C   UNL     1      -0.555   9.703  20.202  0.00  0.00    +0.000 A 
ATOM     13  C   UNL     1       0.541   9.085  20.804  0.00  0.00    +0.000 A 
ATOM     14 CL   UNL     1       0.564   8.907  22.521  0.00  0.00    +0.000 Cl
ATOM     15  C   UNL     1       1.588   8.605  20.023  0.00  0.00    +0.000 A 
ATOM     16  C   UNL     1       1.523   8.751  18.636  0.00  0.00    +0.000 A 
ATOM     17 CL   UNL     1       2.798   8.180  17.620  0.00  0.00    +0.000 Cl
ATOM     18  C   UNL     1       0.407   9.351  18.030  0.00  0.00    +0.000 A 
BRANCH  15  19
ATOM     19  O   UNL     1       2.665   7.992  20.605  0.00  0.00    +0.000 OA
ATOM     20  H   UNL     1       2.476   7.036  20.656  0.00  0.00    +0.000 HD
ENDBRANCH  15  19
ENDBRANCH   8  11
BRANCH   1  21
ATOM     21  N   UNL     1      -4.437  12.966  20.733  0.00  0.00    +0.000 N 
ATOM     22  H   UNL     1      -5.307  12.974  21.288  0.00  0.00    +0.000 HD
BRANCH  21  27
ATOM     23  C   UNL     1      -2.656  14.590  24.916  0.00  0.00    +0.000 C 
ATOM     24  C   UNL     1      -3.680  13.675  24.222  0.00  0.00    +0.000 C 
ATOM     25  C   UNL     1      -4.717  14.492  23.425  0.00  0.00    +0.000 C 
ATOM     26  C   UNL     1      -4.196  15.039  22.093  0.00  0.00    +0.000 C 
ATOM     27  C   UNL     1      -3.493  13.983  21.223  0.00  0.00    +0.000 C 
ATOM     28  C   UNL     1      -2.399  13.290  22.055  0.00  0.00    +0.000 C 
ATOM     29  C   UNL     1      -2.963  12.656  23.325  0.00  0.00    +0.000 C 
BRANCH  24  30
ATOM     30  N   UNL     1      -4.391  12.930  25.269  0.00  0.00    +0.000 NA
ATOM     31  H   UNL     1      -5.392  13.113  25.217  0.00  0.00    +0.000 HD
ATOM     32  H   UNL     1      -4.082  13.231  26.192  0.00  0.00    +0.000 HD
ENDBRANCH  24  30
ENDBRANCH  21  27
ENDBRANCH   1  21
BRANCH   2  33
ATOM     33  C   UNL     1      -6.861  14.038  19.576  0.00  0.00    +0.000 C 
ATOM     34  O   UNL     1      -6.789  15.261  19.472  0.00  0.00    +0.000 OA
BRANCH  33  35
ATOM     35  C   UNL     1      -7.916  13.427  20.446  0.00  0.00    +0.000 C 
ATOM     36  C   UNL     1      -7.834  11.973  20.860  0.00  0.00    +0.000 C 
ATOM     37  C   UNL     1      -7.564  13.049  21.869  0.00  0.00    +0.000 C 
ENDBRANCH  33  35
ENDBRANCH   2  33
TORSDOF 7
ENDMDL
MODEL 6
REMARK VINA RESULT:      -6.8      6.038      8.669
REMARK  Name = 
REMARK  8 active torsions:
REMARK  status: ('A' for Active; 'I' for Inactive)
REMARK    1  A    between atoms: C_1  and  C_2
REMARK    2  A    between atoms: C_2  and  N_3
REMARK    3  A    between atoms: C_6  and  N_7
REMARK    4  A    between atoms: N_7  and  C_8
REMARK    5  A    between atoms: C_9  and  C_10
REMARK    6  A    between atoms: C_10  and  C_12
REMARK    7  A    between atoms: C_20  and  C_21
REMARK    8  A    between atoms: C_25  and  O_26
REMARK                            x       y       z     vdW  Elec       q    Type
REMARK                         _______ _______ _______ _____ _____    ______ ____
ROOT
ATOM      1  C   UNL     1      -3.704  11.928  18.856  0.00  0.00    +0.000 A 
ATOM      2  C   UNL     1      -4.029  10.979  17.854  0.00  0.00    +0.000 A 
ATOM      3  C   UNL     1      -5.317  10.460  17.824  0.00  0.00    +0.000 A 
ATOM      4  N   UNL     1      -6.295  10.789  18.698  0.00  0.00    +0.000 NA
ATOM      5  C   UNL     1      -6.021  11.712  19.631  0.00  0.00    +0.000 A 
ATOM      6  C   UNL     1      -7.015  12.046  20.550  0.00  0.00    +0.000 A 
ATOM      7  C   UNL     1      -6.823  13.008  21.557  0.00  0.00    +0.000 A 
ATOM      8  C   UNL     1      -5.634  13.723  21.620  0.00  0.00    +0.000 A 
ATOM      9  C   UNL     1      -4.680  13.416  20.643  0.00  0.00    +0.000 A 
ATOM     10  C   UNL     1      -4.773  12.359  19.711  0.00  0.00    +0.000 A 
ENDROOT
BRANCH   8  11
ATOM     11  C   UNL     1      -5.313  14.751  22.640  0.00  0.00    +0.000 A 
ATOM     12  C   UNL     1      -6.121  15.903  22.764  0.00  0.00    +0.000 A 
ATOM     13  C   UNL     1      -5.914  16.842  23.773  0.00  0.00    +0.000 A 
ATOM     14 CL   UNL     1      -6.991  18.185  23.903  0.00  0.00    +0.000 Cl
ATOM     15  C   UNL     1      -4.862  16.681  24.671  0.00  0.00    +0.000 A 
ATOM     16  C   UNL     1      -4.025  15.572  24.545  0.00  0.00    +0.000 A 
ATOM     17 CL   UNL     1      -2.701  15.328  25.627  0.00  0.00    +0.000 Cl
ATOM     18  C   UNL     1      -4.249  14.614  23.543  0.00  0.00    +0.000 A 
BRANCH  15  19
ATOM     19  O   UNL     1      -4.655  17.595  25.670  0.00  0.00    +0.000 OA
ATOM     20  H   UNL     1      -3.693  17.744  25.747  0.00  0.00    +0.000 HD
ENDBRANCH  15  19
ENDBRANCH   8  11
BRANCH   1  21
ATOM     21  N   UNL     1      -2.394  12.448  18.896  0.00  0.00    +0.000 N 
ATOM     22  H   UNL     1      -1.860  12.129  18.072  0.00  0.00    +0.000 HD
BRANCH  21  27
ATOM     23  C   UNL     1       2.267  13.117  19.961  0.00  0.00    +0.000 C 
ATOM     24  C   UNL     1       1.221  12.872  18.860  0.00  0.00    +0.000 C 
ATOM     25  C   UNL     1       0.558  11.487  19.010  0.00  0.00    +0.000 C 
ATOM     26  C   UNL     1      -0.490  11.411  20.123  0.00  0.00    +0.000 C 
ATOM     27  C   UNL     1      -1.524  12.550  20.078  0.00  0.00    +0.000 C 
ATOM     28  C   UNL     1      -0.786  13.900  20.042  0.00  0.00    +0.000 C 
ATOM     29  C   UNL     1       0.174  13.995  18.858  0.00  0.00    +0.000 C 
BRANCH  24  30
ATOM     30  N   UNL     1       1.920  12.907  17.568  0.00  0.00    +0.000 NA
ATOM     31  H   UNL     1       1.870  13.840  17.163  0.00  0.00    +0.000 HD
ATOM     32  H   UNL     1       1.475  12.272  16.907  0.00  0.00    +0.000 HD
ENDBRANCH  24  30
ENDBRANCH  21  27
ENDBRANCH   1  21
BRANCH   2  33
ATOM     33  C   UNL     1      -3.020  10.476  16.875  0.00  0.00    +0.000 C 
ATOM     34  O   UNL     1      -2.115   9.732  17.247  0.00  0.00    +0.000 OA
BRANCH  33  35
ATOM     35  C   UNL     1      -3.126  10.855  15.430  0.00  0.00    +0.000 C 
ATOM     36  C   UNL     1      -2.612   9.932  14.346  0.00  0.00    +0.000 C 
ATOM     37  C   UNL     1      -4.090  10.097  14.543  0.00  0.00    +0.000 C 
ENDBRANCH  33  35
ENDBRANCH   2  33
TORSDOF 7
ENDMDL
MODEL 7
REMARK VINA RESULT:      -6.7      6.143      8.745
REMARK  Name = 
REMARK  8 active torsions:
REMARK  status: ('A' for Active; 'I' for Inactive)
REMARK    1  A    between atoms: C_1  and  C_2
REMARK    2  A    between atoms: C_2  and  N_3
REMARK    3  A    between atoms: C_6  and  N_7
REMARK    4  A    between atoms: N_7  and  C_8
REMARK    5  A    between atoms: C_9  and  C_10
REMARK    6  A    between atoms: C_10  and  C_12
REMARK    7  A    between atoms: C_20  and  C_21
REMARK    8  A    between atoms: C_25  and  O_26
REMARK                            x       y       z     vdW  Elec       q    Type
REMARK                         _______ _______ _______ _____ _____    ______ ____
ROOT
ATOM      1  C   UNL     1      -3.929  12.002  18.979  0.00  0.00    +0.000 A 
ATOM      2  C   UNL     1      -4.191  11.031  17.981  0.00  0.00    +0.000 A 
ATOM      3  C   UNL     1      -5.446  10.437  17.947  0.00  0.00    +0.000 A 
ATOM      4  N   UNL     1      -6.447  10.713  18.812  0.00  0.00    +0.000 NA
ATOM      5  C   UNL     1      -6.233  11.655  19.742  0.00  0.00    +0.000 A 
ATOM      6  C   UNL     1      -7.251  11.935  20.653  0.00  0.00    +0.000 A 
ATOM      7  C   UNL     1      -7.123  12.912  21.656  0.00  0.00    +0.000 A 
ATOM      8  C   UNL     1      -5.977  13.695  21.722  0.00  0.00    +0.000 A 
ATOM      9  C   UNL     1      -5.001  13.441  20.752  0.00  0.00    +0.000 A 
ATOM     10  C   UNL     1      -5.026  12.374  19.825  0.00  0.00    +0.000 A 
ENDROOT
BRANCH   8  11
ATOM     11  C   UNL     1      -5.724  14.746  22.737  0.00  0.00    +0.000 A 
ATOM     12  C   UNL     1      -4.631  14.627  23.624  0.00  0.00    +0.000 A 
ATOM     13  C   UNL     1      -4.300  15.638  24.524  0.00  0.00    +0.000 A 
ATOM     14 CL   UNL     1      -2.904  15.449  25.522  0.00  0.00    +0.000 Cl
ATOM     15  C   UNL     1      -5.079  16.789  24.599  0.00  0.00    +0.000 A 
ATOM     16  C   UNL     1      -6.189  16.913  23.762  0.00  0.00    +0.000 A 
ATOM     17 CL   UNL     1      -7.194  18.317  23.818  0.00  0.00    +0.000 Cl
ATOM     18  C   UNL     1      -6.507  15.905  22.838  0.00  0.00    +0.000 A 
BRANCH  15  19
ATOM     19  O   UNL     1      -4.758  17.790  25.477  0.00  0.00    +0.000 OA
ATOM     20  H   UNL     1      -3.819  18.022  25.339  0.00  0.00    +0.000 HD
ENDBRANCH  15  19
ENDBRANCH   8  11
BRANCH   1  21
ATOM     21  N   UNL     1      -2.651  12.599  19.024  0.00  0.00    +0.000 N 
ATOM     22  H   UNL     1      -2.084  12.284  18.221  0.00  0.00    +0.000 HD
BRANCH  21  27
ATOM     23  C   UNL     1       2.002  13.190  20.167  0.00  0.00    +0.000 C 
ATOM     24  C   UNL     1       0.978  12.871  19.063  0.00  0.00    +0.000 C 
ATOM     25  C   UNL     1       0.252  11.538  19.336  0.00  0.00    +0.000 C 
ATOM     26  C   UNL     1      -0.830  11.622  20.416  0.00  0.00    +0.000 C 
ATOM     27  C   UNL     1      -1.812  12.790  20.217  0.00  0.00    +0.000 C 
ATOM     28  C   UNL     1      -1.015  14.099  20.064  0.00  0.00    +0.000 C 
ATOM     29  C   UNL     1      -0.019  14.029  18.909  0.00  0.00    +0.000 C 
BRANCH  24  30
ATOM     30  N   UNL     1       1.714  12.741  17.798  0.00  0.00    +0.000 NA
ATOM     31  H   UNL     1       1.315  13.356  17.092  0.00  0.00    +0.000 HD
ATOM     32  H   UNL     1       1.639  11.790  17.441  0.00  0.00    +0.000 HD
ENDBRANCH  24  30
ENDBRANCH  21  27
ENDBRANCH   1  21
BRANCH   2  33
ATOM     33  C   UNL     1      -3.148  10.583  17.011  0.00  0.00    +0.000 C 
ATOM     34  O   UNL     1      -2.183   9.927  17.399  0.00  0.00    +0.000 OA
BRANCH  33  35
ATOM     35  C   UNL     1      -3.291  10.908  15.556  0.00  0.00    +0.000 C 
ATOM     36  C   UNL     1      -2.658  10.028  14.499  0.00  0.00    +0.000 C 
ATOM     37  C   UNL     1      -4.146  10.013  14.686  0.00  0.00    +0.000 C 
ENDBRANCH  33  35
ENDBRANCH   2  33
TORSDOF 7
ENDMDL
MODEL 8
REMARK VINA RESULT:      -6.6      4.696      9.749
REMARK  Name = 
REMARK  8 active torsions:
REMARK  status: ('A' for Active; 'I' for Inactive)
REMARK    1  A    between atoms: C_1  and  C_2
REMARK    2  A    between atoms: C_2  and  N_3
REMARK    3  A    between atoms: C_6  and  N_7
REMARK    4  A    between atoms: N_7  and  C_8
REMARK    5  A    between atoms: C_9  and  C_10
REMARK    6  A    between atoms: C_10  and  C_12
REMARK    7  A    between atoms: C_20  and  C_21
REMARK    8  A    between atoms: C_25  and  O_26
REMARK                            x       y       z     vdW  Elec       q    Type
REMARK                         _______ _______ _______ _____ _____    ______ ____
ROOT
ATOM      1  C   UNL     1       3.554   6.244  18.906  0.00  0.00    +0.000 A 
ATOM      2  C   UNL     1       4.439   5.786  17.898  0.00  0.00    +0.000 A 
ATOM      3  C   UNL     1       4.540   6.517  16.722  0.00  0.00    +0.000 A 
ATOM      4  N   UNL     1       3.841   7.643  16.459  0.00  0.00    +0.000 NA
ATOM      5  C   UNL     1       3.026   8.116  17.413  0.00  0.00    +0.000 A 
ATOM      6  C   UNL     1       2.284   9.266  17.146  0.00  0.00    +0.000 A 
ATOM      7  C   UNL     1       1.411   9.840  18.087  0.00  0.00    +0.000 A 
ATOM      8  C   UNL     1       1.316   9.305  19.365  0.00  0.00    +0.000 A 
ATOM      9  C   UNL     1       2.123   8.192  19.627  0.00  0.00    +0.000 A 
ATOM     10  C   UNL     1       2.898   7.498  18.671  0.00  0.00    +0.000 A 
ENDROOT
BRANCH   8  11
ATOM     11  C   UNL     1       0.426   9.815  20.435  0.00  0.00    +0.000 A 
ATOM     12  C   UNL     1       0.591   9.374  21.767  0.00  0.00    +0.000 A 
ATOM     13  C   UNL     1      -0.158   9.903  22.816  0.00  0.00    +0.000 A 
ATOM     14 CL   UNL     1       0.156   9.365  24.426  0.00  0.00    +0.000 Cl
ATOM     15  C   UNL     1      -1.131  10.866  22.563  0.00  0.00    +0.000 A 
ATOM     16  C   UNL     1      -1.342  11.290  21.250  0.00  0.00    +0.000 A 
ATOM     17 CL   UNL     1      -2.541  12.476  20.880  0.00  0.00    +0.000 Cl
ATOM     18  C   UNL     1      -0.570  10.773  20.197  0.00  0.00    +0.000 A 
BRANCH  15  19
ATOM     19  O   UNL     1      -1.868  11.396  23.589  0.00  0.00    +0.000 OA
ATOM     20  H   UNL     1      -2.645  11.843  23.202  0.00  0.00    +0.000 HD
ENDBRANCH  15  19
ENDBRANCH   8  11
BRANCH   1  21
ATOM     21  N   UNL     1       3.439   5.498  20.098  0.00  0.00    +0.000 N 
ATOM     22  H   UNL     1       4.246   4.861  20.197  0.00  0.00    +0.000 HD
BRANCH  21  27
ATOM     23  C   UNL     1       0.710   1.576  19.407  0.00  0.00    +0.000 C 
ATOM     24  C   UNL     1       1.891   2.426  18.907  0.00  0.00    +0.000 C 
ATOM     25  C   UNL     1       1.423   3.818  18.435  0.00  0.00    +0.000 C 
ATOM     26  C   UNL     1       1.108   4.794  19.572  0.00  0.00    +0.000 C 
ATOM     27  C   UNL     1       2.217   4.882  20.635  0.00  0.00    +0.000 C 
ATOM     28  C   UNL     1       2.548   3.465  21.137  0.00  0.00    +0.000 C 
ATOM     29  C   UNL     1       2.967   2.539  19.997  0.00  0.00    +0.000 C 
BRANCH  24  30
ATOM     30  N   UNL     1       2.486   1.729  17.759  0.00  0.00    +0.000 NA
ATOM     31  H   UNL     1       1.758   1.409  17.123  0.00  0.00    +0.000 HD
ATOM     32  H   UNL     1       2.993   0.902  18.070  0.00  0.00    +0.000 HD
ENDBRANCH  24  30
ENDBRANCH  21  27
ENDBRANCH   1  21
BRANCH   2  33
ATOM     33  C   UNL     1       5.213   4.517  18.035  0.00  0.00    +0.000 C 
ATOM     34  O   UNL     1       4.796   3.480  17.521  0.00  0.00    +0.000 OA
BRANCH  33  35
ATOM     35  C   UNL     1       6.516   4.511  18.773  0.00  0.00    +0.000 C 
ATOM     36  C   UNL     1       7.827   4.676  18.035  0.00  0.00    +0.000 C 
ATOM     37  C   UNL     1       7.304   5.799  18.881  0.00  0.00    +0.000 C 
ENDBRANCH  33  35
ENDBRANCH   2  33
TORSDOF 7
ENDMDL
MODEL 9
REMARK VINA RESULT:      -6.6      4.857      6.625
REMARK  Name = 
REMARK  8 active torsions:
REMARK  status: ('A' for Active; 'I' for Inactive)
REMARK    1  A    between atoms: C_1  and  C_2
REMARK    2  A    between atoms: C_2  and  N_3
REMARK    3  A    between atoms: C_6  and  N_7
REMARK    4  A    between atoms: N_7  and  C_8
REMARK    5  A    between atoms: C_9  and  C_10
REMARK    6  A    between atoms: C_10  and  C_12
REMARK    7  A    between atoms: C_20  and  C_21
REMARK    8  A    between atoms: C_25  and  O_26
REMARK                            x       y       z     vdW  Elec       q    Type
REMARK                         _______ _______ _______ _____ _____    ______ ____
ROOT
ATOM      1  C   UNL     1      -5.153  12.821  19.198  0.00  0.00    +0.000 A 
ATOM      2  C   UNL     1      -6.328  13.288  18.556  0.00  0.00    +0.000 A 
ATOM      3  C   UNL     1      -6.510  12.994  17.211  0.00  0.00    +0.000 A 
ATOM      4  N   UNL     1      -5.634  12.295  16.455  0.00  0.00    +0.000 NA
ATOM      5  C   UNL     1      -4.534  11.812  17.051  0.00  0.00    +0.000 A 
ATOM      6  C   UNL     1      -3.613  11.106  16.278  0.00  0.00    +0.000 A 
ATOM      7  C   UNL     1      -2.437  10.555  16.815  0.00  0.00    +0.000 A 
ATOM      8  C   UNL     1      -2.190  10.638  18.180  0.00  0.00    +0.000 A 
ATOM      9  C   UNL     1      -3.165  11.292  18.943  0.00  0.00    +0.000 A 
ATOM     10  C   UNL     1      -4.281  11.986  18.424  0.00  0.00    +0.000 A 
ENDROOT
BRANCH   8  11
ATOM     11  C   UNL     1      -0.984  10.107  18.858  0.00  0.00    +0.000 A 
ATOM     12  C   UNL     1      -0.953   9.993  20.266  0.00  0.00    +0.000 A 
ATOM     13  C   UNL     1       0.120   9.406  20.934  0.00  0.00    +0.000 A 
ATOM     14 CL   UNL     1       0.048   9.236  22.651  0.00  0.00    +0.000 Cl
ATOM     15  C   UNL     1       1.223   8.949  20.218  0.00  0.00    +0.000 A 
ATOM     16  C   UNL     1       1.236   9.088  18.829  0.00  0.00    +0.000 A 
ATOM     17 CL   UNL     1       2.582   8.545  17.893  0.00  0.00    +0.000 Cl
ATOM     18  C   UNL     1       0.143   9.656  18.156  0.00  0.00    +0.000 A 
BRANCH  15  19
ATOM     19  O   UNL     1       2.280   8.366  20.865  0.00  0.00    +0.000 OA
ATOM     20  H   UNL     1       2.545   7.576  20.357  0.00  0.00    +0.000 HD
ENDBRANCH  15  19
ENDBRANCH   8  11
BRANCH   1  21
ATOM     21  N   UNL     1      -4.960  13.128  20.561  0.00  0.00    +0.000 N 
ATOM     22  H   UNL     1      -5.841  13.469  20.977  0.00  0.00    +0.000 HD
BRANCH  21  27
ATOM     23  C   UNL     1      -3.840  15.688  24.498  0.00  0.00    +0.000 C 
ATOM     24  C   UNL     1      -4.952  15.019  23.672  0.00  0.00    +0.000 C 
ATOM     25  C   UNL     1      -5.120  15.699  22.298  0.00  0.00    +0.000 C 
ATOM     26  C   UNL     1      -4.040  15.330  21.277  0.00  0.00    +0.000 C 
ATOM     27  C   UNL     1      -3.801  13.815  21.152  0.00  0.00    +0.000 C 
ATOM     28  C   UNL     1      -3.530  13.229  22.549  0.00  0.00    +0.000 C 
ATOM     29  C   UNL     1      -4.673  13.516  23.520  0.00  0.00    +0.000 C 
BRANCH  24  30
ATOM     30  N   UNL     1      -6.210  15.170  24.415  0.00  0.00    +0.000 NA
ATOM     31  H   UNL     1      -6.932  14.575  24.012  0.00  0.00    +0.000 HD
ATOM     32  H   UNL     1      -6.546  16.129  24.352  0.00  0.00    +0.000 HD
ENDBRANCH  24  30
ENDBRANCH  21  27
ENDBRANCH   1  21
BRANCH   2  33
ATOM     33  C   UNL     1      -7.338  14.133  19.259  0.00  0.00    +0.000 C 
ATOM     34  O   UNL     1      -7.916  13.705  20.256  0.00  0.00    +0.000 OA
BRANCH  33  35
ATOM     35  C   UNL     1      -7.627  15.518  18.768  0.00  0.00    +0.000 C 
ATOM     36  C   UNL     1      -7.674  16.688  19.728  0.00  0.00    +0.000 C 
ATOM     37  C   UNL     1      -6.517  16.548  18.783  0.00  0.00    +0.000 C 
ENDBRANCH  33  35
ENDBRANCH   2  33
TORSDOF 7
ENDMDL
