MODEL 1
REMARK VINA RESULT:      -7.1      0.000      0.000
REMARK  Name = 
REMARK  6 active torsions:
REMARK  status: ('A' for Active; 'I' for Inactive)
REMARK    1  A    between atoms: C_1  and  C_2
REMARK    2  A    between atoms: C_2  and  O_3
REMARK    3  A    between atoms: O_3  and  C_4
REMARK    4  A    between atoms: C_7  and  N_8
REMARK    5  A    between atoms: N_8  and  C_9
REMARK    6  A    between atoms: N_12  and  C_13
REMARK                            x       y       z     vdW  Elec       q    Type
REMARK                         _______ _______ _______ _____ _____    ______ ____
ROOT
ATOM      1  N   UNL     1       6.273   5.054  18.334  0.00  0.00    +0.000 N 
ATOM      2  H   UNL     1       7.008   4.673  18.926  0.00  0.00    +0.000 HD
ENDROOT
BRANCH   1   6
ATOM      3  C   UNL     1       6.622   4.511  14.233  0.00  0.00    +0.000 A 
ATOM      4  C   UNL     1       5.867   3.588  14.934  0.00  0.00    +0.000 A 
ATOM      5  C   UNL     1       5.746   3.736  16.322  0.00  0.00    +0.000 A 
ATOM      6  C   UNL     1       6.408   4.771  16.983  0.00  0.00    +0.000 A 
ATOM      7  C   UNL     1       7.153   5.626  16.164  0.00  0.00    +0.000 A 
ATOM      8  N   UNL     1       7.288   5.519  14.822  0.00  0.00    +0.000 NA
BRANCH   3   9
ATOM      9  O   UNL     1       6.702   4.366  12.861  0.00  0.00    +0.000 OA
BRANCH   9  11
ATOM     10  C   UNL     1       4.819   3.426  11.704  0.00  0.00    +0.000 C 
ATOM     11  C   UNL     1       6.120   3.131  12.428  0.00  0.00    +0.000 C 
ENDBRANCH   9  11
ENDBRANCH   3   9
ENDBRANCH   1   6
BRANCH   1  12
ATOM     12  C   UNL     1       4.980   5.162  19.020  0.00  0.00    +0.000 C 
ATOM     13  C   UNL     1       3.915   5.754  18.091  0.00  0.00    +0.000 C 
ATOM     14  C   UNL     1       2.649   4.986  18.407  0.00  0.00    +0.000 C 
ATOM     15  N   UNL     1       3.106   3.710  18.866  0.00  0.00    +0.000 N 
ATOM     16  C   UNL     1       4.416   3.763  19.346  0.00  0.00    +0.000 C 
ATOM     17  O   UNL     1       5.016   2.862  19.917  0.00  0.00    +0.000 OA
BRANCH  15  18
ATOM     18  C   UNL     1       2.193   2.638  19.117  0.00  0.00    +0.000 C 
ATOM     19  C   UNL     1       1.410   2.575  20.405  0.00  0.00    +0.000 C 
ATOM     20  C   UNL     1       0.705   2.863  19.115  0.00  0.00    +0.000 C 
ENDBRANCH  15  18
ENDBRANCH   1  12
TORSDOF 5
ENDMDL
MODEL 2
REMARK VINA RESULT:      -6.9      2.964      4.333
REMARK  Name = 
REMARK  6 active torsions:
REMARK  status: ('A' for Active; 'I' for Inactive)
REMARK    1  A    between atoms: C_1  and  C_2
REMARK    2  A    between atoms: C_2  and  O_3
REMARK    3  A    between atoms: O_3  and  C_4
REMARK    4  A    between atoms: C_7  and  N_8
REMARK    5  A    between atoms: N_8  and  C_9
REMARK    6  A    between atoms: N_12  and  C_13
REMARK                            x       y       z     vdW  Elec       q    Type
REMARK                         _______ _______ _______ _____ _____    ______ ____
ROOT
ATOM      1  N   UNL     1       4.814   4.248  16.303  0.00  0.00    +0.000 N 
ATOM      2  H   UNL     1       4.636   4.483  15.328  0.00  0.00    +0.000 HD
ENDROOT
BRANCH   1   6
ATOM      3  C   UNL     1       7.537   6.903  17.969  0.00  0.00    +0.000 A 
ATOM      4  C   UNL     1       7.561   5.596  18.426  0.00  0.00    +0.000 A 
ATOM      5  C   UNL     1       6.642   4.682  17.894  0.00  0.00    +0.000 A 
ATOM      6  C   UNL     1       5.698   5.095  16.953  0.00  0.00    +0.000 A 
ATOM      7  C   UNL     1       5.766   6.444  16.588  0.00  0.00    +0.000 A 
ATOM      8  N   UNL     1       6.642   7.354  17.073  0.00  0.00    +0.000 NA
BRANCH   3   9
ATOM      9  O   UNL     1       8.473   7.780  18.482  0.00  0.00    +0.000 OA
BRANCH   9  11
ATOM     10  C   UNL     1       9.071  10.073  18.874  0.00  0.00    +0.000 C 
ATOM     11  C   UNL     1       8.234   9.122  18.039  0.00  0.00    +0.000 C 
ENDBRANCH   9  11
ENDBRANCH   3   9
ENDBRANCH   1   6
BRANCH   1  12
ATOM     12  C   UNL     1       3.669   3.606  16.958  0.00  0.00    +0.000 C 
ATOM     13  C   UNL     1       4.100   2.329  17.687  0.00  0.00    +0.000 C 
ATOM     14  C   UNL     1       3.292   2.317  18.968  0.00  0.00    +0.000 C 
ATOM     15  N   UNL     1       3.038   3.697  19.246  0.00  0.00    +0.000 N 
ATOM     16  C   UNL     1       3.125   4.489  18.100  0.00  0.00    +0.000 C 
ATOM     17  O   UNL     1       2.830   5.674  18.013  0.00  0.00    +0.000 OA
BRANCH  15  18
ATOM     18  C   UNL     1       2.427   4.110  20.473  0.00  0.00    +0.000 C 
ATOM     19  C   UNL     1       0.972   3.821  20.746  0.00  0.00    +0.000 C 
ATOM     20  C   UNL     1       2.034   3.107  21.524  0.00  0.00    +0.000 C 
ENDBRANCH  15  18
ENDBRANCH   1  12
TORSDOF 5
ENDMDL
MODEL 3
REMARK VINA RESULT:      -6.9      2.772      4.213
REMARK  Name = 
REMARK  6 active torsions:
REMARK  status: ('A' for Active; 'I' for Inactive)
REMARK    1  A    between atoms: C_1  and  C_2
REMARK    2  A    between atoms: C_2  and  O_3
REMARK    3  A    between atoms: O_3  and  C_4
REMARK    4  A    between atoms: C_7  and  N_8
REMARK    5  A    between atoms: N_8  and  C_9
REMARK    6  A    between atoms: N_12  and  C_13
REMARK                            x       y       z     vdW  Elec       q    Type
REMARK                         _______ _______ _______ _____ _____    ______ ____
ROOT
ATOM      1  N   UNL     1       5.232   3.708  17.482  0.00  0.00    +0.000 N 
ATOM      2  H   UNL     1       5.654   2.978  16.911  0.00  0.00    +0.000 HD
ENDROOT
BRANCH   1   6
ATOM      3  C   UNL     1       7.416   7.235  17.314  0.00  0.00    +0.000 A 
ATOM      4  C   UNL     1       7.699   6.360  18.348  0.00  0.00    +0.000 A 
ATOM      5  C   UNL     1       6.966   5.170  18.440  0.00  0.00    +0.000 A 
ATOM      6  C   UNL     1       5.945   4.896  17.529  0.00  0.00    +0.000 A 
ATOM      7  C   UNL     1       5.746   5.867  16.542  0.00  0.00    +0.000 A 
ATOM      8  N   UNL     1       6.437   7.023  16.417  0.00  0.00    +0.000 NA
BRANCH   3   9
ATOM      9  O   UNL     1       8.172   8.387  17.221  0.00  0.00    +0.000 OA
BRANCH   9  11
ATOM     10  C   UNL     1       8.980  10.363  18.323  0.00  0.00    +0.000 C 
ATOM     11  C   UNL     1       8.394   8.976  18.509  0.00  0.00    +0.000 C 
ENDBRANCH   9  11
ENDBRANCH   3   9
ENDBRANCH   1   6
BRANCH   1  12
ATOM     12  C   UNL     1       3.767   3.635  17.518  0.00  0.00    +0.000 C 
ATOM     13  C   UNL     1       3.291   2.178  17.521  0.00  0.00    +0.000 C 
ATOM     14  C   UNL     1       2.106   2.156  18.464  0.00  0.00    +0.000 C 
ATOM     15  N   UNL     1       2.357   3.221  19.384  0.00  0.00    +0.000 N 
ATOM     16  C   UNL     1       3.224   4.179  18.854  0.00  0.00    +0.000 C 
ATOM     17  O   UNL     1       3.510   5.256  19.361  0.00  0.00    +0.000 OA
BRANCH  15  18
ATOM     18  C   UNL     1       1.530   3.423  20.534  0.00  0.00    +0.000 C 
ATOM     19  C   UNL     1       1.529   2.430  21.669  0.00  0.00    +0.000 C 
ATOM     20  C   UNL     1       2.124   3.789  21.868  0.00  0.00    +0.000 C 
ENDBRANCH  15  18
ENDBRANCH   1  12
TORSDOF 5
ENDMDL
MODEL 4
REMARK VINA RESULT:      -6.8      3.057      4.340
REMARK  Name = 
REMARK  6 active torsions:
REMARK  status: ('A' for Active; 'I' for Inactive)
REMARK    1  A    between atoms: C_1  and  C_2
REMARK    2  A    between atoms: C_2  and  O_3
REMARK    3  A    between atoms: O_3  and  C_4
REMARK    4  A    between atoms: C_7  and  N_8
REMARK    5  A    between atoms: N_8  and  C_9
REMARK    6  A    between atoms: N_12  and  C_13
REMARK                            x       y       z     vdW  Elec       q    Type
REMARK                         _______ _______ _______ _____ _____    ______ ____
ROOT
ATOM      1  N   UNL     1       5.200   3.796  17.410  0.00  0.00    +0.000 N 
ATOM      2  H   UNL     1       5.519   3.102  16.736  0.00  0.00    +0.000 HD
ENDROOT
BRANCH   1   6
ATOM      3  C   UNL     1       7.742   6.958  18.290  0.00  0.00    +0.000 A 
ATOM      4  C   UNL     1       6.847   7.133  17.249  0.00  0.00    +0.000 A 
ATOM      5  C   UNL     1       5.988   6.076  16.918  0.00  0.00    +0.000 A 
ATOM      6  C   UNL     1       6.066   4.861  17.600  0.00  0.00    +0.000 A 
ATOM      7  C   UNL     1       7.024   4.806  18.619  0.00  0.00    +0.000 A 
ATOM      8  N   UNL     1       7.864   5.806  18.972  0.00  0.00    +0.000 NA
BRANCH   3   9
ATOM      9  O   UNL     1       8.557   8.023  18.622  0.00  0.00    +0.000 OA
BRANCH   9  11
ATOM     10  C   UNL     1       9.048  10.363  18.391  0.00  0.00    +0.000 C 
ATOM     11  C   UNL     1       8.185   9.211  17.911  0.00  0.00    +0.000 C 
ENDBRANCH   9  11
ENDBRANCH   3   9
ENDBRANCH   1   6
BRANCH   1  12
ATOM     12  C   UNL     1       3.739   3.912  17.468  0.00  0.00    +0.000 C 
ATOM     13  C   UNL     1       3.072   2.545  17.285  0.00  0.00    +0.000 C 
ATOM     14  C   UNL     1       1.899   2.549  18.243  0.00  0.00    +0.000 C 
ATOM     15  N   UNL     1       2.295   3.436  19.293  0.00  0.00    +0.000 N 
ATOM     16  C   UNL     1       3.280   4.335  18.879  0.00  0.00    +0.000 C 
ATOM     17  O   UNL     1       3.709   5.285  19.520  0.00  0.00    +0.000 OA
BRANCH  15  18
ATOM     18  C   UNL     1       1.507   3.586  20.478  0.00  0.00    +0.000 C 
ATOM     19  C   UNL     1       1.464   2.495  21.520  0.00  0.00    +0.000 C 
ATOM     20  C   UNL     1       2.152   3.790  21.823  0.00  0.00    +0.000 C 
ENDBRANCH  15  18
ENDBRANCH   1  12
TORSDOF 5
ENDMDL
MODEL 5
REMARK VINA RESULT:      -6.8      0.965      1.369
REMARK  Name = 
REMARK  6 active torsions:
REMARK  status: ('A' for Active; 'I' for Inactive)
REMARK    1  A    between atoms: C_1  and  C_2
REMARK    2  A    between atoms: C_2  and  O_3
REMARK    3  A    between atoms: O_3  and  C_4
REMARK    4  A    between atoms: C_7  and  N_8
REMARK    5  A    between atoms: N_8  and  C_9
REMARK    6  A    between atoms: N_12  and  C_13
REMARK                            x       y       z     vdW  Elec       q    Type
REMARK                         _______ _______ _______ _____ _____    ______ ____
ROOT
ATOM      1  N   UNL     1       6.509   4.227  18.216  0.00  0.00    +0.000 N 
ATOM      2  H   UNL     1       6.958   3.380  18.559  0.00  0.00    +0.000 HD
ENDROOT
BRANCH   1   6
ATOM      3  C   UNL     1       6.442   4.288  14.065  0.00  0.00    +0.000 A 
ATOM      4  C   UNL     1       7.285   5.183  14.701  0.00  0.00    +0.000 A 
ATOM      5  C   UNL     1       7.316   5.196  16.101  0.00  0.00    +0.000 A 
ATOM      6  C   UNL     1       6.482   4.352  16.836  0.00  0.00    +0.000 A 
ATOM      7  C   UNL     1       5.664   3.509  16.076  0.00  0.00    +0.000 A 
ATOM      8  N   UNL     1       5.611   3.462  14.725  0.00  0.00    +0.000 NA
BRANCH   3   9
ATOM      9  O   UNL     1       6.450   4.268  12.684  0.00  0.00    +0.000 OA
BRANCH   9  11
ATOM     10  C   UNL     1       6.889   2.265  11.433  0.00  0.00    +0.000 C 
ATOM     11  C   UNL     1       5.841   3.076  12.172  0.00  0.00    +0.000 C 
ENDBRANCH   9  11
ENDBRANCH   3   9
ENDBRANCH   1   6
BRANCH   1  12
ATOM     12  C   UNL     1       5.442   4.711  19.100  0.00  0.00    +0.000 C 
ATOM     13  C   UNL     1       4.472   5.620  18.340  0.00  0.00    +0.000 C 
ATOM     14  C   UNL     1       3.102   5.271  18.881  0.00  0.00    +0.000 C 
ATOM     15  N   UNL     1       3.216   3.908  19.298  0.00  0.00    +0.000 N 
ATOM     16  C   UNL     1       4.540   3.546  19.557  0.00  0.00    +0.000 C 
ATOM     17  O   UNL     1       4.920   2.493  20.050  0.00  0.00    +0.000 OA
BRANCH  15  18
ATOM     18  C   UNL     1       2.073   3.162  19.729  0.00  0.00    +0.000 C 
ATOM     19  C   UNL     1       1.662   3.146  21.180  0.00  0.00    +0.000 C 
ATOM     20  C   UNL     1       0.811   3.853  20.171  0.00  0.00    +0.000 C 
ENDBRANCH  15  18
ENDBRANCH   1  12
TORSDOF 5
ENDMDL
MODEL 6
REMARK VINA RESULT:      -6.7      3.077      4.564
REMARK  Name = 
REMARK  6 active torsions:
REMARK  status: ('A' for Active; 'I' for Inactive)
REMARK    1  A    between atoms: C_1  and  C_2
REMARK    2  A    between atoms: C_2  and  O_3
REMARK    3  A    between atoms: O_3  and  C_4
REMARK    4  A    between atoms: C_7  and  N_8
REMARK    5  A    between atoms: N_8  and  C_9
REMARK    6  A    between atoms: N_12  and  C_13
REMARK                            x       y       z     vdW  Elec       q    Type
REMARK                         _______ _______ _______ _____ _____    ______ ____
ROOT
ATOM      1  N   UNL     1       6.009   4.272  17.784  0.00  0.00    +0.000 N 
ATOM      2  H   UNL     1       6.552   3.578  17.275  0.00  0.00    +0.000 HD
ENDROOT
BRANCH   1   6
ATOM      3  C   UNL     1       7.800   8.017  17.710  0.00  0.00    +0.000 A 
ATOM      4  C   UNL     1       8.237   7.122  18.671  0.00  0.00    +0.000 A 
ATOM      5  C   UNL     1       7.639   5.857  18.731  0.00  0.00    +0.000 A 
ATOM      6  C   UNL     1       6.597   5.525  17.864  0.00  0.00    +0.000 A 
ATOM      7  C   UNL     1       6.236   6.523  16.952  0.00  0.00    +0.000 A 
ATOM      8  N   UNL     1       6.794   7.752  16.859  0.00  0.00    +0.000 NA
BRANCH   3   9
ATOM      9  O   UNL     1       8.426   9.247  17.646  0.00  0.00    +0.000 OA
BRANCH   9  11
ATOM     10  C   UNL     1       9.626  10.988  18.785  0.00  0.00    +0.000 C 
ATOM     11  C   UNL     1       8.920   9.653  18.929  0.00  0.00    +0.000 C 
ENDBRANCH   9  11
ENDBRANCH   3   9
ENDBRANCH   1   6
BRANCH   1  12
ATOM     12  C   UNL     1       4.561   4.056  17.685  0.00  0.00    +0.000 C 
ATOM     13  C   UNL     1       4.239   2.566  17.529  0.00  0.00    +0.000 C 
ATOM     14  C   UNL     1       2.992   2.346  18.359  0.00  0.00    +0.000 C 
ATOM     15  N   UNL     1       3.059   3.344  19.381  0.00  0.00    +0.000 N 
ATOM     16  C   UNL     1       3.861   4.424  19.009  0.00  0.00    +0.000 C 
ATOM     17  O   UNL     1       3.994   5.474  19.625  0.00  0.00    +0.000 OA
BRANCH  15  18
ATOM     18  C   UNL     1       2.127   3.362  20.467  0.00  0.00    +0.000 C 
ATOM     19  C   UNL     1       1.038   4.403  20.534  0.00  0.00    +0.000 C 
ATOM     20  C   UNL     1       0.687   2.972  20.266  0.00  0.00    +0.000 C 
ENDBRANCH  15  18
ENDBRANCH   1  12
TORSDOF 5
ENDMDL
MODEL 7
REMARK VINA RESULT:      -6.6      1.147      1.461
REMARK  Name = 
REMARK  6 active torsions:
REMARK  status: ('A' for Active; 'I' for Inactive)
REMARK    1  A    between atoms: C_1  and  C_2
REMARK    2  A    between atoms: C_2  and  O_3
REMARK    3  A    between atoms: O_3  and  C_4
REMARK    4  A    between atoms: C_7  and  N_8
REMARK    5  A    between atoms: N_8  and  C_9
REMARK    6  A    between atoms: N_12  and  C_13
REMARK                            x       y       z     vdW  Elec       q    Type
REMARK                         _______ _______ _______ _____ _____    ______ ____
ROOT
ATOM      1  N   UNL     1       7.103   5.167  17.351  0.00  0.00    +0.000 N 
ATOM      2  H   UNL     1       7.759   4.613  17.898  0.00  0.00    +0.000 HD
ENDROOT
BRANCH   1   6
ATOM      3  C   UNL     1       6.512   4.156  13.368  0.00  0.00    +0.000 A 
ATOM      4  C   UNL     1       5.823   3.424  14.319  0.00  0.00    +0.000 A 
ATOM      5  C   UNL     1       6.016   3.731  15.672  0.00  0.00    +0.000 A 
ATOM      6  C   UNL     1       6.916   4.729  16.049  0.00  0.00    +0.000 A 
ATOM      7  C   UNL     1       7.563   5.382  14.995  0.00  0.00    +0.000 A 
ATOM      8  N   UNL     1       7.398   5.119  13.678  0.00  0.00    +0.000 NA
BRANCH   3   9
ATOM      9  O   UNL     1       6.283   3.859  12.038  0.00  0.00    +0.000 OA
BRANCH   9  11
ATOM     10  C   UNL     1       4.131   3.220  11.182  0.00  0.00    +0.000 C 
ATOM     11  C   UNL     1       5.386   2.750  11.894  0.00  0.00    +0.000 C 
ENDBRANCH   9  11
ENDBRANCH   3   9
ENDBRANCH   1   6
BRANCH   1  12
ATOM     12  C   UNL     1       6.047   5.778  18.166  0.00  0.00    +0.000 C 
ATOM     13  C   UNL     1       5.149   6.678  17.312  0.00  0.00    +0.000 C 
ATOM     14  C   UNL     1       3.748   6.450  17.842  0.00  0.00    +0.000 C 
ATOM     15  N   UNL     1       3.774   5.120  18.366  0.00  0.00    +0.000 N 
ATOM     16  C   UNL     1       5.068   4.706  18.686  0.00  0.00    +0.000 C 
ATOM     17  O   UNL     1       5.376   3.674  19.269  0.00  0.00    +0.000 OA
BRANCH  15  18
ATOM     18  C   UNL     1       2.580   4.475  18.821  0.00  0.00    +0.000 C 
ATOM     19  C   UNL     1       1.476   4.123  17.856  0.00  0.00    +0.000 C 
ATOM     20  C   UNL     1       2.293   3.036  18.484  0.00  0.00    +0.000 C 
ENDBRANCH  15  18
ENDBRANCH   1  12
TORSDOF 5
ENDMDL
MODEL 8
REMARK VINA RESULT:      -6.6      1.016      1.096
REMARK  Name = 
REMARK  6 active torsions:
REMARK  status: ('A' for Active; 'I' for Inactive)
REMARK    1  A    between atoms: C_1  and  C_2
REMARK    2  A    between atoms: C_2  and  O_3
REMARK    3  A    between atoms: O_3  and  C_4
REMARK    4  A    between atoms: C_7  and  N_8
REMARK    5  A    between atoms: N_8  and  C_9
REMARK    6  A    between atoms: N_12  and  C_13
REMARK                            x       y       z     vdW  Elec       q    Type
REMARK                         _______ _______ _______ _____ _____    ______ ____
ROOT
ATOM      1  N   UNL     1       5.778   5.952  18.815  0.00  0.00    +0.000 N 
ATOM      2  H   UNL     1       6.541   5.954  19.489  0.00  0.00    +0.000 HD
ENDROOT
BRANCH   1   6
ATOM      3  C   UNL     1       6.583   4.989  14.857  0.00  0.00    +0.000 A 
ATOM      4  C   UNL     1       7.267   4.287  15.835  0.00  0.00    +0.000 A 
ATOM      5  C   UNL     1       7.029   4.602  17.179  0.00  0.00    +0.000 A 
ATOM      6  C   UNL     1       6.149   5.631  17.518  0.00  0.00    +0.000 A 
ATOM      7  C   UNL     1       5.534   6.275  16.439  0.00  0.00    +0.000 A 
ATOM      8  N   UNL     1       5.733   5.994  15.131  0.00  0.00    +0.000 NA
BRANCH   3   9
ATOM      9  O   UNL     1       6.807   4.640  13.540  0.00  0.00    +0.000 OA
BRANCH   9  11
ATOM     10  C   UNL     1       6.442   2.950  11.873  0.00  0.00    +0.000 C 
ATOM     11  C   UNL     1       5.871   3.652  13.091  0.00  0.00    +0.000 C 
ENDBRANCH   9  11
ENDBRANCH   3   9
ENDBRANCH   1   6
BRANCH   1  12
ATOM     12  C   UNL     1       4.487   5.585  19.408  0.00  0.00    +0.000 C 
ATOM     13  C   UNL     1       3.326   6.181  18.606  0.00  0.00    +0.000 C 
ATOM     14  C   UNL     1       2.258   5.108  18.604  0.00  0.00    +0.000 C 
ATOM     15  N   UNL     1       2.982   3.880  18.724  0.00  0.00    +0.000 N 
ATOM     16  C   UNL     1       4.243   4.066  19.293  0.00  0.00    +0.000 C 
ATOM     17  O   UNL     1       5.022   3.186  19.634  0.00  0.00    +0.000 OA
BRANCH  15  18
ATOM     18  C   UNL     1       2.327   2.614  18.602  0.00  0.00    +0.000 C 
ATOM     19  C   UNL     1       1.667   1.967  19.795  0.00  0.00    +0.000 C 
ATOM     20  C   UNL     1       0.827   2.500  18.676  0.00  0.00    +0.000 C 
ENDBRANCH  15  18
ENDBRANCH   1  12
TORSDOF 5
ENDMDL
MODEL 9
REMARK VINA RESULT:      -6.5      2.907      4.318
REMARK  Name = 
REMARK  6 active torsions:
REMARK  status: ('A' for Active; 'I' for Inactive)
REMARK    1  A    between atoms: C_1  and  C_2
REMARK    2  A    between atoms: C_2  and  O_3
REMARK    3  A    between atoms: O_3  and  C_4
REMARK    4  A    between atoms: C_7  and  N_8
REMARK    5  A    between atoms: N_8  and  C_9
REMARK    6  A    between atoms: N_12  and  C_13
REMARK                            x       y       z     vdW  Elec       q    Type
REMARK                         _______ _______ _______ _____ _____    ______ ____
ROOT
ATOM      1  N   UNL     1       4.566   4.096  16.172  0.00  0.00    +0.000 N 
ATOM      2  H   UNL     1       4.228   4.305  15.234  0.00  0.00    +0.000 HD
ENDROOT
BRANCH   1   6
ATOM      3  C   UNL     1       7.352   6.628  17.922  0.00  0.00    +0.000 A 
ATOM      4  C   UNL     1       6.387   7.205  17.115  0.00  0.00    +0.000 A 
ATOM      5  C   UNL     1       5.444   6.373  16.497  0.00  0.00    +0.000 A 
ATOM      6  C   UNL     1       5.506   4.989  16.663  0.00  0.00    +0.000 A 
ATOM      7  C   UNL     1       6.538   4.530  17.488  0.00  0.00    +0.000 A 
ATOM      8  N   UNL     1       7.462   5.301  18.107  0.00  0.00    +0.000 NA
BRANCH   3   9
ATOM      9  O   UNL     1       8.252   7.468  18.549  0.00  0.00    +0.000 OA
BRANCH   9  11
ATOM     10  C   UNL     1       9.050   9.712  18.865  0.00  0.00    +0.000 C 
ATOM     11  C   UNL     1       8.197   8.794  18.008  0.00  0.00    +0.000 C 
ENDBRANCH   9  11
ENDBRANCH   3   9
ENDBRANCH   1   6
BRANCH   1  12
ATOM     12  C   UNL     1       3.566   3.423  17.008  0.00  0.00    +0.000 C 
ATOM     13  C   UNL     1       4.210   2.314  17.846  0.00  0.00    +0.000 C 
ATOM     14  C   UNL     1       3.514   2.384  19.189  0.00  0.00    +0.000 C 
ATOM     15  N   UNL     1       3.113   3.751  19.316  0.00  0.00    +0.000 N 
ATOM     16  C   UNL     1       3.008   4.385  18.076  0.00  0.00    +0.000 C 
ATOM     17  O   UNL     1       2.562   5.506  17.871  0.00  0.00    +0.000 OA
BRANCH  15  18
ATOM     18  C   UNL     1       2.554   4.254  20.534  0.00  0.00    +0.000 C 
ATOM     19  C   UNL     1       1.073   4.162  20.800  0.00  0.00    +0.000 C 
ATOM     20  C   UNL     1       2.027   3.324  21.593  0.00  0.00    +0.000 C 
ENDBRANCH  15  18
ENDBRANCH   1  12
TORSDOF 5
ENDMDL
