MODEL 1
REMARK VINA RESULT:      -8.1      0.000      0.000
REMARK  Name = 
REMARK  5 active torsions:
REMARK  status: ('A' for Active; 'I' for Inactive)
REMARK    1  A    between atoms: C_2  and  C_10
REMARK    2  A    between atoms: N_3  and  C_4
REMARK    3  A    between atoms: C_11  and  O_12
REMARK    4  A    between atoms: N_15  and  C_16
REMARK    5  A    between atoms: C_16  and  C_17
REMARK                            x       y       z     vdW  Elec       q    Type
REMARK                         _______ _______ _______ _____ _____    ______ ____
ROOT
ATOM      1  C   UNL     1       2.000   7.864  19.055  0.00  0.00    +0.000 A 
ATOM      2  C   UNL     1       1.750   7.757  20.374  0.00  0.00    +0.000 A 
ATOM      3  C   UNL     1       0.943   8.733  21.091  0.00  0.00    +0.000 A 
ATOM      4  C   UNL     1       0.361   9.746  20.425  0.00  0.00    +0.000 A 
ATOM      5  N   UNL     1       0.588   9.895  19.040  0.00  0.00    +0.000 N 
ATOM      6  C   UNL     1       1.443   9.040  18.332  0.00  0.00    +0.000 A 
ATOM      7  O   UNL     1       1.770   9.223  17.154  0.00  0.00    +0.000 OA
ATOM      8  C   UNL     1      -0.521  10.744  21.138  0.00  0.00    +0.000 C 
ATOM      9  C   UNL     1      -0.798  10.553  22.627  0.00  0.00    +0.000 C 
ATOM     10  C   UNL     1       0.050   9.552  23.389  0.00  0.00    +0.000 C 
ATOM     11  C   UNL     1       0.814   8.516  22.578  0.00  0.00    +0.000 C 
ENDROOT
BRANCH   1  13
ATOM     12  O   UNL     1       2.347   5.654  18.309  0.00  0.00    +0.000 OA
ATOM     13  C   UNL     1       2.814   6.798  18.385  0.00  0.00    +0.000 C 
ATOM     14  N   UNL     1       4.063   7.159  17.938  0.00  0.00    +0.000 N 
ATOM     15  H   UNL     1       4.379   8.105  18.163  0.00  0.00    +0.000 HD
BRANCH  14  16
ATOM     16  C   UNL     1       4.973   6.324  17.251  0.00  0.00    +0.000 A 
ATOM     17  C   UNL     1       5.061   6.250  15.861  0.00  0.00    +0.000 A 
ATOM     18  C   UNL     1       5.975   5.385  15.262  0.00  0.00    +0.000 A 
ATOM     19  C   UNL     1       6.781   4.613  16.077  0.00  0.00    +0.000 A 
ATOM     20  N   UNL     1       6.748   4.667  17.425  0.00  0.00    +0.000 NA
ATOM     21  C   UNL     1       5.853   5.526  17.978  0.00  0.00    +0.000 A 
ENDBRANCH  14  16
ENDBRANCH   1  13
BRANCH   2  22
ATOM     22  O   UNL     1       2.214   6.725  21.173  0.00  0.00    +0.000 OA
ATOM     23  H   UNL     1       2.772   6.127  20.624  0.00  0.00    +0.000 HD
ENDBRANCH   2  22
BRANCH   5  24
ATOM     24  C   UNL     1       0.069  11.047  18.287  0.00  0.00    +0.000 C 
BRANCH  24  25
ATOM     25  C   UNL     1      -1.368  10.979  17.801  0.00  0.00    +0.000 A 
ATOM     26  C   UNL     1      -1.853   9.997  16.927  0.00  0.00    +0.000 A 
ATOM     27  C   UNL     1      -3.227   9.860  16.701  0.00  0.00    +0.000 A 
ATOM     28  C   UNL     1      -4.133  10.716  17.324  0.00  0.00    +0.000 A 
ATOM     29  C   UNL     1      -3.666  11.738  18.143  0.00  0.00    +0.000 A 
ATOM     30  C   UNL     1      -2.296  11.870  18.376  0.00  0.00    +0.000 A 
ENDBRANCH  24  25
ENDBRANCH   5  24
TORSDOF 5
ENDMDL
MODEL 2
REMARK VINA RESULT:      -8.0      0.615      1.310
REMARK  Name = 
REMARK  5 active torsions:
REMARK  status: ('A' for Active; 'I' for Inactive)
REMARK    1  A    between atoms: C_2  and  C_10
REMARK    2  A    between atoms: N_3  and  C_4
REMARK    3  A    between atoms: C_11  and  O_12
REMARK    4  A    between atoms: N_15  and  C_16
REMARK    5  A    between atoms: C_16  and  C_17
REMARK                            x       y       z     vdW  Elec       q    Type
REMARK                         _______ _______ _______ _____ _____    ______ ____
ROOT
ATOM      1  C   UNL     1       1.976   7.921  19.062  0.00  0.00    +0.000 A 
ATOM      2  C   UNL     1       1.742   7.825  20.385  0.00  0.00    +0.000 A 
ATOM      3  C   UNL     1       0.900   8.775  21.095  0.00  0.00    +0.000 A 
ATOM      4  C   UNL     1       0.268   9.751  20.418  0.00  0.00    +0.000 A 
ATOM      5  N   UNL     1       0.477   9.889  19.030  0.00  0.00    +0.000 N 
ATOM      6  C   UNL     1       1.363   9.061  18.326  0.00  0.00    +0.000 A 
ATOM      7  O   UNL     1       1.672   9.240  17.143  0.00  0.00    +0.000 OA
ATOM      8  C   UNL     1      -0.651  10.721  21.124  0.00  0.00    +0.000 C 
ATOM      9  C   UNL     1      -0.907  10.541  22.619  0.00  0.00    +0.000 C 
ATOM     10  C   UNL     1      -0.010   9.589  23.388  0.00  0.00    +0.000 C 
ATOM     11  C   UNL     1       0.792   8.576  22.585  0.00  0.00    +0.000 C 
ENDROOT
BRANCH   1  13
ATOM     12  O   UNL     1       2.420   5.716  18.358  0.00  0.00    +0.000 OA
ATOM     13  C   UNL     1       2.831   6.882  18.402  0.00  0.00    +0.000 C 
ATOM     14  N   UNL     1       4.054   7.294  17.925  0.00  0.00    +0.000 N 
ATOM     15  H   UNL     1       4.326   8.259  18.124  0.00  0.00    +0.000 HD
BRANCH  14  16
ATOM     16  C   UNL     1       4.993   6.489  17.240  0.00  0.00    +0.000 A 
ATOM     17  C   UNL     1       5.892   5.634  17.875  0.00  0.00    +0.000 A 
ATOM     18  C   UNL     1       6.800   4.889  17.125  0.00  0.00    +0.000 A 
ATOM     19  C   UNL     1       6.781   5.022  15.750  0.00  0.00    +0.000 A 
ATOM     20  N   UNL     1       5.915   5.819  15.089  0.00  0.00    +0.000 NA
ATOM     21  C   UNL     1       5.038   6.525  15.848  0.00  0.00    +0.000 A 
ENDBRANCH  14  16
ENDBRANCH   1  13
BRANCH   2  22
ATOM     22  O   UNL     1       2.258   6.826  21.195  0.00  0.00    +0.000 OA
ATOM     23  H   UNL     1       2.791   7.243  21.911  0.00  0.00    +0.000 HD
ENDBRANCH   2  22
BRANCH   5  24
ATOM     24  C   UNL     1      -0.098  11.005  18.264  0.00  0.00    +0.000 C 
BRANCH  24  25
ATOM     25  C   UNL     1      -1.542  10.877  17.811  0.00  0.00    +0.000 A 
ATOM     26  C   UNL     1      -2.576  11.715  18.249  0.00  0.00    +0.000 A 
ATOM     27  C   UNL     1      -3.828  11.687  17.625  0.00  0.00    +0.000 A 
ATOM     28  C   UNL     1      -4.073  10.806  16.574  0.00  0.00    +0.000 A 
ATOM     29  C   UNL     1      -3.080   9.921  16.170  0.00  0.00    +0.000 A 
ATOM     30  C   UNL     1      -1.827   9.954  16.786  0.00  0.00    +0.000 A 
ENDBRANCH  24  25
ENDBRANCH   5  24
TORSDOF 5
ENDMDL
MODEL 3
REMARK VINA RESULT:      -8.0      1.707      2.774
REMARK  Name = 
REMARK  5 active torsions:
REMARK  status: ('A' for Active; 'I' for Inactive)
REMARK    1  A    between atoms: C_2  and  C_10
REMARK    2  A    between atoms: N_3  and  C_4
REMARK    3  A    between atoms: C_11  and  O_12
REMARK    4  A    between atoms: N_15  and  C_16
REMARK    5  A    between atoms: C_16  and  C_17
REMARK                            x       y       z     vdW  Elec       q    Type
REMARK                         _______ _______ _______ _____ _____    ______ ____
ROOT
ATOM      1  C   UNL     1       2.045   8.003  19.044  0.00  0.00    +0.000 A 
ATOM      2  C   UNL     1       1.680   7.859  20.332  0.00  0.00    +0.000 A 
ATOM      3  C   UNL     1       0.897   8.865  21.033  0.00  0.00    +0.000 A 
ATOM      4  C   UNL     1       0.451   9.950  20.375  0.00  0.00    +0.000 A 
ATOM      5  N   UNL     1       0.802  10.141  19.022  0.00  0.00    +0.000 N 
ATOM      6  C   UNL     1       1.643   9.251  18.340  0.00  0.00    +0.000 A 
ATOM      7  O   UNL     1       2.077   9.458  17.202  0.00  0.00    +0.000 OA
ATOM      8  C   UNL     1      -0.405  10.985  21.067  0.00  0.00    +0.000 C 
ATOM      9  C   UNL     1      -0.816  10.752  22.519  0.00  0.00    +0.000 C 
ATOM     10  C   UNL     1      -0.115   9.652  23.293  0.00  0.00    +0.000 C 
ATOM     11  C   UNL     1       0.630   8.595  22.492  0.00  0.00    +0.000 C 
ENDROOT
BRANCH   1  13
ATOM     12  O   UNL     1       2.311   5.782  18.298  0.00  0.00    +0.000 OA
ATOM     13  C   UNL     1       2.826   6.904  18.387  0.00  0.00    +0.000 C 
ATOM     14  N   UNL     1       4.097   7.212  17.965  0.00  0.00    +0.000 N 
ATOM     15  H   UNL     1       4.449   8.144  18.199  0.00  0.00    +0.000 HD
BRANCH  14  16
ATOM     16  C   UNL     1       4.984   6.341  17.293  0.00  0.00    +0.000 A 
ATOM     17  C   UNL     1       5.067   6.237  15.905  0.00  0.00    +0.000 A 
ATOM     18  C   UNL     1       5.957   5.337  15.321  0.00  0.00    +0.000 A 
ATOM     19  C   UNL     1       6.744   4.560  16.151  0.00  0.00    +0.000 A 
ATOM     20  N   UNL     1       6.715   4.641  17.498  0.00  0.00    +0.000 NA
ATOM     21  C   UNL     1       5.844   5.534  18.034  0.00  0.00    +0.000 A 
ENDBRANCH  14  16
ENDBRANCH   1  13
BRANCH   2  22
ATOM     22  O   UNL     1       1.997   6.758  21.112  0.00  0.00    +0.000 OA
ATOM     23  H   UNL     1       1.187   6.466  21.590  0.00  0.00    +0.000 HD
ENDBRANCH   2  22
BRANCH   5  24
ATOM     24  C   UNL     1       0.437  11.363  18.289  0.00  0.00    +0.000 C 
BRANCH  24  25
ATOM     25  C   UNL     1       1.255  12.614  18.555  0.00  0.00    +0.000 A 
ATOM     26  C   UNL     1       2.625  12.725  18.281  0.00  0.00    +0.000 A 
ATOM     27  C   UNL     1       3.265  13.968  18.337  0.00  0.00    +0.000 A 
ATOM     28  C   UNL     1       2.552  15.112  18.693  0.00  0.00    +0.000 A 
ATOM     29  C   UNL     1       1.208  15.010  19.032  0.00  0.00    +0.000 A 
ATOM     30  C   UNL     1       0.567  13.771  18.968  0.00  0.00    +0.000 A 
ENDBRANCH  24  25
ENDBRANCH   5  24
TORSDOF 5
ENDMDL
MODEL 4
REMARK VINA RESULT:      -7.6      2.403      8.037
REMARK  Name = 
REMARK  5 active torsions:
REMARK  status: ('A' for Active; 'I' for Inactive)
REMARK    1  A    between atoms: C_2  and  C_10
REMARK    2  A    between atoms: N_3  and  C_4
REMARK    3  A    between atoms: C_11  and  O_12
REMARK    4  A    between atoms: N_15  and  C_16
REMARK    5  A    between atoms: C_16  and  C_17
REMARK                            x       y       z     vdW  Elec       q    Type
REMARK                         _______ _______ _______ _____ _____    ______ ____
ROOT
ATOM      1  C   UNL     1       2.065   6.756  19.490  0.00  0.00    +0.000 A 
ATOM      2  C   UNL     1       1.668   5.503  19.783  0.00  0.00    +0.000 A 
ATOM      3  C   UNL     1       2.249   4.335  19.140  0.00  0.00    +0.000 A 
ATOM      4  C   UNL     1       3.266   4.480  18.272  0.00  0.00    +0.000 A 
ATOM      5  N   UNL     1       3.721   5.774  17.938  0.00  0.00    +0.000 N 
ATOM      6  C   UNL     1       3.118   6.930  18.453  0.00  0.00    +0.000 A 
ATOM      7  O   UNL     1       3.402   8.072  18.079  0.00  0.00    +0.000 OA
ATOM      8  C   UNL     1       3.920   3.281  17.627  0.00  0.00    +0.000 C 
ATOM      9  C   UNL     1       3.451   1.883  18.024  0.00  0.00    +0.000 C 
ATOM     10  C   UNL     1       2.164   1.758  18.817  0.00  0.00    +0.000 C 
ATOM     11  C   UNL     1       1.649   3.005  19.520  0.00  0.00    +0.000 C 
ENDROOT
BRANCH   1  13
ATOM     12  O   UNL     1       1.255   7.801  21.442  0.00  0.00    +0.000 OA
ATOM     13  C   UNL     1       1.436   7.903  20.222  0.00  0.00    +0.000 C 
ATOM     14  N   UNL     1       1.054   8.987  19.468  0.00  0.00    +0.000 N 
ATOM     15  H   UNL     1       1.154   8.903  18.454  0.00  0.00    +0.000 HD
BRANCH  14  16
ATOM     16  C   UNL     1       0.481  10.182  19.959  0.00  0.00    +0.000 A 
ATOM     17  C   UNL     1      -0.813  10.603  19.659  0.00  0.00    +0.000 A 
ATOM     18  C   UNL     1      -1.296  11.806  20.171  0.00  0.00    +0.000 A 
ATOM     19  C   UNL     1      -0.462  12.560  20.975  0.00  0.00    +0.000 A 
ATOM     20  N   UNL     1       0.789  12.183  21.311  0.00  0.00    +0.000 NA
ATOM     21  C   UNL     1       1.226  11.002  20.804  0.00  0.00    +0.000 A 
ENDBRANCH  14  16
ENDBRANCH   1  13
BRANCH   2  22
ATOM     22  O   UNL     1       0.690   5.195  20.715  0.00  0.00    +0.000 OA
ATOM     23  H   UNL     1       0.265   4.345  20.459  0.00  0.00    +0.000 HD
ENDBRANCH   2  22
BRANCH   5  24
ATOM     24  C   UNL     1       4.751   5.994  16.911  0.00  0.00    +0.000 C 
BRANCH  24  25
ATOM     25  C   UNL     1       6.121   6.454  17.376  0.00  0.00    +0.000 A 
ATOM     26  C   UNL     1       6.702   7.676  17.009  0.00  0.00    +0.000 A 
ATOM     27  C   UNL     1       7.859   8.135  17.649  0.00  0.00    +0.000 A 
ATOM     28  C   UNL     1       8.465   7.371  18.645  0.00  0.00    +0.000 A 
ATOM     29  C   UNL     1       7.940   6.127  18.976  0.00  0.00    +0.000 A 
ATOM     30  C   UNL     1       6.780   5.672  18.344  0.00  0.00    +0.000 A 
ENDBRANCH  24  25
ENDBRANCH   5  24
TORSDOF 5
ENDMDL
MODEL 5
REMARK VINA RESULT:      -7.6      2.366      7.781
REMARK  Name = 
REMARK  5 active torsions:
REMARK  status: ('A' for Active; 'I' for Inactive)
REMARK    1  A    between atoms: C_2  and  C_10
REMARK    2  A    between atoms: N_3  and  C_4
REMARK    3  A    between atoms: C_11  and  O_12
REMARK    4  A    between atoms: N_15  and  C_16
REMARK    5  A    between atoms: C_16  and  C_17
REMARK                            x       y       z     vdW  Elec       q    Type
REMARK                         _______ _______ _______ _____ _____    ______ ____
ROOT
ATOM      1  C   UNL     1       1.930   7.499  19.521  0.00  0.00    +0.000 A 
ATOM      2  C   UNL     1       1.485   6.467  20.263  0.00  0.00    +0.000 A 
ATOM      3  C   UNL     1       1.995   5.115  20.096  0.00  0.00    +0.000 A 
ATOM      4  C   UNL     1       2.992   4.874  19.226  0.00  0.00    +0.000 A 
ATOM      5  N   UNL     1       3.496   5.925  18.430  0.00  0.00    +0.000 N 
ATOM      6  C   UNL     1       2.960   7.220  18.484  0.00  0.00    +0.000 A 
ATOM      7  O   UNL     1       3.284   8.125  17.709  0.00  0.00    +0.000 OA
ATOM      8  C   UNL     1       3.573   3.489  19.068  0.00  0.00    +0.000 C 
ATOM      9  C   UNL     1       3.053   2.364  19.961  0.00  0.00    +0.000 C 
ATOM     10  C   UNL     1       1.784   2.610  20.755  0.00  0.00    +0.000 C 
ATOM     11  C   UNL     1       1.346   4.054  20.949  0.00  0.00    +0.000 C 
ENDROOT
BRANCH   1  13
ATOM     12  O   UNL     1       1.190   9.222  20.951  0.00  0.00    +0.000 OA
ATOM     13  C   UNL     1       1.373   8.867  19.779  0.00  0.00    +0.000 C 
ATOM     14  N   UNL     1       1.056   9.627  18.678  0.00  0.00    +0.000 N 
ATOM     15  H   UNL     1       1.148   9.177  17.764  0.00  0.00    +0.000 HD
BRANCH  14  16
ATOM     16  C   UNL     1       0.558  10.949  18.697  0.00  0.00    +0.000 A 
ATOM     17  C   UNL     1      -0.798  11.267  18.739  0.00  0.00    +0.000 A 
ATOM     18  C   UNL     1      -1.207  12.600  18.735  0.00  0.00    +0.000 A 
ATOM     19  C   UNL     1      -0.237  13.584  18.687  0.00  0.00    +0.000 A 
ATOM     20  N   UNL     1       1.087  13.326  18.668  0.00  0.00    +0.000 NA
ATOM     21  C   UNL     1       1.452  12.018  18.682  0.00  0.00    +0.000 A 
ENDBRANCH  14  16
ENDBRANCH   1  13
BRANCH   2  22
ATOM     22  O   UNL     1       0.520   6.578  21.252  0.00  0.00    +0.000 OA
ATOM     23  H   UNL     1      -0.147   5.865  21.125  0.00  0.00    +0.000 HD
ENDBRANCH   2  22
BRANCH   5  24
ATOM     24  C   UNL     1       4.505   5.695  17.386  0.00  0.00    +0.000 C 
BRANCH  24  25
ATOM     25  C   UNL     1       5.924   6.159  17.664  0.00  0.00    +0.000 A 
ATOM     26  C   UNL     1       6.506   7.290  17.075  0.00  0.00    +0.000 A 
ATOM     27  C   UNL     1       7.728   7.787  17.543  0.00  0.00    +0.000 A 
ATOM     28  C   UNL     1       8.396   7.149  18.586  0.00  0.00    +0.000 A 
ATOM     29  C   UNL     1       7.865   5.988  19.138  0.00  0.00    +0.000 A 
ATOM     30  C   UNL     1       6.642   5.496  18.678  0.00  0.00    +0.000 A 
ENDBRANCH  24  25
ENDBRANCH   5  24
TORSDOF 5
ENDMDL
MODEL 6
REMARK VINA RESULT:      -7.6      1.789      2.974
REMARK  Name = 
REMARK  5 active torsions:
REMARK  status: ('A' for Active; 'I' for Inactive)
REMARK    1  A    between atoms: C_2  and  C_10
REMARK    2  A    between atoms: N_3  and  C_4
REMARK    3  A    between atoms: C_11  and  O_12
REMARK    4  A    between atoms: N_15  and  C_16
REMARK    5  A    between atoms: C_16  and  C_17
REMARK                            x       y       z     vdW  Elec       q    Type
REMARK                         _______ _______ _______ _____ _____    ______ ____
ROOT
ATOM      1  C   UNL     1       1.930   8.172  19.114  0.00  0.00    +0.000 A 
ATOM      2  C   UNL     1       1.562   8.067  20.406  0.00  0.00    +0.000 A 
ATOM      3  C   UNL     1       0.743   9.074  21.063  0.00  0.00    +0.000 A 
ATOM      4  C   UNL     1       0.268  10.119  20.361  0.00  0.00    +0.000 A 
ATOM      5  N   UNL     1       0.621  10.268  19.003  0.00  0.00    +0.000 N 
ATOM      6  C   UNL     1       1.494   9.379  18.360  0.00  0.00    +0.000 A 
ATOM      7  O   UNL     1       1.929   9.555  17.217  0.00  0.00    +0.000 OA
ATOM      8  C   UNL     1      -0.624  11.153  21.007  0.00  0.00    +0.000 C 
ATOM      9  C   UNL     1      -1.037  10.964  22.465  0.00  0.00    +0.000 C 
ATOM     10  C   UNL     1      -0.307   9.917  23.285  0.00  0.00    +0.000 C 
ATOM     11  C   UNL     1       0.476   8.853  22.530  0.00  0.00    +0.000 C 
ENDROOT
BRANCH   1  13
ATOM     12  O   UNL     1       2.307   5.917  18.537  0.00  0.00    +0.000 OA
ATOM     13  C   UNL     1       2.748   7.074  18.505  0.00  0.00    +0.000 C 
ATOM     14  N   UNL     1       3.972   7.425  17.988  0.00  0.00    +0.000 N 
ATOM     15  H   UNL     1       4.272   8.393  18.125  0.00  0.00    +0.000 HD
BRANCH  14  16
ATOM     16  C   UNL     1       4.880   6.557  17.338  0.00  0.00    +0.000 A 
ATOM     17  C   UNL     1       5.666   5.618  18.003  0.00  0.00    +0.000 A 
ATOM     18  C   UNL     1       6.552   4.813  17.289  0.00  0.00    +0.000 A 
ATOM     19  C   UNL     1       6.626   4.974  15.918  0.00  0.00    +0.000 A 
ATOM     20  N   UNL     1       5.870   5.854  15.228  0.00  0.00    +0.000 NA
ATOM     21  C   UNL     1       5.011   6.616  15.952  0.00  0.00    +0.000 A 
ENDBRANCH  14  16
ENDBRANCH   1  13
BRANCH   2  22
ATOM     22  O   UNL     1       1.907   7.008  21.229  0.00  0.00    +0.000 OA
ATOM     23  H   UNL     1       2.768   6.639  20.926  0.00  0.00    +0.000 HD
ENDBRANCH   2  22
BRANCH   5  24
ATOM     24  C   UNL     1       0.224  11.449  18.221  0.00  0.00    +0.000 C 
BRANCH  24  25
ATOM     25  C   UNL     1       0.929  12.760  18.520  0.00  0.00    +0.000 A 
ATOM     26  C   UNL     1       0.262  13.956  18.818  0.00  0.00    +0.000 A 
ATOM     27  C   UNL     1       0.967  15.064  19.302  0.00  0.00    +0.000 A 
ATOM     28  C   UNL     1       2.349  15.000  19.472  0.00  0.00    +0.000 A 
ATOM     29  C   UNL     1       3.035  13.844  19.119  0.00  0.00    +0.000 A 
ATOM     30  C   UNL     1       2.331  12.735  18.644  0.00  0.00    +0.000 A 
ENDBRANCH  24  25
ENDBRANCH   5  24
TORSDOF 5
ENDMDL
MODEL 7
REMARK VINA RESULT:      -7.5      1.942      2.155
REMARK  Name = 
REMARK  5 active torsions:
REMARK  status: ('A' for Active; 'I' for Inactive)
REMARK    1  A    between atoms: C_2  and  C_10
REMARK    2  A    between atoms: N_3  and  C_4
REMARK    3  A    between atoms: C_11  and  O_12
REMARK    4  A    between atoms: N_15  and  C_16
REMARK    5  A    between atoms: C_16  and  C_17
REMARK                            x       y       z     vdW  Elec       q    Type
REMARK                         _______ _______ _______ _____ _____    ______ ____
ROOT
ATOM      1  C   UNL     1       1.562   8.218  19.387  0.00  0.00    +0.000 A 
ATOM      2  C   UNL     1       1.290   8.265  20.705  0.00  0.00    +0.000 A 
ATOM      3  C   UNL     1       0.443   9.296  21.286  0.00  0.00    +0.000 A 
ATOM      4  C   UNL     1      -0.154  10.203  20.492  0.00  0.00    +0.000 A 
ATOM      5  N   UNL     1       0.097  10.190  19.104  0.00  0.00    +0.000 N 
ATOM      6  C   UNL     1       0.988   9.281  18.518  0.00  0.00    +0.000 A 
ATOM      7  O   UNL     1       1.333   9.330  17.332  0.00  0.00    +0.000 OA
ATOM      8  C   UNL     1      -1.076  11.254  21.064  0.00  0.00    +0.000 C 
ATOM      9  C   UNL     1      -1.376  11.237  22.562  0.00  0.00    +0.000 C 
ATOM     10  C   UNL     1      -0.516  10.360  23.453  0.00  0.00    +0.000 C 
ATOM     11  C   UNL     1       0.291   9.257  22.786  0.00  0.00    +0.000 C 
ENDROOT
BRANCH   1  13
ATOM     12  O   UNL     1       3.423   7.388  18.201  0.00  0.00    +0.000 OA
ATOM     13  C   UNL     1       2.419   7.103  18.866  0.00  0.00    +0.000 C 
ATOM     14  N   UNL     1       1.996   5.821  19.126  0.00  0.00    +0.000 N 
ATOM     15  H   UNL     1       1.090   5.718  19.587  0.00  0.00    +0.000 HD
BRANCH  14  16
ATOM     16  C   UNL     1       2.670   4.634  18.760  0.00  0.00    +0.000 A 
ATOM     17  C   UNL     1       2.353   3.877  17.634  0.00  0.00    +0.000 A 
ATOM     18  C   UNL     1       3.056   2.706  17.355  0.00  0.00    +0.000 A 
ATOM     19  C   UNL     1       4.064   2.323  18.220  0.00  0.00    +0.000 A 
ATOM     20  N   UNL     1       4.422   3.034  19.310  0.00  0.00    +0.000 NA
ATOM     21  C   UNL     1       3.724   4.174  19.548  0.00  0.00    +0.000 A 
ENDBRANCH  14  16
ENDBRANCH   1  13
BRANCH   2  22
ATOM     22  O   UNL     1       1.767   7.351  21.631  0.00  0.00    +0.000 OA
ATOM     23  H   UNL     1       2.736   7.238  21.494  0.00  0.00    +0.000 HD
ENDBRANCH   2  22
BRANCH   5  24
ATOM     24  C   UNL     1      -0.439  11.226  18.208  0.00  0.00    +0.000 C 
BRANCH  24  25
ATOM     25  C   UNL     1      -1.837  11.020  17.651  0.00  0.00    +0.000 A 
ATOM     26  C   UNL     1      -2.962  11.740  18.075  0.00  0.00    +0.000 A 
ATOM     27  C   UNL     1      -4.166  11.662  17.367  0.00  0.00    +0.000 A 
ATOM     28  C   UNL     1      -4.272  10.845  16.243  0.00  0.00    +0.000 A 
ATOM     29  C   UNL     1      -3.186  10.073  15.846  0.00  0.00    +0.000 A 
ATOM     30  C   UNL     1      -1.980  10.157  16.546  0.00  0.00    +0.000 A 
ENDBRANCH  24  25
ENDBRANCH   5  24
TORSDOF 5
ENDMDL
MODEL 8
REMARK VINA RESULT:      -7.5      2.529      3.445
REMARK  Name = 
REMARK  5 active torsions:
REMARK  status: ('A' for Active; 'I' for Inactive)
REMARK    1  A    between atoms: C_2  and  C_10
REMARK    2  A    between atoms: N_3  and  C_4
REMARK    3  A    between atoms: C_11  and  O_12
REMARK    4  A    between atoms: N_15  and  C_16
REMARK    5  A    between atoms: C_16  and  C_17
REMARK                            x       y       z     vdW  Elec       q    Type
REMARK                         _______ _______ _______ _____ _____    ______ ____
ROOT
ATOM      1  C   UNL     1       1.742   8.382  19.320  0.00  0.00    +0.000 A 
ATOM      2  C   UNL     1       1.295   8.327  20.589  0.00  0.00    +0.000 A 
ATOM      3  C   UNL     1       0.515   9.401  21.185  0.00  0.00    +0.000 A 
ATOM      4  C   UNL     1       0.158  10.465  20.443  0.00  0.00    +0.000 A 
ATOM      5  N   UNL     1       0.597  10.564  19.105  0.00  0.00    +0.000 N 
ATOM      6  C   UNL     1       1.437   9.604  18.526  0.00  0.00    +0.000 A 
ATOM      7  O   UNL     1       1.948   9.729  17.408  0.00  0.00    +0.000 OA
ATOM      8  C   UNL     1      -0.692  11.570  21.023  0.00  0.00    +0.000 C 
ATOM      9  C   UNL     1      -1.199  11.437  22.457  0.00  0.00    +0.000 C 
ATOM     10  C   UNL     1      -0.594  10.355  23.332  0.00  0.00    +0.000 C 
ATOM     11  C   UNL     1       0.151   9.225  22.637  0.00  0.00    +0.000 C 
ENDROOT
BRANCH   1  13
ATOM     12  O   UNL     1       3.527   7.441  18.101  0.00  0.00    +0.000 OA
ATOM     13  C   UNL     1       2.512   7.218  18.773  0.00  0.00    +0.000 C 
ATOM     14  N   UNL     1       2.003   5.965  19.021  0.00  0.00    +0.000 N 
ATOM     15  H   UNL     1       1.096   5.919  19.490  0.00  0.00    +0.000 HD
BRANCH  14  16
ATOM     16  C   UNL     1       2.587   4.738  18.631  0.00  0.00    +0.000 A 
ATOM     17  C   UNL     1       2.092   3.933  17.607  0.00  0.00    +0.000 A 
ATOM     18  C   UNL     1       2.718   2.726  17.298  0.00  0.00    +0.000 A 
ATOM     19  C   UNL     1       3.831   2.358  18.031  0.00  0.00    +0.000 A 
ATOM     20  N   UNL     1       4.360   3.115  19.015  0.00  0.00    +0.000 NA
ATOM     21  C   UNL     1       3.732   4.288  19.285  0.00  0.00    +0.000 A 
ENDBRANCH  14  16
ENDBRANCH   1  13
BRANCH   2  22
ATOM     22  O   UNL     1       1.516   7.260  21.445  0.00  0.00    +0.000 OA
ATOM     23  H   UNL     1       2.467   7.248  21.698  0.00  0.00    +0.000 HD
ENDBRANCH   2  22
BRANCH   5  24
ATOM     24  C   UNL     1       0.330  11.757  18.287  0.00  0.00    +0.000 C 
BRANCH  24  25
ATOM     25  C   UNL     1       1.203  12.978  18.517  0.00  0.00    +0.000 A 
ATOM     26  C   UNL     1       2.585  13.006  18.288  0.00  0.00    +0.000 A 
ATOM     27  C   UNL     1       3.285  14.218  18.303  0.00  0.00    +0.000 A 
ATOM     28  C   UNL     1       2.621  15.413  18.573  0.00  0.00    +0.000 A 
ATOM     29  C   UNL     1       1.262  15.396  18.868  0.00  0.00    +0.000 A 
ATOM     30  C   UNL     1       0.561  14.188  18.844  0.00  0.00    +0.000 A 
ENDBRANCH  24  25
ENDBRANCH   5  24
TORSDOF 5
ENDMDL
MODEL 9
REMARK VINA RESULT:      -7.2      1.852      1.976
REMARK  Name = 
REMARK  5 active torsions:
REMARK  status: ('A' for Active; 'I' for Inactive)
REMARK    1  A    between atoms: C_2  and  C_10
REMARK    2  A    between atoms: N_3  and  C_4
REMARK    3  A    between atoms: C_11  and  O_12
REMARK    4  A    between atoms: N_15  and  C_16
REMARK    5  A    between atoms: C_16  and  C_17
REMARK                            x       y       z     vdW  Elec       q    Type
REMARK                         _______ _______ _______ _____ _____    ______ ____
ROOT
ATOM      1  C   UNL     1       1.565   8.521  19.347  0.00  0.00    +0.000 A 
ATOM      2  C   UNL     1       1.279   8.468  20.662  0.00  0.00    +0.000 A 
ATOM      3  C   UNL     1       0.416   9.446  21.308  0.00  0.00    +0.000 A 
ATOM      4  C   UNL     1      -0.182  10.404  20.577  0.00  0.00    +0.000 A 
ATOM      5  N   UNL     1       0.083  10.496  19.194  0.00  0.00    +0.000 N 
ATOM      6  C   UNL     1       0.990   9.641  18.552  0.00  0.00    +0.000 A 
ATOM      7  O   UNL     1       1.346   9.780  17.377  0.00  0.00    +0.000 OA
ATOM      8  C   UNL     1      -1.120  11.401  21.215  0.00  0.00    +0.000 C 
ATOM      9  C   UNL     1      -1.435  11.270  22.703  0.00  0.00    +0.000 C 
ATOM     10  C   UNL     1      -0.576  10.338  23.537  0.00  0.00    +0.000 C 
ATOM     11  C   UNL     1       0.249   9.295  22.799  0.00  0.00    +0.000 C 
ENDROOT
BRANCH   1  13
ATOM     12  O   UNL     1       3.334   7.792  17.970  0.00  0.00    +0.000 OA
ATOM     13  C   UNL     1       2.438   7.456  18.754  0.00  0.00    +0.000 C 
ATOM     14  N   UNL     1       2.147   6.156  19.091  0.00  0.00    +0.000 N 
ATOM     15  H   UNL     1       1.310   6.001  19.658  0.00  0.00    +0.000 HD
BRANCH  14  16
ATOM     16  C   UNL     1       2.862   5.010  18.676  0.00  0.00    +0.000 A 
ATOM     17  C   UNL     1       4.108   4.645  19.186  0.00  0.00    +0.000 A 
ATOM     18  C   UNL     1       4.756   3.508  18.708  0.00  0.00    +0.000 A 
ATOM     19  C   UNL     1       4.134   2.762  17.724  0.00  0.00    +0.000 A 
ATOM     20  N   UNL     1       2.920   3.062  17.216  0.00  0.00    +0.000 NA
ATOM     21  C   UNL     1       2.311   4.171  17.710  0.00  0.00    +0.000 A 
ENDBRANCH  14  16
ENDBRANCH   1  13
BRANCH   2  22
ATOM     22  O   UNL     1       1.755   7.493  21.523  0.00  0.00    +0.000 OA
ATOM     23  H   UNL     1       1.021   6.873  21.737  0.00  0.00    +0.000 HD
ENDBRANCH   2  22
BRANCH   5  24
ATOM     24  C   UNL     1      -0.454  11.590  18.371  0.00  0.00    +0.000 C 
BRANCH  24  25
ATOM     25  C   UNL     1      -1.832  11.402  17.761  0.00  0.00    +0.000 A 
ATOM     26  C   UNL     1      -2.086  10.608  16.635  0.00  0.00    +0.000 A 
ATOM     27  C   UNL     1      -3.399  10.298  16.264  0.00  0.00    +0.000 A 
ATOM     28  C   UNL     1      -4.475  10.795  16.997  0.00  0.00    +0.000 A 
ATOM     29  C   UNL     1      -4.243  11.637  18.078  0.00  0.00    +0.000 A 
ATOM     30  C   UNL     1      -2.933  11.941  18.454  0.00  0.00    +0.000 A 
ENDBRANCH  24  25
ENDBRANCH   5  24
TORSDOF 5
ENDMDL
