MODEL 1
REMARK VINA RESULT:      -9.8      0.000      0.000
REMARK  Name = 
REMARK  7 active torsions:
REMARK  status: ('A' for Active; 'I' for Inactive)
REMARK    1  A    between atoms: C_2  and  C_4
REMARK    2  A    between atoms: C_8  and  C_9
REMARK    3  A    between atoms: C_9  and  N_10
REMARK    4  A    between atoms: C_11  and  C_12
REMARK    5  A    between atoms: N_14  and  C_15
REMARK    6  A    between atoms: C_15  and  C_16
REMARK    7  A    between atoms: C_28  and  O_29
REMARK                            x       y       z     vdW  Elec       q    Type
REMARK                         _______ _______ _______ _____ _____    ______ ____
ROOT
ATOM      1  N   UNL     1       4.298   4.764  17.318  0.00  0.00    +0.000 N 
ATOM      2  C   UNL     1       4.265   5.781  18.320  0.00  0.00    +0.000 A 
ATOM      3  C   UNL     1       4.630   4.968  19.417  0.00  0.00    +0.000 A 
ATOM      4  C   UNL     1       3.698   3.869  19.256  0.00  0.00    +0.000 A 
ATOM      5  C   UNL     1       2.988   2.968  20.097  0.00  0.00    +0.000 A 
ATOM      6  C   UNL     1       1.776   2.445  19.630  0.00  0.00    +0.000 A 
ATOM      7  C   UNL     1       1.354   2.697  18.323  0.00  0.00    +0.000 A 
ATOM      8  C   UNL     1       2.184   3.349  17.401  0.00  0.00    +0.000 A 
ATOM      9  C   UNL     1       3.386   3.879  17.882  0.00  0.00    +0.000 A 
ENDROOT
BRANCH   2  10
ATOM     10  C   UNL     1       3.575   7.042  18.006  0.00  0.00    +0.000 C 
ATOM     11  O   UNL     1       3.761   7.504  16.849  0.00  0.00    +0.000 OA
ATOM     12  N   UNL     1       2.707   7.740  18.829  0.00  0.00    +0.000 N 
ATOM     13  H   UNL     1       2.452   7.326  19.718  0.00  0.00    +0.000 HD
BRANCH  12  14
ATOM     14  C   UNL     1       1.870   8.932  18.327  0.00  0.00    +0.000 C 
BRANCH  14  15
ATOM     15  C   UNL     1       0.497   9.224  19.057  0.00  0.00    +0.000 A 
ATOM     16  C   UNL     1      -0.334   9.970  18.245  0.00  0.00    +0.000 A 
ATOM     17  C   UNL     1      -0.313  11.309  18.527  0.00  0.00    +0.000 A 
ATOM     18  N   UNL     1       0.095  11.815  19.713  0.00  0.00    +0.000 NA
ATOM     19  C   UNL     1       0.207  10.941  20.717  0.00  0.00    +0.000 A 
ATOM     20  C   UNL     1      -0.076  11.402  21.979  0.00  0.00    +0.000 A 
ATOM     21  C   UNL     1      -0.555  10.544  22.972  0.00  0.00    +0.000 A 
ATOM     22  C   UNL     1      -0.666   9.190  22.671  0.00  0.00    +0.000 A 
ATOM     23  C   UNL     1      -0.186   8.696  21.443  0.00  0.00    +0.000 A 
ATOM     24  C   UNL     1       0.329   9.556  20.425  0.00  0.00    +0.000 A 
ENDBRANCH  14  15
ENDBRANCH  12  14
ENDBRANCH   2  10
BRANCH   5  25
ATOM     25  O   UNL     1       3.310   2.705  21.403  0.00  0.00    +0.000 OA
ATOM     26  H   UNL     1       3.030   1.794  21.590  0.00  0.00    +0.000 HD
ENDBRANCH   5  25
BRANCH   1  27
ATOM     27  C   UNL     1       5.635   4.499  16.695  0.00  0.00    +0.000 C 
BRANCH  27  32
ATOM     28  C   UNL     1       5.849   3.587  12.902  0.00  0.00    +0.000 A 
ATOM     29  C   UNL     1       7.016   4.293  12.572  0.00  0.00    +0.000 A 
ATOM     30  C   UNL     1       7.656   5.064  13.522  0.00  0.00    +0.000 A 
ATOM     31  C   UNL     1       7.127   5.158  14.817  0.00  0.00    +0.000 A 
ATOM     32  C   UNL     1       5.938   4.474  15.199  0.00  0.00    +0.000 A 
ATOM     33  C   UNL     1       5.311   3.669  14.227  0.00  0.00    +0.000 A 
BRANCH  28  35
ATOM     34  N   UNL     1       5.839   1.631  11.462  0.00  0.00    +0.000 NA
ATOM     35  C   UNL     1       5.254   2.727  11.817  0.00  0.00    +0.000 C 
ATOM     36  N   UNL     1       4.099   3.085  11.184  0.00  0.00    +0.000 N 
ATOM     37  H   UNL     1       5.303   1.160  10.730  0.00  0.00    +0.000 HD
ATOM     38  H   UNL     1       3.937   2.631  10.290  0.00  0.00    +0.000 HD
ATOM     39  H   UNL     1       3.888   4.073  11.143  0.00  0.00    +0.000 HD
ENDBRANCH  28  35
ENDBRANCH  27  32
ENDBRANCH   1  27
TORSDOF 7
ENDMDL
MODEL 2
REMARK VINA RESULT:      -9.7      1.123      2.181
REMARK  Name = 
REMARK  7 active torsions:
REMARK  status: ('A' for Active; 'I' for Inactive)
REMARK    1  A    between atoms: C_2  and  C_4
REMARK    2  A    between atoms: C_8  and  C_9
REMARK    3  A    between atoms: C_9  and  N_10
REMARK    4  A    between atoms: C_11  and  C_12
REMARK    5  A    between atoms: N_14  and  C_15
REMARK    6  A    between atoms: C_15  and  C_16
REMARK    7  A    between atoms: C_28  and  O_29
REMARK                            x       y       z     vdW  Elec       q    Type
REMARK                         _______ _______ _______ _____ _____    ______ ____
ROOT
ATOM      1  N   UNL     1       3.892   4.463  17.747  0.00  0.00    +0.000 N 
ATOM      2  C   UNL     1       3.986   5.558  18.660  0.00  0.00    +0.000 A 
ATOM      3  C   UNL     1       4.265   4.802  19.821  0.00  0.00    +0.000 A 
ATOM      4  C   UNL     1       3.211   3.809  19.753  0.00  0.00    +0.000 A 
ATOM      5  C   UNL     1       2.410   3.070  20.667  0.00  0.00    +0.000 A 
ATOM      6  C   UNL     1       1.141   2.655  20.245  0.00  0.00    +0.000 A 
ATOM      7  C   UNL     1       0.738   2.844  18.922  0.00  0.00    +0.000 A 
ATOM      8  C   UNL     1       1.629   3.316  17.948  0.00  0.00    +0.000 A 
ATOM      9  C   UNL     1       2.889   3.741  18.383  0.00  0.00    +0.000 A 
ENDROOT
BRANCH   2  10
ATOM     10  C   UNL     1       3.444   6.860  18.241  0.00  0.00    +0.000 C 
ATOM     11  O   UNL     1       3.964   7.374  17.216  0.00  0.00    +0.000 OA
ATOM     12  N   UNL     1       2.394   7.547  18.825  0.00  0.00    +0.000 N 
ATOM     13  H   UNL     1       1.886   7.098  19.578  0.00  0.00    +0.000 HD
BRANCH  12  14
ATOM     14  C   UNL     1       1.763   8.796  18.180  0.00  0.00    +0.000 C 
BRANCH  14  15
ATOM     15  C   UNL     1       1.470  10.037  19.118  0.00  0.00    +0.000 A 
ATOM     16  C   UNL     1       0.821   9.633  20.268  0.00  0.00    +0.000 A 
ATOM     17  C   UNL     1      -0.535   9.807  20.218  0.00  0.00    +0.000 A 
ATOM     18  N   UNL     1      -1.146  10.667  19.372  0.00  0.00    +0.000 NA
ATOM     19  C   UNL     1      -0.357  11.565  18.776  0.00  0.00    +0.000 A 
ATOM     20  C   UNL     1      -0.902  12.798  18.515  0.00  0.00    +0.000 A 
ATOM     21  C   UNL     1      -0.105  13.943  18.455  0.00  0.00    +0.000 A 
ATOM     22  C   UNL     1       1.272  13.792  18.592  0.00  0.00    +0.000 A 
ATOM     23  C   UNL     1       1.839  12.505  18.660  0.00  0.00    +0.000 A 
ATOM     24  C   UNL     1       1.041  11.322  18.698  0.00  0.00    +0.000 A 
ENDBRANCH  14  15
ENDBRANCH  12  14
ENDBRANCH   2  10
BRANCH   5  25
ATOM     25  O   UNL     1       2.711   2.881  21.990  0.00  0.00    +0.000 OA
ATOM     26  H   UNL     1       2.453   1.973  22.217  0.00  0.00    +0.000 HD
ENDBRANCH   5  25
BRANCH   1  27
ATOM     27  C   UNL     1       5.183   3.994  17.149  0.00  0.00    +0.000 C 
BRANCH  27  32
ATOM     28  C   UNL     1       5.913   3.701  13.322  0.00  0.00    +0.000 A 
ATOM     29  C   UNL     1       7.011   4.572  13.240  0.00  0.00    +0.000 A 
ATOM     30  C   UNL     1       7.444   5.254  14.360  0.00  0.00    +0.000 A 
ATOM     31  C   UNL     1       6.772   5.091  15.580  0.00  0.00    +0.000 A 
ATOM     32  C   UNL     1       5.644   4.231  15.713  0.00  0.00    +0.000 A 
ATOM     33  C   UNL     1       5.232   3.520  14.568  0.00  0.00    +0.000 A 
BRANCH  28  35
ATOM     34  N   UNL     1       4.461   3.244  11.429  0.00  0.00    +0.000 NA
ATOM     35  C   UNL     1       5.550   2.957  12.062  0.00  0.00    +0.000 C 
ATOM     36  N   UNL     1       6.351   1.969  11.568  0.00  0.00    +0.000 N 
ATOM     37  H   UNL     1       4.370   2.663  10.592  0.00  0.00    +0.000 HD
ATOM     38  H   UNL     1       5.901   1.332  10.917  0.00  0.00    +0.000 HD
ATOM     39  H   UNL     1       6.928   1.473  12.234  0.00  0.00    +0.000 HD
ENDBRANCH  28  35
ENDBRANCH  27  32
ENDBRANCH   1  27
TORSDOF 7
ENDMDL
MODEL 3
REMARK VINA RESULT:      -9.6      2.179      3.306
REMARK  Name = 
REMARK  7 active torsions:
REMARK  status: ('A' for Active; 'I' for Inactive)
REMARK    1  A    between atoms: C_2  and  C_4
REMARK    2  A    between atoms: C_8  and  C_9
REMARK    3  A    between atoms: C_9  and  N_10
REMARK    4  A    between atoms: C_11  and  C_12
REMARK    5  A    between atoms: N_14  and  C_15
REMARK    6  A    between atoms: C_15  and  C_16
REMARK    7  A    between atoms: C_28  and  O_29
REMARK                            x       y       z     vdW  Elec       q    Type
REMARK                         _______ _______ _______ _____ _____    ______ ____
ROOT
ATOM      1  N   UNL     1       2.972   6.486  18.147  0.00  0.00    +0.000 N 
ATOM      2  C   UNL     1       2.808   6.861  19.516  0.00  0.00    +0.000 A 
ATOM      3  C   UNL     1       3.619   5.850  20.080  0.00  0.00    +0.000 A 
ATOM      4  C   UNL     1       3.077   4.676  19.424  0.00  0.00    +0.000 A 
ATOM      5  C   UNL     1       2.871   3.305  19.739  0.00  0.00    +0.000 A 
ATOM      6  C   UNL     1       1.824   2.631  19.097  0.00  0.00    +0.000 A 
ATOM      7  C   UNL     1       1.100   3.255  18.079  0.00  0.00    +0.000 A 
ATOM      8  C   UNL     1       1.482   4.505  17.572  0.00  0.00    +0.000 A 
ATOM      9  C   UNL     1       2.520   5.174  18.230  0.00  0.00    +0.000 A 
ENDROOT
BRANCH   2  10
ATOM     10  C   UNL     1       1.703   7.770  19.859  0.00  0.00    +0.000 C 
ATOM     11  O   UNL     1       1.234   7.659  21.022  0.00  0.00    +0.000 OA
ATOM     12  N   UNL     1       1.166   8.761  19.055  0.00  0.00    +0.000 N 
ATOM     13  H   UNL     1       1.604   8.945  18.161  0.00  0.00    +0.000 HD
BRANCH  12  14
ATOM     14  C   UNL     1       0.159   9.799  19.587  0.00  0.00    +0.000 C 
BRANCH  14  15
ATOM     15  C   UNL     1      -0.514  10.774  18.536  0.00  0.00    +0.000 A 
ATOM     16  C   UNL     1      -0.167  12.084  18.800  0.00  0.00    +0.000 A 
ATOM     17  C   UNL     1      -1.120  12.769  19.505  0.00  0.00    +0.000 A 
ATOM     18  N   UNL     1      -2.419  12.396  19.559  0.00  0.00    +0.000 NA
ATOM     19  C   UNL     1      -2.807  11.490  18.659  0.00  0.00    +0.000 A 
ATOM     20  C   UNL     1      -4.097  11.584  18.196  0.00  0.00    +0.000 A 
ATOM     21  C   UNL     1      -4.443  11.133  16.921  0.00  0.00    +0.000 A 
ATOM     22  C   UNL     1      -3.460  10.512  16.156  0.00  0.00    +0.000 A 
ATOM     23  C   UNL     1      -2.196  10.240  16.713  0.00  0.00    +0.000 A 
ATOM     24  C   UNL     1      -1.833  10.674  18.025  0.00  0.00    +0.000 A 
ENDBRANCH  14  15
ENDBRANCH  12  14
ENDBRANCH   2  10
BRANCH   5  25
ATOM     25  O   UNL     1       3.505   2.634  20.751  0.00  0.00    +0.000 OA
ATOM     26  H   UNL     1       3.006   2.805  21.567  0.00  0.00    +0.000 HD
ENDBRANCH   5  25
BRANCH   1  27
ATOM     27  C   UNL     1       4.176   7.045  17.453  0.00  0.00    +0.000 C 
BRANCH  27  32
ATOM     28  C   UNL     1       6.540   4.935  15.167  0.00  0.00    +0.000 A 
ATOM     29  C   UNL     1       7.329   4.335  16.161  0.00  0.00    +0.000 A 
ATOM     30  C   UNL     1       7.133   4.651  17.490  0.00  0.00    +0.000 A 
ATOM     31  C   UNL     1       6.154   5.589  17.849  0.00  0.00    +0.000 A 
ATOM     32  C   UNL     1       5.337   6.236  16.879  0.00  0.00    +0.000 A 
ATOM     33  C   UNL     1       5.529   5.883  15.528  0.00  0.00    +0.000 A 
BRANCH  28  35
ATOM     34  N   UNL     1       6.230   3.409  13.303  0.00  0.00    +0.000 NA
ATOM     35  C   UNL     1       6.787   4.485  13.750  0.00  0.00    +0.000 C 
ATOM     36  N   UNL     1       7.603   5.192  12.916  0.00  0.00    +0.000 N 
ATOM     37  H   UNL     1       6.486   3.253  12.325  0.00  0.00    +0.000 HD
ATOM     38  H   UNL     1       7.950   4.679  12.111  0.00  0.00    +0.000 HD
ATOM     39  H   UNL     1       8.333   5.743  13.348  0.00  0.00    +0.000 HD
ENDBRANCH  28  35
ENDBRANCH  27  32
ENDBRANCH   1  27
TORSDOF 7
ENDMDL
MODEL 4
REMARK VINA RESULT:      -9.5      1.676      2.301
REMARK  Name = 
REMARK  7 active torsions:
REMARK  status: ('A' for Active; 'I' for Inactive)
REMARK    1  A    between atoms: C_2  and  C_4
REMARK    2  A    between atoms: C_8  and  C_9
REMARK    3  A    between atoms: C_9  and  N_10
REMARK    4  A    between atoms: C_11  and  C_12
REMARK    5  A    between atoms: N_14  and  C_15
REMARK    6  A    between atoms: C_15  and  C_16
REMARK    7  A    between atoms: C_28  and  O_29
REMARK                            x       y       z     vdW  Elec       q    Type
REMARK                         _______ _______ _______ _____ _____    ______ ____
ROOT
ATOM      1  N   UNL     1       3.848   5.546  17.395  0.00  0.00    +0.000 N 
ATOM      2  C   UNL     1       3.817   5.984  18.754  0.00  0.00    +0.000 A 
ATOM      3  C   UNL     1       4.807   5.104  19.250  0.00  0.00    +0.000 A 
ATOM      4  C   UNL     1       4.326   3.840  18.728  0.00  0.00    +0.000 A 
ATOM      5  C   UNL     1       4.324   2.476  19.130  0.00  0.00    +0.000 A 
ATOM      6  C   UNL     1       3.291   1.653  18.666  0.00  0.00    +0.000 A 
ATOM      7  C   UNL     1       2.374   2.130  17.727  0.00  0.00    +0.000 A 
ATOM      8  C   UNL     1       2.539   3.381  17.116  0.00  0.00    +0.000 A 
ATOM      9  C   UNL     1       3.566   4.200  17.598  0.00  0.00    +0.000 A 
ENDROOT
BRANCH   2  10
ATOM     10  C   UNL     1       2.666   6.785  19.200  0.00  0.00    +0.000 C 
ATOM     11  O   UNL     1       1.997   6.310  20.156  0.00  0.00    +0.000 OA
ATOM     12  N   UNL     1       2.279   8.021  18.713  0.00  0.00    +0.000 N 
ATOM     13  H   UNL     1       2.870   8.474  18.027  0.00  0.00    +0.000 HD
BRANCH  12  14
ATOM     14  C   UNL     1       1.191   8.873  19.395  0.00  0.00    +0.000 C 
BRANCH  14  15
ATOM     15  C   UNL     1       0.533  10.038  18.548  0.00  0.00    +0.000 A 
ATOM     16  C   UNL     1       1.303  11.182  18.619  0.00  0.00    +0.000 A 
ATOM     17  C   UNL     1       0.852  12.086  19.543  0.00  0.00    +0.000 A 
ATOM     18  N   UNL     1      -0.416  12.102  20.014  0.00  0.00    +0.000 NA
ATOM     19  C   UNL     1      -1.306  11.379  19.328  0.00  0.00    +0.000 A 
ATOM     20  C   UNL     1      -2.591  11.858  19.278  0.00  0.00    +0.000 A 
ATOM     21  C   UNL     1      -3.429  11.572  18.198  0.00  0.00    +0.000 A 
ATOM     22  C   UNL     1      -2.951  10.723  17.204  0.00  0.00    +0.000 A 
ATOM     23  C   UNL     1      -1.709  10.078  17.362  0.00  0.00    +0.000 A 
ATOM     24  C   UNL     1      -0.850  10.340  18.472  0.00  0.00    +0.000 A 
ENDBRANCH  14  15
ENDBRANCH  12  14
ENDBRANCH   2  10
BRANCH   5  25
ATOM     25  O   UNL     1       5.157   1.942  20.078  0.00  0.00    +0.000 OA
ATOM     26  H   UNL     1       4.650   1.270  20.561  0.00  0.00    +0.000 HD
ENDBRANCH   5  25
BRANCH   1  27
ATOM     27  C   UNL     1       4.879   6.191  16.520  0.00  0.00    +0.000 C 
BRANCH  27  32
ATOM     28  C   UNL     1       5.764   4.032  13.387  0.00  0.00    +0.000 A 
ATOM     29  C   UNL     1       7.164   4.086  13.470  0.00  0.00    +0.000 A 
ATOM     30  C   UNL     1       7.774   4.832  14.459  0.00  0.00    +0.000 A 
ATOM     31  C   UNL     1       6.992   5.555  15.372  0.00  0.00    +0.000 A 
ATOM     32  C   UNL     1       5.569   5.545  15.321  0.00  0.00    +0.000 A 
ATOM     33  C   UNL     1       4.960   4.757  14.324  0.00  0.00    +0.000 A 
BRANCH  28  35
ATOM     34  N   UNL     1       4.079   3.466  11.730  0.00  0.00    +0.000 NA
ATOM     35  C   UNL     1       5.189   3.147  12.310  0.00  0.00    +0.000 C 
ATOM     36  N   UNL     1       5.815   1.995  11.932  0.00  0.00    +0.000 N 
ATOM     37  H   UNL     1       3.836   2.774  11.019  0.00  0.00    +0.000 HD
ATOM     38  H   UNL     1       5.230   1.325  11.442  0.00  0.00    +0.000 HD
ATOM     39  H   UNL     1       6.398   1.543  12.624  0.00  0.00    +0.000 HD
ENDBRANCH  28  35
ENDBRANCH  27  32
ENDBRANCH   1  27
TORSDOF 7
ENDMDL
MODEL 5
REMARK VINA RESULT:      -9.5      1.828      2.581
REMARK  Name = 
REMARK  7 active torsions:
REMARK  status: ('A' for Active; 'I' for Inactive)
REMARK    1  A    between atoms: C_2  and  C_4
REMARK    2  A    between atoms: C_8  and  C_9
REMARK    3  A    between atoms: C_9  and  N_10
REMARK    4  A    between atoms: C_11  and  C_12
REMARK    5  A    between atoms: N_14  and  C_15
REMARK    6  A    between atoms: C_15  and  C_16
REMARK    7  A    between atoms: C_28  and  O_29
REMARK                            x       y       z     vdW  Elec       q    Type
REMARK                         _______ _______ _______ _____ _____    ______ ____
ROOT
ATOM      1  N   UNL     1       2.852   5.931  18.184  0.00  0.00    +0.000 N 
ATOM      2  C   UNL     1       3.102   6.126  19.577  0.00  0.00    +0.000 A 
ATOM      3  C   UNL     1       4.225   5.274  19.681  0.00  0.00    +0.000 A 
ATOM      4  C   UNL     1       3.711   4.076  19.046  0.00  0.00    +0.000 A 
ATOM      5  C   UNL     1       3.874   2.670  19.178  0.00  0.00    +0.000 A 
ATOM      6  C   UNL     1       2.811   1.844  18.796  0.00  0.00    +0.000 A 
ATOM      7  C   UNL     1       1.682   2.383  18.176  0.00  0.00    +0.000 A 
ATOM      8  C   UNL     1       1.637   3.730  17.788  0.00  0.00    +0.000 A 
ATOM      9  C   UNL     1       2.699   4.549  18.187  0.00  0.00    +0.000 A 
ENDROOT
BRANCH   2  10
ATOM     10  C   UNL     1       2.037   6.727  20.395  0.00  0.00    +0.000 C 
ATOM     11  O   UNL     1       1.272   5.921  20.989  0.00  0.00    +0.000 OA
ATOM     12  N   UNL     1       1.824   8.077  20.618  0.00  0.00    +0.000 N 
ATOM     13  H   UNL     1       2.496   8.737  20.246  0.00  0.00    +0.000 HD
BRANCH  12  14
ATOM     14  C   UNL     1       0.816   8.592  21.664  0.00  0.00    +0.000 C 
BRANCH  14  15
ATOM     15  C   UNL     1      -0.148   9.771  21.234  0.00  0.00    +0.000 A 
ATOM     16  C   UNL     1      -0.231   9.852  19.858  0.00  0.00    +0.000 A 
ATOM     17  C   UNL     1       0.587  10.806  19.317  0.00  0.00    +0.000 A 
ATOM     18  N   UNL     1       1.081  11.851  20.020  0.00  0.00    +0.000 NA
ATOM     19  C   UNL     1       0.506  12.086  21.202  0.00  0.00    +0.000 A 
ATOM     20  C   UNL     1       0.428  13.396  21.607  0.00  0.00    +0.000 A 
ATOM     21  C   UNL     1      -0.591  13.831  22.456  0.00  0.00    +0.000 A 
ATOM     22  C   UNL     1      -1.487  12.885  22.945  0.00  0.00    +0.000 A 
ATOM     23  C   UNL     1      -1.281  11.516  22.686  0.00  0.00    +0.000 A 
ATOM     24  C   UNL     1      -0.229  11.051  21.839  0.00  0.00    +0.000 A 
ENDBRANCH  14  15
ENDBRANCH  12  14
ENDBRANCH   2  10
BRANCH   5  25
ATOM     25  O   UNL     1       4.927   2.065  19.814  0.00  0.00    +0.000 OA
ATOM     26  H   UNL     1       5.428   2.762  20.267  0.00  0.00    +0.000 HD
ENDBRANCH   5  25
BRANCH   1  27
ATOM     27  C   UNL     1       3.624   6.810  17.249  0.00  0.00    +0.000 C 
BRANCH  27  32
ATOM     28  C   UNL     1       6.435   5.264  15.018  0.00  0.00    +0.000 A 
ATOM     29  C   UNL     1       7.546   5.572  15.819  0.00  0.00    +0.000 A 
ATOM     30  C   UNL     1       7.385   6.291  16.986  0.00  0.00    +0.000 A 
ATOM     31  C   UNL     1       6.109   6.733  17.364  0.00  0.00    +0.000 A 
ATOM     32  C   UNL     1       4.952   6.460  16.580  0.00  0.00    +0.000 A 
ATOM     33  C   UNL     1       5.127   5.701  15.405  0.00  0.00    +0.000 A 
BRANCH  28  35
ATOM     34  N   UNL     1       6.173   3.251  13.683  0.00  0.00    +0.000 NA
ATOM     35  C   UNL     1       6.701   4.426  13.793  0.00  0.00    +0.000 C 
ATOM     36  N   UNL     1       7.501   4.879  12.786  0.00  0.00    +0.000 N 
ATOM     37  H   UNL     1       6.438   2.823  12.793  0.00  0.00    +0.000 HD
ATOM     38  H   UNL     1       7.865   4.161  12.166  0.00  0.00    +0.000 HD
ATOM     39  H   UNL     1       8.215   5.550  13.037  0.00  0.00    +0.000 HD
ENDBRANCH  28  35
ENDBRANCH  27  32
ENDBRANCH   1  27
TORSDOF 7
ENDMDL
MODEL 6
REMARK VINA RESULT:      -9.3      1.683      2.228
REMARK  Name = 
REMARK  7 active torsions:
REMARK  status: ('A' for Active; 'I' for Inactive)
REMARK    1  A    between atoms: C_2  and  C_4
REMARK    2  A    between atoms: C_8  and  C_9
REMARK    3  A    between atoms: C_9  and  N_10
REMARK    4  A    between atoms: C_11  and  C_12
REMARK    5  A    between atoms: N_14  and  C_15
REMARK    6  A    between atoms: C_15  and  C_16
REMARK    7  A    between atoms: C_28  and  O_29
REMARK                            x       y       z     vdW  Elec       q    Type
REMARK                         _______ _______ _______ _____ _____    ______ ____
ROOT
ATOM      1  N   UNL     1       3.358   5.793  17.744  0.00  0.00    +0.000 N 
ATOM      2  C   UNL     1       3.462   6.166  19.119  0.00  0.00    +0.000 A 
ATOM      3  C   UNL     1       4.510   5.284  19.468  0.00  0.00    +0.000 A 
ATOM      4  C   UNL     1       3.996   4.036  18.938  0.00  0.00    +0.000 A 
ATOM      5  C   UNL     1       4.055   2.655  19.272  0.00  0.00    +0.000 A 
ATOM      6  C   UNL     1       2.990   1.835  18.878  0.00  0.00    +0.000 A 
ATOM      7  C   UNL     1       1.975   2.338  18.062  0.00  0.00    +0.000 A 
ATOM      8  C   UNL     1       2.058   3.619  17.498  0.00  0.00    +0.000 A 
ATOM      9  C   UNL     1       3.118   4.434  17.910  0.00  0.00    +0.000 A 
ENDROOT
BRANCH   2  10
ATOM     10  C   UNL     1       2.352   6.924  19.719  0.00  0.00    +0.000 C 
ATOM     11  O   UNL     1       1.733   6.354  20.656  0.00  0.00    +0.000 OA
ATOM     12  N   UNL     1       1.956   8.210  19.394  0.00  0.00    +0.000 N 
ATOM     13  H   UNL     1       2.512   8.730  18.725  0.00  0.00    +0.000 HD
BRANCH  12  14
ATOM     14  C   UNL     1       0.923   8.991  20.228  0.00  0.00    +0.000 C 
BRANCH  14  15
ATOM     15  C   UNL     1       0.411  10.375  19.655  0.00  0.00    +0.000 A 
ATOM     16  C   UNL     1       1.404  11.331  19.741  0.00  0.00    +0.000 A 
ATOM     17  C   UNL     1       1.280  12.148  20.832  0.00  0.00    +0.000 A 
ATOM     18  N   UNL     1       0.120  12.325  21.504  0.00  0.00    +0.000 NA
ATOM     19  C   UNL     1      -0.985  11.896  20.889  0.00  0.00    +0.000 A 
ATOM     20  C   UNL     1      -2.139  12.607  21.113  0.00  0.00    +0.000 A 
ATOM     21  C   UNL     1      -3.156  12.653  20.158  0.00  0.00    +0.000 A 
ATOM     22  C   UNL     1      -3.005  11.895  19.000  0.00  0.00    +0.000 A 
ATOM     23  C   UNL     1      -1.915  11.015  18.869  0.00  0.00    +0.000 A 
ATOM     24  C   UNL     1      -0.876  10.937  19.847  0.00  0.00    +0.000 A 
ENDBRANCH  14  15
ENDBRANCH  12  14
ENDBRANCH   2  10
BRANCH   5  25
ATOM     25  O   UNL     1       4.989   2.094  20.103  0.00  0.00    +0.000 OA
ATOM     26  H   UNL     1       5.402   1.362  19.618  0.00  0.00    +0.000 HD
ENDBRANCH   5  25
BRANCH   1  27
ATOM     27  C   UNL     1       4.284   6.497  16.801  0.00  0.00    +0.000 C 
BRANCH  27  32
ATOM     28  C   UNL     1       5.999   4.363  14.013  0.00  0.00    +0.000 A 
ATOM     29  C   UNL     1       7.292   4.292  14.555  0.00  0.00    +0.000 A 
ATOM     30  C   UNL     1       7.592   4.952  15.729  0.00  0.00    +0.000 A 
ATOM     31  C   UNL     1       6.606   5.713  16.375  0.00  0.00    +0.000 A 
ATOM     32  C   UNL     1       5.284   5.829  15.860  0.00  0.00    +0.000 A 
ATOM     33  C   UNL     1       4.985   5.127  14.675  0.00  0.00    +0.000 A 
BRANCH  28  35
ATOM     34  N   UNL     1       6.712   2.894  12.214  0.00  0.00    +0.000 NA
ATOM     35  C   UNL     1       5.751   3.563  12.759  0.00  0.00    +0.000 C 
ATOM     36  N   UNL     1       4.520   3.533  12.173  0.00  0.00    +0.000 N 
ATOM     37  H   UNL     1       6.377   2.398  11.386  0.00  0.00    +0.000 HD
ATOM     38  H   UNL     1       4.510   3.236  11.201  0.00  0.00    +0.000 HD
ATOM     39  H   UNL     1       3.922   4.335  12.321  0.00  0.00    +0.000 HD
ENDBRANCH  28  35
ENDBRANCH  27  32
ENDBRANCH   1  27
TORSDOF 7
ENDMDL
MODEL 7
REMARK VINA RESULT:      -9.3      3.466      9.977
REMARK  Name = 
REMARK  7 active torsions:
REMARK  status: ('A' for Active; 'I' for Inactive)
REMARK    1  A    between atoms: C_2  and  C_4
REMARK    2  A    between atoms: C_8  and  C_9
REMARK    3  A    between atoms: C_9  and  N_10
REMARK    4  A    between atoms: C_11  and  C_12
REMARK    5  A    between atoms: N_14  and  C_15
REMARK    6  A    between atoms: C_15  and  C_16
REMARK    7  A    between atoms: C_28  and  O_29
REMARK                            x       y       z     vdW  Elec       q    Type
REMARK                         _______ _______ _______ _____ _____    ______ ____
ROOT
ATOM      1  N   UNL     1       0.107  11.824  19.034  0.00  0.00    +0.000 N 
ATOM      2  C   UNL     1       0.915  10.828  19.661  0.00  0.00    +0.000 A 
ATOM      3  C   UNL     1       1.137  11.513  20.877  0.00  0.00    +0.000 A 
ATOM      4  C   UNL     1       1.570  12.805  20.381  0.00  0.00    +0.000 A 
ATOM      5  C   UNL     1       2.463  13.835  20.786  0.00  0.00    +0.000 A 
ATOM      6  C   UNL     1       3.037  14.639  19.793  0.00  0.00    +0.000 A 
ATOM      7  C   UNL     1       2.633  14.516  18.462  0.00  0.00    +0.000 A 
ATOM      8  C   UNL     1       1.552  13.700  18.100  0.00  0.00    +0.000 A 
ATOM      9  C   UNL     1       0.996  12.891  19.097  0.00  0.00    +0.000 A 
ENDROOT
BRANCH   2  10
ATOM     10  C   UNL     1       1.497   9.773  18.816  0.00  0.00    +0.000 C 
ATOM     11  O   UNL     1       1.816  10.111  17.645  0.00  0.00    +0.000 OA
ATOM     12  N   UNL     1       1.772   8.469  19.191  0.00  0.00    +0.000 N 
ATOM     13  H   UNL     1       1.632   8.207  20.160  0.00  0.00    +0.000 HD
BRANCH  12  14
ATOM     14  C   UNL     1       2.579   7.506  18.299  0.00  0.00    +0.000 C 
BRANCH  14  15
ATOM     15  C   UNL     1       3.006   6.114  18.920  0.00  0.00    +0.000 A 
ATOM     16  C   UNL     1       4.178   5.665  18.343  0.00  0.00    +0.000 A 
ATOM     17  C   UNL     1       3.978   4.750  17.345  0.00  0.00    +0.000 A 
ATOM     18  N   UNL     1       2.846   4.021  17.217  0.00  0.00    +0.000 NA
ATOM     19  C   UNL     1       2.032   4.011  18.276  0.00  0.00    +0.000 A 
ATOM     20  C   UNL     1       1.322   2.858  18.506  0.00  0.00    +0.000 A 
ATOM     21  C   UNL     1       0.925   2.498  19.795  0.00  0.00    +0.000 A 
ATOM     22  C   UNL     1       1.200   3.379  20.836  0.00  0.00    +0.000 A 
ATOM     23  C   UNL     1       1.748   4.647  20.564  0.00  0.00    +0.000 A 
ATOM     24  C   UNL     1       2.139   5.041  19.248  0.00  0.00    +0.000 A 
ENDBRANCH  14  15
ENDBRANCH  12  14
ENDBRANCH   2  10
BRANCH   5  25
ATOM     25  O   UNL     1       2.943  13.993  22.059  0.00  0.00    +0.000 OA
ATOM     26  H   UNL     1       3.599  14.708  22.033  0.00  0.00    +0.000 HD
ENDBRANCH   5  25
BRANCH   1  27
ATOM     27  C   UNL     1      -1.357  11.774  19.345  0.00  0.00    +0.000 C 
BRANCH  27  32
ATOM     28  C   UNL     1      -4.822  11.429  17.573  0.00  0.00    +0.000 A 
ATOM     29  C   UNL     1      -4.383  10.989  16.314  0.00  0.00    +0.000 A 
ATOM     30  C   UNL     1      -3.033  10.870  16.051  0.00  0.00    +0.000 A 
ATOM     31  C   UNL     1      -2.096  11.209  17.037  0.00  0.00    +0.000 A 
ATOM     32  C   UNL     1      -2.489  11.674  18.325  0.00  0.00    +0.000 A 
ATOM     33  C   UNL     1      -3.870  11.764  18.589  0.00  0.00    +0.000 A 
BRANCH  28  35
ATOM     34  N   UNL     1      -7.024  12.394  17.224  0.00  0.00    +0.000 NA
ATOM     35  C   UNL     1      -6.314  11.473  17.786  0.00  0.00    +0.000 C 
ATOM     36  N   UNL     1      -6.942  10.555  18.576  0.00  0.00    +0.000 N 
ATOM     37  H   UNL     1      -8.013  12.274  17.456  0.00  0.00    +0.000 HD
ATOM     38  H   UNL     1      -7.864  10.825  18.905  0.00  0.00    +0.000 HD
ATOM     39  H   UNL     1      -6.393  10.134  19.314  0.00  0.00    +0.000 HD
ENDBRANCH  28  35
ENDBRANCH  27  32
ENDBRANCH   1  27
TORSDOF 7
ENDMDL
MODEL 8
REMARK VINA RESULT:      -9.3      1.696      2.516
REMARK  Name = 
REMARK  7 active torsions:
REMARK  status: ('A' for Active; 'I' for Inactive)
REMARK    1  A    between atoms: C_2  and  C_4
REMARK    2  A    between atoms: C_8  and  C_9
REMARK    3  A    between atoms: C_9  and  N_10
REMARK    4  A    between atoms: C_11  and  C_12
REMARK    5  A    between atoms: N_14  and  C_15
REMARK    6  A    between atoms: C_15  and  C_16
REMARK    7  A    between atoms: C_28  and  O_29
REMARK                            x       y       z     vdW  Elec       q    Type
REMARK                         _______ _______ _______ _____ _____    ______ ____
ROOT
ATOM      1  N   UNL     1       3.322   5.661  17.876  0.00  0.00    +0.000 N 
ATOM      2  C   UNL     1       3.332   6.058  19.248  0.00  0.00    +0.000 A 
ATOM      3  C   UNL     1       4.412   5.246  19.664  0.00  0.00    +0.000 A 
ATOM      4  C   UNL     1       4.002   3.962  19.129  0.00  0.00    +0.000 A 
ATOM      5  C   UNL     1       4.127   2.592  19.488  0.00  0.00    +0.000 A 
ATOM      6  C   UNL     1       3.136   1.703  19.053  0.00  0.00    +0.000 A 
ATOM      7  C   UNL     1       2.136   2.132  18.178  0.00  0.00    +0.000 A 
ATOM      8  C   UNL     1       2.171   3.408  17.599  0.00  0.00    +0.000 A 
ATOM      9  C   UNL     1       3.157   4.292  18.051  0.00  0.00    +0.000 A 
ENDROOT
BRANCH   2  10
ATOM     10  C   UNL     1       2.148   6.754  19.777  0.00  0.00    +0.000 C 
ATOM     11  O   UNL     1       1.547   6.183  20.726  0.00  0.00    +0.000 OA
ATOM     12  N   UNL     1       1.663   7.987  19.376  0.00  0.00    +0.000 N 
ATOM     13  H   UNL     1       2.197   8.515  18.697  0.00  0.00    +0.000 HD
BRANCH  12  14
ATOM     14  C   UNL     1       0.547   8.724  20.141  0.00  0.00    +0.000 C 
BRANCH  14  15
ATOM     15  C   UNL     1       0.982   9.839  21.178  0.00  0.00    +0.000 A 
ATOM     16  C   UNL     1       1.309   9.269  22.392  0.00  0.00    +0.000 A 
ATOM     17  C   UNL     1       0.294   9.321  23.309  0.00  0.00    +0.000 A 
ATOM     18  N   UNL     1      -0.734  10.196  23.236  0.00  0.00    +0.000 NA
ATOM     19  C   UNL     1      -0.577  11.215  22.387  0.00  0.00    +0.000 A 
ATOM     20  C   UNL     1      -1.153  12.412  22.736  0.00  0.00    +0.000 A 
ATOM     21  C   UNL     1      -0.621  13.626  22.299  0.00  0.00    +0.000 A 
ATOM     22  C   UNL     1       0.469  13.591  21.434  0.00  0.00    +0.000 A 
ATOM     23  C   UNL     1       0.928  12.362  20.923  0.00  0.00    +0.000 A 
ATOM     24  C   UNL     1       0.379  11.111  21.341  0.00  0.00    +0.000 A 
ENDBRANCH  14  15
ENDBRANCH  12  14
ENDBRANCH   2  10
BRANCH   5  25
ATOM     25  O   UNL     1       5.049   2.100  20.374  0.00  0.00    +0.000 OA
ATOM     26  H   UNL     1       5.278   2.823  20.981  0.00  0.00    +0.000 HD
ENDBRANCH   5  25
BRANCH   1  27
ATOM     27  C   UNL     1       4.252   6.408  16.969  0.00  0.00    +0.000 C 
BRANCH  27  32
ATOM     28  C   UNL     1       5.964   4.395  14.092  0.00  0.00    +0.000 A 
ATOM     29  C   UNL     1       7.262   4.315  14.621  0.00  0.00    +0.000 A 
ATOM     30  C   UNL     1       7.565   4.932  15.818  0.00  0.00    +0.000 A 
ATOM     31  C   UNL     1       6.577   5.660  16.498  0.00  0.00    +0.000 A 
ATOM     32  C   UNL     1       5.250   5.784  15.997  0.00  0.00    +0.000 A 
ATOM     33  C   UNL     1       4.948   5.125  14.789  0.00  0.00    +0.000 A 
BRANCH  28  35
ATOM     34  N   UNL     1       4.538   3.644  12.274  0.00  0.00    +0.000 NA
ATOM     35  C   UNL     1       5.714   3.641  12.811  0.00  0.00    +0.000 C 
ATOM     36  N   UNL     1       6.709   2.939  12.197  0.00  0.00    +0.000 N 
ATOM     37  H   UNL     1       4.539   3.102  11.408  0.00  0.00    +0.000 HD
ATOM     38  H   UNL     1       6.397   2.234  11.535  0.00  0.00    +0.000 HD
ATOM     39  H   UNL     1       7.454   2.591  12.786  0.00  0.00    +0.000 HD
ENDBRANCH  28  35
ENDBRANCH  27  32
ENDBRANCH   1  27
TORSDOF 7
ENDMDL
MODEL 9
REMARK VINA RESULT:      -9.1      1.566      2.580
REMARK  Name = 
REMARK  7 active torsions:
REMARK  status: ('A' for Active; 'I' for Inactive)
REMARK    1  A    between atoms: C_2  and  C_4
REMARK    2  A    between atoms: C_8  and  C_9
REMARK    3  A    between atoms: C_9  and  N_10
REMARK    4  A    between atoms: C_11  and  C_12
REMARK    5  A    between atoms: N_14  and  C_15
REMARK    6  A    between atoms: C_15  and  C_16
REMARK    7  A    between atoms: C_28  and  O_29
REMARK                            x       y       z     vdW  Elec       q    Type
REMARK                         _______ _______ _______ _____ _____    ______ ____
ROOT
ATOM      1  N   UNL     1       3.462   5.626  17.819  0.00  0.00    +0.000 N 
ATOM      2  C   UNL     1       3.505   5.957  19.208  0.00  0.00    +0.000 A 
ATOM      3  C   UNL     1       4.574   5.104  19.565  0.00  0.00    +0.000 A 
ATOM      4  C   UNL     1       4.128   3.856  18.978  0.00  0.00    +0.000 A 
ATOM      5  C   UNL     1       4.230   2.468  19.270  0.00  0.00    +0.000 A 
ATOM      6  C   UNL     1       3.212   1.622  18.812  0.00  0.00    +0.000 A 
ATOM      7  C   UNL     1       2.206   2.112  17.978  0.00  0.00    +0.000 A 
ATOM      8  C   UNL     1       2.257   3.413  17.459  0.00  0.00    +0.000 A 
ATOM      9  C   UNL     1       3.270   4.254  17.933  0.00  0.00    +0.000 A 
ENDROOT
BRANCH   2  10
ATOM     10  C   UNL     1       2.347   6.651  19.792  0.00  0.00    +0.000 C 
ATOM     11  O   UNL     1       1.688   6.007  20.651  0.00  0.00    +0.000 OA
ATOM     12  N   UNL     1       1.941   7.949  19.533  0.00  0.00    +0.000 N 
ATOM     13  H   UNL     1       2.522   8.524  18.935  0.00  0.00    +0.000 HD
BRANCH  12  14
ATOM     14  C   UNL     1       0.846   8.653  20.358  0.00  0.00    +0.000 C 
BRANCH  14  15
ATOM     15  C   UNL     1       1.024  10.198  20.648  0.00  0.00    +0.000 A 
ATOM     16  C   UNL     1       0.716  10.483  21.964  0.00  0.00    +0.000 A 
ATOM     17  C   UNL     1      -0.553  10.965  22.134  0.00  0.00    +0.000 A 
ATOM     18  N   UNL     1      -1.277  11.528  21.140  0.00  0.00    +0.000 NA
ATOM     19  C   UNL     1      -0.599  11.866  20.039  0.00  0.00    +0.000 A 
ATOM     20  C   UNL     1      -1.030  12.978  19.359  0.00  0.00    +0.000 A 
ATOM     21  C   UNL     1      -0.146  13.751  18.603  0.00  0.00    +0.000 A 
ATOM     22  C   UNL     1       1.173  13.320  18.492  0.00  0.00    +0.000 A 
ATOM     23  C   UNL     1       1.557  12.075  19.026  0.00  0.00    +0.000 A 
ATOM     24  C   UNL     1       0.660  11.261  19.783  0.00  0.00    +0.000 A 
ENDBRANCH  14  15
ENDBRANCH  12  14
ENDBRANCH   2  10
BRANCH   5  25
ATOM     25  O   UNL     1       5.157   1.916  20.114  0.00  0.00    +0.000 OA
ATOM     26  H   UNL     1       4.861   2.094  21.022  0.00  0.00    +0.000 HD
ENDBRANCH   5  25
BRANCH   1  27
ATOM     27  C   UNL     1       4.390   6.395  16.931  0.00  0.00    +0.000 C 
BRANCH  27  32
ATOM     28  C   UNL     1       5.998   4.384  13.993  0.00  0.00    +0.000 A 
ATOM     29  C   UNL     1       7.336   4.407  14.417  0.00  0.00    +0.000 A 
ATOM     30  C   UNL     1       7.692   5.089  15.563  0.00  0.00    +0.000 A 
ATOM     31  C   UNL     1       6.716   5.778  16.297  0.00  0.00    +0.000 A 
ATOM     32  C   UNL     1       5.348   5.799  15.902  0.00  0.00    +0.000 A 
ATOM     33  C   UNL     1       4.995   5.075  14.745  0.00  0.00    +0.000 A 
BRANCH  28  35
ATOM     34  N   UNL     1       4.566   3.704  12.152  0.00  0.00    +0.000 NA
ATOM     35  C   UNL     1       5.697   3.566  12.763  0.00  0.00    +0.000 C 
ATOM     36  N   UNL     1       6.597   2.666  12.273  0.00  0.00    +0.000 N 
ATOM     37  H   UNL     1       4.525   3.092  11.334  0.00  0.00    +0.000 HD
ATOM     38  H   UNL     1       6.212   1.962  11.651  0.00  0.00    +0.000 HD
ATOM     39  H   UNL     1       7.245   2.261  12.936  0.00  0.00    +0.000 HD
ENDBRANCH  28  35
ENDBRANCH  27  32
ENDBRANCH   1  27
TORSDOF 7
ENDMDL
