MODEL 1
REMARK VINA RESULT:      -6.9      0.000      0.000
REMARK  Name = 
REMARK  10 active torsions:
REMARK  status: ('A' for Active; 'I' for Inactive)
REMARK    1  A    between atoms: C_1  and  C_2
REMARK    2  A    between atoms: C_2  and  C_3
REMARK    3  A    between atoms: C_2  and  O_4
REMARK    4  A    between atoms: O_4  and  C_5
REMARK    5  A    between atoms: C_13  and  C_15
REMARK    6  A    between atoms: C_15  and  N_16
REMARK    7  A    between atoms: N_16  and  C_17
REMARK    8  A    between atoms: N_16  and  C_18
REMARK    9  A    between atoms: N_20  and  C_21
REMARK   10  A    between atoms: C_21  and  C_22
REMARK                            x       y       z     vdW  Elec       q    Type
REMARK                         _______ _______ _______ _____ _____    ______ ____
ROOT
ATOM      1  C   UNL     1       2.234   4.140  18.441  0.00  0.00    +0.000 A 
ATOM      2  C   UNL     1       2.755   2.860  18.154  0.00  0.00    +0.000 A 
ATOM      3  C   UNL     1       3.983   2.679  17.520  0.00  0.00    +0.000 A 
ATOM      4  C   UNL     1       4.739   3.768  17.109  0.00  0.00    +0.000 A 
ATOM      5  C   UNL     1       4.208   5.042  17.339  0.00  0.00    +0.000 A 
ATOM      6  C   UNL     1       2.990   5.266  17.999  0.00  0.00    +0.000 A 
ATOM      7  C   UNL     1       2.867   6.699  18.021  0.00  0.00    +0.000 A 
ATOM      8  N   UNL     1       1.839   7.442  18.565  0.00  0.00    +0.000 N 
ATOM      9  C   UNL     1       1.792   8.828  18.556  0.00  0.00    +0.000 C 
ATOM     10  O   UNL     1       2.561   9.603  17.979  0.00  0.00    +0.000 OA
ATOM     11  N   UNL     1       3.919   7.281  17.444  0.00  0.00    +0.000 NA
ATOM     12  N   UNL     1       4.681   6.284  17.012  0.00  0.00    +0.000 N 
ATOM     13  H   UNL     1       1.114   6.945  19.073  0.00  0.00    +0.000 HD
ENDROOT
BRANCH   1  14
ATOM     14  O   UNL     1       1.049   4.349  19.114  0.00  0.00    +0.000 OA
BRANCH  14  16
ATOM     15  C   UNL     1       1.097   2.740  20.911  0.00  0.00    +0.000 C 
ATOM     16  C   UNL     1       1.042   4.221  20.549  0.00  0.00    +0.000 C 
ATOM     17  C   UNL     1       2.242   4.954  21.145  0.00  0.00    +0.000 C 
ENDBRANCH  14  16
ENDBRANCH   1  14
BRANCH   9  18
ATOM     18  C   UNL     1       0.597   9.408  19.314  0.00  0.00    +0.000 C 
BRANCH  18  19
ATOM     19  N   UNL     1       0.890   9.684  20.744  0.00  0.00    +0.000 NA
ATOM     20  C   UNL     1       0.754  11.120  21.035  0.00  0.00    +0.000 C 
ATOM     21  C   UNL     1      -0.076   8.943  21.565  0.00  0.00    +0.000 C 
ENDBRANCH  18  19
ENDBRANCH   9  18
BRANCH  12  22
ATOM     22  C   UNL     1       5.894   6.615  16.303  0.00  0.00    +0.000 C 
BRANCH  22  23
ATOM     23  C   UNL     1       7.119   6.500  17.175  0.00  0.00    +0.000 C 
ATOM     24  F   UNL     1       8.026   7.483  17.001  0.00  0.00    +0.000 F 
ATOM     25  F   UNL     1       6.789   6.471  18.487  0.00  0.00    +0.000 F 
ATOM     26  F   UNL     1       7.758   5.330  16.910  0.00  0.00    +0.000 F 
ENDBRANCH  22  23
ENDBRANCH  12  22
TORSDOF 6
ENDMDL
MODEL 2
REMARK VINA RESULT:      -6.8      0.786      1.347
REMARK  Name = 
REMARK  10 active torsions:
REMARK  status: ('A' for Active; 'I' for Inactive)
REMARK    1  A    between atoms: C_1  and  C_2
REMARK    2  A    between atoms: C_2  and  C_3
REMARK    3  A    between atoms: C_2  and  O_4
REMARK    4  A    between atoms: O_4  and  C_5
REMARK    5  A    between atoms: C_13  and  C_15
REMARK    6  A    between atoms: C_15  and  N_16
REMARK    7  A    between atoms: N_16  and  C_17
REMARK    8  A    between atoms: N_16  and  C_18
REMARK    9  A    between atoms: N_20  and  C_21
REMARK   10  A    between atoms: C_21  and  C_22
REMARK                            x       y       z     vdW  Elec       q    Type
REMARK                         _______ _______ _______ _____ _____    ______ ____
ROOT
ATOM      1  C   UNL     1       2.264   4.149  18.412  0.00  0.00    +0.000 A 
ATOM      2  C   UNL     1       2.792   2.870  18.134  0.00  0.00    +0.000 A 
ATOM      3  C   UNL     1       4.032   2.691  17.523  0.00  0.00    +0.000 A 
ATOM      4  C   UNL     1       4.793   3.782  17.126  0.00  0.00    +0.000 A 
ATOM      5  C   UNL     1       4.256   5.055  17.347  0.00  0.00    +0.000 A 
ATOM      6  C   UNL     1       3.026   5.276  17.984  0.00  0.00    +0.000 A 
ATOM      7  C   UNL     1       2.900   6.709  18.005  0.00  0.00    +0.000 A 
ATOM      8  N   UNL     1       1.861   7.450  18.531  0.00  0.00    +0.000 N 
ATOM      9  C   UNL     1       1.811   8.836  18.522  0.00  0.00    +0.000 C 
ATOM     10  O   UNL     1       2.589   9.612  17.960  0.00  0.00    +0.000 OA
ATOM     11  N   UNL     1       3.961   7.293  17.448  0.00  0.00    +0.000 NA
ATOM     12  N   UNL     1       4.733   6.298  17.029  0.00  0.00    +0.000 N 
ATOM     13  H   UNL     1       1.127   6.951  19.025  0.00  0.00    +0.000 HD
ENDROOT
BRANCH   1  14
ATOM     14  O   UNL     1       1.066   4.355  19.064  0.00  0.00    +0.000 OA
BRANCH  14  16
ATOM     15  C   UNL     1       1.080   2.705  20.824  0.00  0.00    +0.000 C 
ATOM     16  C   UNL     1       1.026   4.193  20.495  0.00  0.00    +0.000 C 
ATOM     17  C   UNL     1       2.208   4.918  21.136  0.00  0.00    +0.000 C 
ENDBRANCH  14  16
ENDBRANCH   1  14
BRANCH   9  18
ATOM     18  C   UNL     1       0.602   9.413  19.258  0.00  0.00    +0.000 C 
BRANCH  18  19
ATOM     19  N   UNL     1       0.029  10.610  18.593  0.00  0.00    +0.000 NA
ATOM     20  C   UNL     1      -1.399  10.411  18.301  0.00  0.00    +0.000 C 
ATOM     21  C   UNL     1       0.169  11.756  19.502  0.00  0.00    +0.000 C 
ENDBRANCH  18  19
ENDBRANCH   9  18
BRANCH  12  22
ATOM     22  C   UNL     1       5.958   6.631  16.342  0.00  0.00    +0.000 C 
BRANCH  22  23
ATOM     23  C   UNL     1       7.173   6.456  17.218  0.00  0.00    +0.000 C 
ATOM     24  F   UNL     1       6.916   6.452  18.542  0.00  0.00    +0.000 F 
ATOM     25  F   UNL     1       7.832   5.312  16.923  0.00  0.00    +0.000 F 
ATOM     26  F   UNL     1       8.045   7.475  16.994  0.00  0.00    +0.000 F 
ENDBRANCH  22  23
ENDBRANCH  12  22
TORSDOF 6
ENDMDL
MODEL 3
REMARK VINA RESULT:      -6.5      1.597      1.799
REMARK  Name = 
REMARK  10 active torsions:
REMARK  status: ('A' for Active; 'I' for Inactive)
REMARK    1  A    between atoms: C_1  and  C_2
REMARK    2  A    between atoms: C_2  and  C_3
REMARK    3  A    between atoms: C_2  and  O_4
REMARK    4  A    between atoms: O_4  and  C_5
REMARK    5  A    between atoms: C_13  and  C_15
REMARK    6  A    between atoms: C_15  and  N_16
REMARK    7  A    between atoms: N_16  and  C_17
REMARK    8  A    between atoms: N_16  and  C_18
REMARK    9  A    between atoms: N_20  and  C_21
REMARK   10  A    between atoms: C_21  and  C_22
REMARK                            x       y       z     vdW  Elec       q    Type
REMARK                         _______ _______ _______ _____ _____    ______ ____
ROOT
ATOM      1  C   UNL     1       2.204   3.538  18.535  0.00  0.00    +0.000 A 
ATOM      2  C   UNL     1       2.592   2.182  18.484  0.00  0.00    +0.000 A 
ATOM      3  C   UNL     1       3.821   1.777  17.967  0.00  0.00    +0.000 A 
ATOM      4  C   UNL     1       4.713   2.702  17.442  0.00  0.00    +0.000 A 
ATOM      5  C   UNL     1       4.317   4.045  17.438  0.00  0.00    +0.000 A 
ATOM      6  C   UNL     1       3.101   4.495  17.975  0.00  0.00    +0.000 A 
ATOM      7  C   UNL     1       3.138   5.918  17.767  0.00  0.00    +0.000 A 
ATOM      8  N   UNL     1       2.174   6.840  18.123  0.00  0.00    +0.000 N 
ATOM      9  C   UNL     1       2.283   8.204  17.897  0.00  0.00    +0.000 C 
ATOM     10  O   UNL     1       3.160   8.794  17.259  0.00  0.00    +0.000 OA
ATOM     11  N   UNL     1       4.274   6.289  17.177  0.00  0.00    +0.000 NA
ATOM     12  N   UNL     1       4.941   5.163  16.954  0.00  0.00    +0.000 N 
ATOM     13  H   UNL     1       1.375   6.508  18.653  0.00  0.00    +0.000 HD
ENDROOT
BRANCH   1  14
ATOM     14  O   UNL     1       1.019   3.973  19.090  0.00  0.00    +0.000 OA
BRANCH  14  16
ATOM     15  C   UNL     1       1.220   2.729  21.148  0.00  0.00    +0.000 C 
ATOM     16  C   UNL     1       0.933   4.091  20.523  0.00  0.00    +0.000 C 
ATOM     17  C   UNL     1       1.943   5.123  21.024  0.00  0.00    +0.000 C 
ENDBRANCH  14  16
ENDBRANCH   1  14
BRANCH   9  18
ATOM     18  C   UNL     1       1.125   9.018  18.477  0.00  0.00    +0.000 C 
BRANCH  18  19
ATOM     19  N   UNL     1       1.452   9.654  19.779  0.00  0.00    +0.000 NA
ATOM     20  C   UNL     1       0.794  10.964  19.898  0.00  0.00    +0.000 C 
ATOM     21  C   UNL     1       0.964   8.782  20.855  0.00  0.00    +0.000 C 
ENDBRANCH  18  19
ENDBRANCH   9  18
BRANCH  12  22
ATOM     22  C   UNL     1       6.215   5.249  16.283  0.00  0.00    +0.000 C 
BRANCH  22  23
ATOM     23  C   UNL     1       6.157   4.724  14.870  0.00  0.00    +0.000 C 
ATOM     24  F   UNL     1       7.080   5.248  14.038  0.00  0.00    +0.000 F 
ATOM     25  F   UNL     1       6.290   3.378  14.839  0.00  0.00    +0.000 F 
ATOM     26  F   UNL     1       4.942   5.006  14.331  0.00  0.00    +0.000 F 
ENDBRANCH  22  23
ENDBRANCH  12  22
TORSDOF 6
ENDMDL
MODEL 4
REMARK VINA RESULT:      -6.5      1.815      2.166
REMARK  Name = 
REMARK  10 active torsions:
REMARK  status: ('A' for Active; 'I' for Inactive)
REMARK    1  A    between atoms: C_1  and  C_2
REMARK    2  A    between atoms: C_2  and  C_3
REMARK    3  A    between atoms: C_2  and  O_4
REMARK    4  A    between atoms: O_4  and  C_5
REMARK    5  A    between atoms: C_13  and  C_15
REMARK    6  A    between atoms: C_15  and  N_16
REMARK    7  A    between atoms: N_16  and  C_17
REMARK    8  A    between atoms: N_16  and  C_18
REMARK    9  A    between atoms: N_20  and  C_21
REMARK   10  A    between atoms: C_21  and  C_22
REMARK                            x       y       z     vdW  Elec       q    Type
REMARK                         _______ _______ _______ _____ _____    ______ ____
ROOT
ATOM      1  C   UNL     1       2.207   3.570  18.609  0.00  0.00    +0.000 A 
ATOM      2  C   UNL     1       2.549   2.209  18.456  0.00  0.00    +0.000 A 
ATOM      3  C   UNL     1       3.723   1.801  17.827  0.00  0.00    +0.000 A 
ATOM      4  C   UNL     1       4.602   2.731  17.287  0.00  0.00    +0.000 A 
ATOM      5  C   UNL     1       4.247   4.081  17.385  0.00  0.00    +0.000 A 
ATOM      6  C   UNL     1       3.088   4.532  18.035  0.00  0.00    +0.000 A 
ATOM      7  C   UNL     1       3.153   5.964  17.903  0.00  0.00    +0.000 A 
ATOM      8  N   UNL     1       2.246   6.889  18.379  0.00  0.00    +0.000 N 
ATOM      9  C   UNL     1       2.379   8.260  18.219  0.00  0.00    +0.000 C 
ATOM     10  O   UNL     1       3.224   8.862  17.550  0.00  0.00    +0.000 OA
ATOM     11  N   UNL     1       4.253   6.337  17.250  0.00  0.00    +0.000 NA
ATOM     12  N   UNL     1       4.867   5.208  16.917  0.00  0.00    +0.000 N 
ATOM     13  H   UNL     1       1.478   6.548  18.949  0.00  0.00    +0.000 HD
ENDROOT
BRANCH   1  14
ATOM     14  O   UNL     1       1.079   4.003  19.274  0.00  0.00    +0.000 OA
BRANCH  14  16
ATOM     15  C   UNL     1       1.226   2.638  21.257  0.00  0.00    +0.000 C 
ATOM     16  C   UNL     1       1.107   4.058  20.713  0.00  0.00    +0.000 C 
ATOM     17  C   UNL     1       2.292   4.902  21.181  0.00  0.00    +0.000 C 
ENDBRANCH  14  16
ENDBRANCH   1  14
BRANCH   9  18
ATOM     18  C   UNL     1       1.292   9.070  18.928  0.00  0.00    +0.000 C 
BRANCH  18  19
ATOM     19  N   UNL     1       0.809  10.225  18.130  0.00  0.00    +0.000 NA
ATOM     20  C   UNL     1      -0.655  10.189  17.993  0.00  0.00    +0.000 C 
ATOM     21  C   UNL     1       1.187  11.460  18.830  0.00  0.00    +0.000 C 
ENDBRANCH  18  19
ENDBRANCH   9  18
BRANCH  12  22
ATOM     22  C   UNL     1       6.091   5.299  16.158  0.00  0.00    +0.000 C 
BRANCH  22  23
ATOM     23  C   UNL     1       5.969   4.667  14.794  0.00  0.00    +0.000 C 
ATOM     24  F   UNL     1       6.226   3.344  14.763  0.00  0.00    +0.000 F 
ATOM     25  F   UNL     1       4.737   4.860  14.270  0.00  0.00    +0.000 F 
ATOM     26  F   UNL     1       6.849   5.254  13.941  0.00  0.00    +0.000 F 
ENDBRANCH  22  23
ENDBRANCH  12  22
TORSDOF 6
ENDMDL
MODEL 5
REMARK VINA RESULT:      -6.4      1.181      1.350
REMARK  Name = 
REMARK  10 active torsions:
REMARK  status: ('A' for Active; 'I' for Inactive)
REMARK    1  A    between atoms: C_1  and  C_2
REMARK    2  A    between atoms: C_2  and  C_3
REMARK    3  A    between atoms: C_2  and  O_4
REMARK    4  A    between atoms: O_4  and  C_5
REMARK    5  A    between atoms: C_13  and  C_15
REMARK    6  A    between atoms: C_15  and  N_16
REMARK    7  A    between atoms: N_16  and  C_17
REMARK    8  A    between atoms: N_16  and  C_18
REMARK    9  A    between atoms: N_20  and  C_21
REMARK   10  A    between atoms: C_21  and  C_22
REMARK                            x       y       z     vdW  Elec       q    Type
REMARK                         _______ _______ _______ _____ _____    ______ ____
ROOT
ATOM      1  C   UNL     1       2.966   4.632  19.703  0.00  0.00    +0.000 A 
ATOM      2  C   UNL     1       3.704   3.435  19.823  0.00  0.00    +0.000 A 
ATOM      3  C   UNL     1       4.946   3.261  19.216  0.00  0.00    +0.000 A 
ATOM      4  C   UNL     1       5.501   4.262  18.430  0.00  0.00    +0.000 A 
ATOM      5  C   UNL     1       4.755   5.433  18.260  0.00  0.00    +0.000 A 
ATOM      6  C   UNL     1       3.514   5.657  18.877  0.00  0.00    +0.000 A 
ATOM      7  C   UNL     1       3.142   6.975  18.435  0.00  0.00    +0.000 A 
ATOM      8  N   UNL     1       1.998   7.674  18.763  0.00  0.00    +0.000 N 
ATOM      9  C   UNL     1       1.709   8.950  18.303  0.00  0.00    +0.000 C 
ATOM     10  O   UNL     1       2.331   9.606  17.464  0.00  0.00    +0.000 OA
ATOM     11  N   UNL     1       4.077   7.499  17.643  0.00  0.00    +0.000 NA
ATOM     12  N   UNL     1       5.004   6.556  17.519  0.00  0.00    +0.000 N 
ATOM     13  H   UNL     1       1.370   7.260  19.444  0.00  0.00    +0.000 HD
ENDROOT
BRANCH   1  14
ATOM     14  O   UNL     1       1.760   4.852  20.336  0.00  0.00    +0.000 OA
BRANCH  14  16
ATOM     15  C   UNL     1       0.754   3.030  19.115  0.00  0.00    +0.000 C 
ATOM     16  C   UNL     1       0.836   3.753  20.456  0.00  0.00    +0.000 C 
ATOM     17  C   UNL     1       1.307   2.792  21.546  0.00  0.00    +0.000 C 
ENDBRANCH  14  16
ENDBRANCH   1  14
BRANCH   9  18
ATOM     18  C   UNL     1       0.428   9.541  18.895  0.00  0.00    +0.000 C 
BRANCH  18  19
ATOM     19  N   UNL     1       0.685  10.535  19.968  0.00  0.00    +0.000 NA
ATOM     20  C   UNL     1      -0.202  11.700  19.822  0.00  0.00    +0.000 C 
ATOM     21  C   UNL     1       0.415   9.897  21.263  0.00  0.00    +0.000 C 
ENDBRANCH  18  19
ENDBRANCH   9  18
BRANCH  12  22
ATOM     22  C   UNL     1       6.142   6.830  16.675  0.00  0.00    +0.000 C 
BRANCH  22  23
ATOM     23  C   UNL     1       7.255   7.525  17.419  0.00  0.00    +0.000 C 
ATOM     24  F   UNL     1       6.966   8.780  17.818  0.00  0.00    +0.000 F 
ATOM     25  F   UNL     1       7.632   6.821  18.511  0.00  0.00    +0.000 F 
ATOM     26  F   UNL     1       8.350   7.614  16.618  0.00  0.00    +0.000 F 
ENDBRANCH  22  23
ENDBRANCH  12  22
TORSDOF 6
ENDMDL
MODEL 6
REMARK VINA RESULT:      -6.3      2.887      4.865
REMARK  Name = 
REMARK  10 active torsions:
REMARK  status: ('A' for Active; 'I' for Inactive)
REMARK    1  A    between atoms: C_1  and  C_2
REMARK    2  A    between atoms: C_2  and  C_3
REMARK    3  A    between atoms: C_2  and  O_4
REMARK    4  A    between atoms: O_4  and  C_5
REMARK    5  A    between atoms: C_13  and  C_15
REMARK    6  A    between atoms: C_15  and  N_16
REMARK    7  A    between atoms: N_16  and  C_17
REMARK    8  A    between atoms: N_16  and  C_18
REMARK    9  A    between atoms: N_20  and  C_21
REMARK   10  A    between atoms: C_21  and  C_22
REMARK                            x       y       z     vdW  Elec       q    Type
REMARK                         _______ _______ _______ _____ _____    ______ ____
ROOT
ATOM      1  C   UNL     1       5.673   6.145  16.984  0.00  0.00    +0.000 A 
ATOM      2  C   UNL     1       6.389   4.961  16.705  0.00  0.00    +0.000 A 
ATOM      3  C   UNL     1       5.784   3.706  16.709  0.00  0.00    +0.000 A 
ATOM      4  C   UNL     1       4.440   3.564  17.023  0.00  0.00    +0.000 A 
ATOM      5  C   UNL     1       3.732   4.725  17.353  0.00  0.00    +0.000 A 
ATOM      6  C   UNL     1       4.298   6.009  17.334  0.00  0.00    +0.000 A 
ATOM      7  C   UNL     1       3.211   6.871  17.717  0.00  0.00    +0.000 A 
ATOM      8  N   UNL     1       3.240   8.245  17.848  0.00  0.00    +0.000 N 
ATOM      9  C   UNL     1       2.146   9.014  18.215  0.00  0.00    +0.000 C 
ATOM     10  O   UNL     1       1.040   8.617  18.592  0.00  0.00    +0.000 OA
ATOM     11  N   UNL     1       2.096   6.174  17.930  0.00  0.00    +0.000 NA
ATOM     12  N   UNL     1       2.433   4.902  17.749  0.00  0.00    +0.000 N 
ATOM     13  H   UNL     1       4.093   8.727  17.581  0.00  0.00    +0.000 HD
ENDROOT
BRANCH   1  14
ATOM     14  O   UNL     1       6.232   7.405  16.936  0.00  0.00    +0.000 OA
BRANCH  14  16
ATOM     15  C   UNL     1       7.828   9.041  17.710  0.00  0.00    +0.000 C 
ATOM     16  C   UNL     1       7.593   7.571  17.379  0.00  0.00    +0.000 C 
ATOM     17  C   UNL     1       7.850   6.706  18.612  0.00  0.00    +0.000 C 
ENDBRANCH  14  16
ENDBRANCH   1  14
BRANCH   9  18
ATOM     18  C   UNL     1       2.415  10.519  18.187  0.00  0.00    +0.000 C 
BRANCH  18  19
ATOM     19  N   UNL     1       1.284  11.325  18.712  0.00  0.00    +0.000 NA
ATOM     20  C   UNL     1       1.177  11.185  20.172  0.00  0.00    +0.000 C 
ATOM     21  C   UNL     1       1.534  12.737  18.391  0.00  0.00    +0.000 C 
ENDBRANCH  18  19
ENDBRANCH   9  18
BRANCH  12  22
ATOM     22  C   UNL     1       1.420   3.895  17.950  0.00  0.00    +0.000 C 
BRANCH  22  23
ATOM     23  C   UNL     1       1.554   3.202  19.283  0.00  0.00    +0.000 C 
ATOM     24  F   UNL     1       2.293   2.075  19.258  0.00  0.00    +0.000 F 
ATOM     25  F   UNL     1       2.089   4.025  20.214  0.00  0.00    +0.000 F 
ATOM     26  F   UNL     1       0.323   2.850  19.738  0.00  0.00    +0.000 F 
ENDBRANCH  22  23
ENDBRANCH  12  22
TORSDOF 6
ENDMDL
MODEL 7
REMARK VINA RESULT:      -6.3      1.545      1.764
REMARK  Name = 
REMARK  10 active torsions:
REMARK  status: ('A' for Active; 'I' for Inactive)
REMARK    1  A    between atoms: C_1  and  C_2
REMARK    2  A    between atoms: C_2  and  C_3
REMARK    3  A    between atoms: C_2  and  O_4
REMARK    4  A    between atoms: O_4  and  C_5
REMARK    5  A    between atoms: C_13  and  C_15
REMARK    6  A    between atoms: C_15  and  N_16
REMARK    7  A    between atoms: N_16  and  C_17
REMARK    8  A    between atoms: N_16  and  C_18
REMARK    9  A    between atoms: N_20  and  C_21
REMARK   10  A    between atoms: C_21  and  C_22
REMARK                            x       y       z     vdW  Elec       q    Type
REMARK                         _______ _______ _______ _____ _____    ______ ____
ROOT
ATOM      1  C   UNL     1       3.082   4.507  19.826  0.00  0.00    +0.000 A 
ATOM      2  C   UNL     1       3.781   3.298  20.026  0.00  0.00    +0.000 A 
ATOM      3  C   UNL     1       4.981   3.014  19.376  0.00  0.00    +0.000 A 
ATOM      4  C   UNL     1       5.527   3.910  18.467  0.00  0.00    +0.000 A 
ATOM      5  C   UNL     1       4.816   5.089  18.221  0.00  0.00    +0.000 A 
ATOM      6  C   UNL     1       3.620   5.423  18.875  0.00  0.00    +0.000 A 
ATOM      7  C   UNL     1       3.272   6.706  18.325  0.00  0.00    +0.000 A 
ATOM      8  N   UNL     1       2.174   7.481  18.641  0.00  0.00    +0.000 N 
ATOM      9  C   UNL     1       1.906   8.718  18.073  0.00  0.00    +0.000 C 
ATOM     10  O   UNL     1       2.504   9.263  17.141  0.00  0.00    +0.000 OA
ATOM     11  N   UNL     1       4.180   7.112  17.438  0.00  0.00    +0.000 NA
ATOM     12  N   UNL     1       5.064   6.124  17.360  0.00  0.00    +0.000 N 
ATOM     13  H   UNL     1       1.570   7.161  19.391  0.00  0.00    +0.000 HD
ENDROOT
BRANCH   1  14
ATOM     14  O   UNL     1       1.922   4.837  20.495  0.00  0.00    +0.000 OA
BRANCH  14  16
ATOM     15  C   UNL     1       0.678   3.200  19.233  0.00  0.00    +0.000 C 
ATOM     16  C   UNL     1       0.882   3.845  20.600  0.00  0.00    +0.000 C 
ATOM     17  C   UNL     1       1.273   2.786  21.629  0.00  0.00    +0.000 C 
ENDBRANCH  14  16
ENDBRANCH   1  14
BRANCH   9  18
ATOM     18  C   UNL     1       0.683   9.416  18.668  0.00  0.00    +0.000 C 
BRANCH  18  19
ATOM     19  N   UNL     1       0.968  10.097  19.957  0.00  0.00    +0.000 NA
ATOM     20  C   UNL     1       0.608  11.521  19.884  0.00  0.00    +0.000 C 
ATOM     21  C   UNL     1       0.160   9.460  21.005  0.00  0.00    +0.000 C 
ENDBRANCH  18  19
ENDBRANCH   9  18
BRANCH  12  22
ATOM     22  C   UNL     1       6.162   6.267  16.435  0.00  0.00    +0.000 C 
BRANCH  22  23
ATOM     23  C   UNL     1       6.190   5.169  15.402  0.00  0.00    +0.000 C 
ATOM     24  F   UNL     1       6.623   5.554  14.184  0.00  0.00    +0.000 F 
ATOM     25  F   UNL     1       6.962   4.133  15.805  0.00  0.00    +0.000 F 
ATOM     26  F   UNL     1       4.936   4.675  15.231  0.00  0.00    +0.000 F 
ENDBRANCH  22  23
ENDBRANCH  12  22
TORSDOF 6
ENDMDL
MODEL 8
REMARK VINA RESULT:      -6.3      2.813      4.833
REMARK  Name = 
REMARK  10 active torsions:
REMARK  status: ('A' for Active; 'I' for Inactive)
REMARK    1  A    between atoms: C_1  and  C_2
REMARK    2  A    between atoms: C_2  and  C_3
REMARK    3  A    between atoms: C_2  and  O_4
REMARK    4  A    between atoms: O_4  and  C_5
REMARK    5  A    between atoms: C_13  and  C_15
REMARK    6  A    between atoms: C_15  and  N_16
REMARK    7  A    between atoms: N_16  and  C_17
REMARK    8  A    between atoms: N_16  and  C_18
REMARK    9  A    between atoms: N_20  and  C_21
REMARK   10  A    between atoms: C_21  and  C_22
REMARK                            x       y       z     vdW  Elec       q    Type
REMARK                         _______ _______ _______ _____ _____    ______ ____
ROOT
ATOM      1  C   UNL     1       6.051   6.107  16.616  0.00  0.00    +0.000 A 
ATOM      2  C   UNL     1       6.935   5.345  15.822  0.00  0.00    +0.000 A 
ATOM      3  C   UNL     1       6.667   4.025  15.465  0.00  0.00    +0.000 A 
ATOM      4  C   UNL     1       5.518   3.386  15.911  0.00  0.00    +0.000 A 
ATOM      5  C   UNL     1       4.660   4.114  16.743  0.00  0.00    +0.000 A 
ATOM      6  C   UNL     1       4.881   5.453  17.102  0.00  0.00    +0.000 A 
ATOM      7  C   UNL     1       3.753   5.778  17.933  0.00  0.00    +0.000 A 
ATOM      8  N   UNL     1       3.485   6.986  18.545  0.00  0.00    +0.000 N 
ATOM      9  C   UNL     1       2.368   7.230  19.329  0.00  0.00    +0.000 C 
ATOM     10  O   UNL     1       1.520   6.416  19.704  0.00  0.00    +0.000 OA
ATOM     11  N   UNL     1       2.925   4.740  18.049  0.00  0.00    +0.000 NA
ATOM     12  N   UNL     1       3.499   3.753  17.372  0.00  0.00    +0.000 N 
ATOM     13  H   UNL     1       4.104   7.766  18.342  0.00  0.00    +0.000 HD
ENDROOT
BRANCH   1  14
ATOM     14  O   UNL     1       6.264   7.431  16.940  0.00  0.00    +0.000 OA
BRANCH  14  16
ATOM     15  C   UNL     1       7.557   9.317  17.709  0.00  0.00    +0.000 C 
ATOM     16  C   UNL     1       7.582   7.832  17.362  0.00  0.00    +0.000 C 
ATOM     17  C   UNL     1       8.012   7.014  18.579  0.00  0.00    +0.000 C 
ENDBRANCH  14  16
ENDBRANCH   1  14
BRANCH   9  18
ATOM     18  C   UNL     1       2.256   8.679  19.805  0.00  0.00    +0.000 C 
BRANCH  18  19
ATOM     19  N   UNL     1       0.987   8.962  20.524  0.00  0.00    +0.000 NA
ATOM     20  C   UNL     1       1.237   9.184  21.956  0.00  0.00    +0.000 C 
ATOM     21  C   UNL     1       0.395  10.180  19.955  0.00  0.00    +0.000 C 
ENDBRANCH  18  19
ENDBRANCH   9  18
BRANCH  12  22
ATOM     22  C   UNL     1       2.838   2.470  17.349  0.00  0.00    +0.000 C 
BRANCH  22  23
ATOM     23  C   UNL     1       3.024   1.706  18.636  0.00  0.00    +0.000 C 
ATOM     24  F   UNL     1       3.685   2.379  19.600  0.00  0.00    +0.000 F 
ATOM     25  F   UNL     1       1.838   1.309  19.150  0.00  0.00    +0.000 F 
ATOM     26  F   UNL     1       3.739   0.575  18.393  0.00  0.00    +0.000 F 
ENDBRANCH  22  23
ENDBRANCH  12  22
TORSDOF 6
ENDMDL
MODEL 9
REMARK VINA RESULT:      -6.3      6.122      8.683
REMARK  Name = 
REMARK  10 active torsions:
REMARK  status: ('A' for Active; 'I' for Inactive)
REMARK    1  A    between atoms: C_1  and  C_2
REMARK    2  A    between atoms: C_2  and  C_3
REMARK    3  A    between atoms: C_2  and  O_4
REMARK    4  A    between atoms: O_4  and  C_5
REMARK    5  A    between atoms: C_13  and  C_15
REMARK    6  A    between atoms: C_15  and  N_16
REMARK    7  A    between atoms: N_16  and  C_17
REMARK    8  A    between atoms: N_16  and  C_18
REMARK    9  A    between atoms: N_20  and  C_21
REMARK   10  A    between atoms: C_21  and  C_22
REMARK                            x       y       z     vdW  Elec       q    Type
REMARK                         _______ _______ _______ _____ _____    ______ ____
ROOT
ATOM      1  C   UNL     1      -3.791  11.437  17.950  0.00  0.00    +0.000 A 
ATOM      2  C   UNL     1      -3.641  10.660  16.782  0.00  0.00    +0.000 A 
ATOM      3  C   UNL     1      -2.485   9.929  16.515  0.00  0.00    +0.000 A 
ATOM      4  C   UNL     1      -1.405   9.963  17.387  0.00  0.00    +0.000 A 
ATOM      5  C   UNL     1      -1.521  10.771  18.522  0.00  0.00    +0.000 A 
ATOM      6  C   UNL     1      -2.678  11.500  18.839  0.00  0.00    +0.000 A 
ATOM      7  C   UNL     1      -2.347  12.152  20.079  0.00  0.00    +0.000 A 
ATOM      8  N   UNL     1      -3.151  12.991  20.823  0.00  0.00    +0.000 N 
ATOM      9  C   UNL     1      -2.766  13.579  22.018  0.00  0.00    +0.000 C 
ATOM     10  O   UNL     1      -1.648  13.558  22.541  0.00  0.00    +0.000 OA
ATOM     11  N   UNL     1      -1.115  11.832  20.476  0.00  0.00    +0.000 NA
ATOM     12  N   UNL     1      -0.628  11.047  19.523  0.00  0.00    +0.000 N 
ATOM     13  H   UNL     1      -4.110  13.121  20.516  0.00  0.00    +0.000 HD
ENDROOT
BRANCH   1  14
ATOM     14  O   UNL     1      -4.942  12.127  18.266  0.00  0.00    +0.000 OA
BRANCH  14  16
ATOM     15  C   UNL     1      -6.804  10.671  18.751  0.00  0.00    +0.000 C 
ATOM     16  C   UNL     1      -6.197  11.646  17.746  0.00  0.00    +0.000 C 
ATOM     17  C   UNL     1      -7.148  12.817  17.508  0.00  0.00    +0.000 C 
ENDBRANCH  14  16
ENDBRANCH   1  14
BRANCH   9  18
ATOM     18  C   UNL     1      -3.877  14.383  22.694  0.00  0.00    +0.000 C 
BRANCH  18  19
ATOM     19  N   UNL     1      -4.986  13.535  23.202  0.00  0.00    +0.000 NA
ATOM     20  C   UNL     1      -4.545  12.739  24.358  0.00  0.00    +0.000 C 
ATOM     21  C   UNL     1      -6.083  14.414  23.627  0.00  0.00    +0.000 C 
ENDBRANCH  18  19
ENDBRANCH   9  18
BRANCH  12  22
ATOM     22  C   UNL     1       0.725  10.566  19.665  0.00  0.00    +0.000 C 
BRANCH  22  23
ATOM     23  C   UNL     1       0.831   9.434  20.656  0.00  0.00    +0.000 C 
ATOM     24  F   UNL     1       1.343   9.782  21.854  0.00  0.00    +0.000 F 
ATOM     25  F   UNL     1      -0.373   8.856  20.875  0.00  0.00    +0.000 F 
ATOM     26  F   UNL     1       1.641   8.465  20.154  0.00  0.00    +0.000 F 
ENDBRANCH  22  23
ENDBRANCH  12  22
TORSDOF 6
ENDMDL
