MODEL 1
REMARK VINA RESULT:      -9.6      0.000      0.000
REMARK  Name = 
REMARK  5 active torsions:
REMARK  status: ('A' for Active; 'I' for Inactive)
REMARK    1  A    between atoms: C_2  and  C_4
REMARK    2  A    between atoms: C_9  and  C_10
REMARK    3  A    between atoms: C_13  and  C_14
REMARK    4  A    between atoms: C_23  and  N_24
REMARK    5  A    between atoms: N_24  and  C_25
REMARK                            x       y       z     vdW  Elec       q    Type
REMARK                         _______ _______ _______ _____ _____    ______ ____
ROOT
ATOM      1  C   UNL     1       3.221   3.586  19.475  0.00  0.00    +0.000 A 
ATOM      2  C   UNL     1       2.333   3.422  20.525  0.00  0.00    +0.000 A 
ATOM      3  N   UNL     1       1.646   4.430  21.106  0.00  0.00    +0.000 NA
ATOM      4  C   UNL     1       1.803   5.667  20.610  0.00  0.00    +0.000 A 
ATOM      5  C   UNL     1       1.049   6.694  21.175  0.00  0.00    +0.000 A 
ATOM      6  C   UNL     1       1.083   8.016  20.702  0.00  0.00    +0.000 A 
ATOM      7  C   UNL     1       1.914   8.285  19.614  0.00  0.00    +0.000 A 
ATOM      8  C   UNL     1       2.667   7.272  19.029  0.00  0.00    +0.000 A 
ATOM      9  C   UNL     1       2.672   5.954  19.534  0.00  0.00    +0.000 A 
ATOM     10  C   UNL     1       3.469   4.892  19.006  0.00  0.00    +0.000 A 
ENDROOT
BRANCH   6  11
ATOM     11  C   UNL     1       0.213   9.076  21.246  0.00  0.00    +0.000 A 
ATOM     12  C   UNL     1      -0.168   9.086  22.599  0.00  0.00    +0.000 A 
ATOM     13  C   UNL     1      -0.861  10.167  23.151  0.00  0.00    +0.000 A 
ATOM     14  C   UNL     1      -1.209  11.267  22.359  0.00  0.00    +0.000 A 
ATOM     15  C   UNL     1      -0.880  11.242  20.995  0.00  0.00    +0.000 A 
ATOM     16  C   UNL     1      -0.180  10.163  20.450  0.00  0.00    +0.000 A 
BRANCH  14  17
ATOM     17  C   UNL     1      -1.897  12.472  22.942  0.00  0.00    +0.000 C 
ATOM     18  F   UNL     1      -2.846  12.165  23.869  0.00  0.00    +0.000 F 
ATOM     19  F   UNL     1      -1.026  13.313  23.569  0.00  0.00    +0.000 F 
ATOM     20  F   UNL     1      -2.527  13.224  21.998  0.00  0.00    +0.000 F 
ENDBRANCH  14  17
ENDBRANCH   6  11
BRANCH   1  22
ATOM     21  N   UNL     1       4.847   1.769  19.655  0.00  0.00    +0.000 N 
ATOM     22  C   UNL     1       3.901   2.403  18.895  0.00  0.00    +0.000 C 
ATOM     23  O   UNL     1       3.596   1.969  17.791  0.00  0.00    +0.000 OA
ATOM     24  H   UNL     1       5.205   0.897  19.280  0.00  0.00    +0.000 HD
ATOM     25  H   UNL     1       4.925   1.899  20.654  0.00  0.00    +0.000 HD
ENDBRANCH   1  22
BRANCH  10  26
ATOM     26  N   UNL     1       4.429   5.100  17.961  0.00  0.00    +0.000 N 
ATOM     27  H   UNL     1       4.626   4.207  17.482  0.00  0.00    +0.000 HD
BRANCH  26  28
ATOM     28  C   UNL     1       5.652   5.820  18.000  0.00  0.00    +0.000 A 
ATOM     29  C   UNL     1       5.931   6.912  17.169  0.00  0.00    +0.000 A 
ATOM     30  C   UNL     1       7.167   7.560  17.232  0.00  0.00    +0.000 A 
ATOM     31  C   UNL     1       8.123   7.152  18.160  0.00  0.00    +0.000 A 
ATOM     32  C   UNL     1       7.844   6.094  19.022  0.00  0.00    +0.000 A 
ATOM     33  C   UNL     1       6.615   5.435  18.943  0.00  0.00    +0.000 A 
ENDBRANCH  26  28
ENDBRANCH  10  26
TORSDOF 5
ENDMDL
MODEL 2
REMARK VINA RESULT:      -9.3      0.328      1.178
REMARK  Name = 
REMARK  5 active torsions:
REMARK  status: ('A' for Active; 'I' for Inactive)
REMARK    1  A    between atoms: C_2  and  C_4
REMARK    2  A    between atoms: C_9  and  C_10
REMARK    3  A    between atoms: C_13  and  C_14
REMARK    4  A    between atoms: C_23  and  N_24
REMARK    5  A    between atoms: N_24  and  C_25
REMARK                            x       y       z     vdW  Elec       q    Type
REMARK                         _______ _______ _______ _____ _____    ______ ____
ROOT
ATOM      1  C   UNL     1       3.128   3.438  19.485  0.00  0.00    +0.000 A 
ATOM      2  C   UNL     1       2.215   3.329  20.521  0.00  0.00    +0.000 A 
ATOM      3  N   UNL     1       1.596   4.379  21.104  0.00  0.00    +0.000 NA
ATOM      4  C   UNL     1       1.852   5.607  20.626  0.00  0.00    +0.000 A 
ATOM      5  C   UNL     1       1.168   6.680  21.194  0.00  0.00    +0.000 A 
ATOM      6  C   UNL     1       1.308   8.002  20.738  0.00  0.00    +0.000 A 
ATOM      7  C   UNL     1       2.173   8.220  19.665  0.00  0.00    +0.000 A 
ATOM      8  C   UNL     1       2.858   7.161  19.079  0.00  0.00    +0.000 A 
ATOM      9  C   UNL     1       2.757   5.841  19.567  0.00  0.00    +0.000 A 
ATOM     10  C   UNL     1       3.480   4.728  19.037  0.00  0.00    +0.000 A 
ENDROOT
BRANCH   6  11
ATOM     11  C   UNL     1       0.511   9.117  21.282  0.00  0.00    +0.000 A 
ATOM     12  C   UNL     1       0.010  10.133  20.449  0.00  0.00    +0.000 A 
ATOM     13  C   UNL     1      -0.872  11.102  20.935  0.00  0.00    +0.000 A 
ATOM     14  C   UNL     1      -1.268  11.094  22.277  0.00  0.00    +0.000 A 
ATOM     15  C   UNL     1      -0.731  10.118  23.128  0.00  0.00    +0.000 A 
ATOM     16  C   UNL     1       0.144   9.145  22.636  0.00  0.00    +0.000 A 
BRANCH  14  17
ATOM     17  C   UNL     1      -2.266  12.087  22.810  0.00  0.00    +0.000 C 
ATOM     18  F   UNL     1      -1.699  13.224  23.300  0.00  0.00    +0.000 F 
ATOM     19  F   UNL     1      -3.150  12.496  21.856  0.00  0.00    +0.000 F 
ATOM     20  F   UNL     1      -3.020  11.578  23.823  0.00  0.00    +0.000 F 
ENDBRANCH  14  17
ENDBRANCH   6  11
BRANCH   1  22
ATOM     21  N   UNL     1       4.800   1.656  19.540  0.00  0.00    +0.000 N 
ATOM     22  C   UNL     1       3.727   2.215  18.900  0.00  0.00    +0.000 C 
ATOM     23  O   UNL     1       3.252   1.685  17.903  0.00  0.00    +0.000 OA
ATOM     24  H   UNL     1       5.110   0.758  19.184  0.00  0.00    +0.000 HD
ATOM     25  H   UNL     1       5.042   1.873  20.497  0.00  0.00    +0.000 HD
ENDBRANCH   1  22
BRANCH  10  26
ATOM     26  N   UNL     1       4.469   4.876  18.009  0.00  0.00    +0.000 N 
ATOM     27  H   UNL     1       4.737   3.949  17.643  0.00  0.00    +0.000 HD
BRANCH  26  28
ATOM     28  C   UNL     1       5.646   5.671  18.007  0.00  0.00    +0.000 A 
ATOM     29  C   UNL     1       5.849   6.745  17.133  0.00  0.00    +0.000 A 
ATOM     30  C   UNL     1       7.043   7.470  17.157  0.00  0.00    +0.000 A 
ATOM     31  C   UNL     1       8.031   7.156  18.088  0.00  0.00    +0.000 A 
ATOM     32  C   UNL     1       7.825   6.116  18.992  0.00  0.00    +0.000 A 
ATOM     33  C   UNL     1       6.639   5.381  18.951  0.00  0.00    +0.000 A 
ENDBRANCH  26  28
ENDBRANCH  10  26
TORSDOF 5
ENDMDL
MODEL 3
REMARK VINA RESULT:      -9.3      0.380      1.463
REMARK  Name = 
REMARK  5 active torsions:
REMARK  status: ('A' for Active; 'I' for Inactive)
REMARK    1  A    between atoms: C_2  and  C_4
REMARK    2  A    between atoms: C_9  and  C_10
REMARK    3  A    between atoms: C_13  and  C_14
REMARK    4  A    between atoms: C_23  and  N_24
REMARK    5  A    between atoms: N_24  and  C_25
REMARK                            x       y       z     vdW  Elec       q    Type
REMARK                         _______ _______ _______ _____ _____    ______ ____
ROOT
ATOM      1  C   UNL     1       2.798   3.599  19.203  0.00  0.00    +0.000 A 
ATOM      2  C   UNL     1       1.851   3.466  20.204  0.00  0.00    +0.000 A 
ATOM      3  N   UNL     1       1.267   4.503  20.844  0.00  0.00    +0.000 NA
ATOM      4  C   UNL     1       1.597   5.746  20.461  0.00  0.00    +0.000 A 
ATOM      5  C   UNL     1       0.951   6.811  21.084  0.00  0.00    +0.000 A 
ATOM      6  C   UNL     1       1.168   8.152  20.726  0.00  0.00    +0.000 A 
ATOM      7  C   UNL     1       2.074   8.399  19.694  0.00  0.00    +0.000 A 
ATOM      8  C   UNL     1       2.723   7.349  19.052  0.00  0.00    +0.000 A 
ATOM      9  C   UNL     1       2.543   6.006  19.444  0.00  0.00    +0.000 A 
ATOM     10  C   UNL     1       3.227   4.897  18.856  0.00  0.00    +0.000 A 
ENDROOT
BRANCH   6  11
ATOM     11  C   UNL     1       0.411   9.266  21.327  0.00  0.00    +0.000 A 
ATOM     12  C   UNL     1      -0.036  10.349  20.549  0.00  0.00    +0.000 A 
ATOM     13  C   UNL     1      -0.884  11.325  21.082  0.00  0.00    +0.000 A 
ATOM     14  C   UNL     1      -1.296  11.256  22.418  0.00  0.00    +0.000 A 
ATOM     15  C   UNL     1      -0.812  10.209  23.216  0.00  0.00    +0.000 A 
ATOM     16  C   UNL     1       0.028   9.231  22.676  0.00  0.00    +0.000 A 
BRANCH  14  17
ATOM     17  C   UNL     1      -2.260  12.256  22.998  0.00  0.00    +0.000 C 
ATOM     18  F   UNL     1      -3.034  12.874  22.063  0.00  0.00    +0.000 F 
ATOM     19  F   UNL     1      -3.129  11.688  23.881  0.00  0.00    +0.000 F 
ATOM     20  F   UNL     1      -1.632  13.252  23.681  0.00  0.00    +0.000 F 
ENDBRANCH  14  17
ENDBRANCH   6  11
BRANCH   1  22
ATOM     21  N   UNL     1       4.391   1.744  19.167  0.00  0.00    +0.000 N 
ATOM     22  C   UNL     1       3.353   2.390  18.549  0.00  0.00    +0.000 C 
ATOM     23  O   UNL     1       2.872   1.946  17.514  0.00  0.00    +0.000 OA
ATOM     24  H   UNL     1       4.667   0.858  18.758  0.00  0.00    +0.000 HD
ATOM     25  H   UNL     1       4.626   1.889  20.139  0.00  0.00    +0.000 HD
ENDBRANCH   1  22
BRANCH  10  26
ATOM     26  N   UNL     1       4.251   5.065  17.866  0.00  0.00    +0.000 N 
ATOM     27  H   UNL     1       4.412   4.173  17.373  0.00  0.00    +0.000 HD
BRANCH  26  28
ATOM     28  C   UNL     1       5.516   5.698  17.987  0.00  0.00    +0.000 A 
ATOM     29  C   UNL     1       6.494   5.298  18.906  0.00  0.00    +0.000 A 
ATOM     30  C   UNL     1       7.708   5.983  19.001  0.00  0.00    +0.000 A 
ATOM     31  C   UNL     1       7.976   7.049  18.145  0.00  0.00    +0.000 A 
ATOM     32  C   UNL     1       7.030   7.431  17.197  0.00  0.00    +0.000 A 
ATOM     33  C   UNL     1       5.809   6.758  17.119  0.00  0.00    +0.000 A 
ENDBRANCH  26  28
ENDBRANCH  10  26
TORSDOF 5
ENDMDL
MODEL 4
REMARK VINA RESULT:      -9.3      1.167      1.846
REMARK  Name = 
REMARK  5 active torsions:
REMARK  status: ('A' for Active; 'I' for Inactive)
REMARK    1  A    between atoms: C_2  and  C_4
REMARK    2  A    between atoms: C_9  and  C_10
REMARK    3  A    between atoms: C_13  and  C_14
REMARK    4  A    between atoms: C_23  and  N_24
REMARK    5  A    between atoms: N_24  and  C_25
REMARK                            x       y       z     vdW  Elec       q    Type
REMARK                         _______ _______ _______ _____ _____    ______ ____
ROOT
ATOM      1  C   UNL     1       2.949   3.581  19.243  0.00  0.00    +0.000 A 
ATOM      2  C   UNL     1       2.442   3.579  20.532  0.00  0.00    +0.000 A 
ATOM      3  N   UNL     1       1.972   4.674  21.168  0.00  0.00    +0.000 NA
ATOM      4  C   UNL     1       1.959   5.835  20.496  0.00  0.00    +0.000 A 
ATOM      5  C   UNL     1       1.421   6.950  21.135  0.00  0.00    +0.000 A 
ATOM      6  C   UNL     1       1.298   8.203  20.512  0.00  0.00    +0.000 A 
ATOM      7  C   UNL     1       1.738   8.307  19.193  0.00  0.00    +0.000 A 
ATOM      8  C   UNL     1       2.270   7.204  18.533  0.00  0.00    +0.000 A 
ATOM      9  C   UNL     1       2.440   5.958  19.173  0.00  0.00    +0.000 A 
ATOM     10  C   UNL     1       3.031   4.811  18.559  0.00  0.00    +0.000 A 
ENDROOT
BRANCH   6  11
ATOM     11  C   UNL     1       0.642   9.352  21.164  0.00  0.00    +0.000 A 
ATOM     12  C   UNL     1       0.391  10.545  20.464  0.00  0.00    +0.000 A 
ATOM     13  C   UNL     1      -0.366  11.575  21.030  0.00  0.00    +0.000 A 
ATOM     14  C   UNL     1      -0.882  11.449  22.325  0.00  0.00    +0.000 A 
ATOM     15  C   UNL     1      -0.591  10.285  23.052  0.00  0.00    +0.000 A 
ATOM     16  C   UNL     1       0.159   9.255  22.478  0.00  0.00    +0.000 A 
BRANCH  14  17
ATOM     17  C   UNL     1      -1.754  12.514  22.933  0.00  0.00    +0.000 C 
ATOM     18  F   UNL     1      -2.402  13.281  22.012  0.00  0.00    +0.000 F 
ATOM     19  F   UNL     1      -2.729  11.993  23.731  0.00  0.00    +0.000 F 
ATOM     20  F   UNL     1      -1.054  13.380  23.715  0.00  0.00    +0.000 F 
ENDBRANCH  14  17
ENDBRANCH   6  11
BRANCH   1  22
ATOM     21  N   UNL     1       4.464   1.662  19.222  0.00  0.00    +0.000 N 
ATOM     22  C   UNL     1       3.414   2.313  18.633  0.00  0.00    +0.000 C 
ATOM     23  O   UNL     1       2.848   1.827  17.660  0.00  0.00    +0.000 OA
ATOM     24  H   UNL     1       4.679   0.742  18.854  0.00  0.00    +0.000 HD
ATOM     25  H   UNL     1       4.769   1.855  20.166  0.00  0.00    +0.000 HD
ENDBRANCH   1  22
BRANCH  10  26
ATOM     26  N   UNL     1       3.608   4.855  17.247  0.00  0.00    +0.000 N 
ATOM     27  H   UNL     1       3.102   4.213  16.619  0.00  0.00    +0.000 HD
BRANCH  26  28
ATOM     28  C   UNL     1       4.976   4.802  16.869  0.00  0.00    +0.000 A 
ATOM     29  C   UNL     1       6.033   4.956  17.775  0.00  0.00    +0.000 A 
ATOM     30  C   UNL     1       7.359   4.927  17.337  0.00  0.00    +0.000 A 
ATOM     31  C   UNL     1       7.645   4.697  15.993  0.00  0.00    +0.000 A 
ATOM     32  C   UNL     1       6.605   4.500  15.087  0.00  0.00    +0.000 A 
ATOM     33  C   UNL     1       5.280   4.550  15.525  0.00  0.00    +0.000 A 
ENDBRANCH  26  28
ENDBRANCH  10  26
TORSDOF 5
ENDMDL
MODEL 5
REMARK VINA RESULT:      -9.2      1.154      1.572
REMARK  Name = 
REMARK  5 active torsions:
REMARK  status: ('A' for Active; 'I' for Inactive)
REMARK    1  A    between atoms: C_2  and  C_4
REMARK    2  A    between atoms: C_9  and  C_10
REMARK    3  A    between atoms: C_13  and  C_14
REMARK    4  A    between atoms: C_23  and  N_24
REMARK    5  A    between atoms: N_24  and  C_25
REMARK                            x       y       z     vdW  Elec       q    Type
REMARK                         _______ _______ _______ _____ _____    ______ ____
ROOT
ATOM      1  C   UNL     1       3.032   3.540  19.226  0.00  0.00    +0.000 A 
ATOM      2  C   UNL     1       2.606   3.570  20.544  0.00  0.00    +0.000 A 
ATOM      3  N   UNL     1       2.148   4.674  21.172  0.00  0.00    +0.000 NA
ATOM      4  C   UNL     1       2.062   5.811  20.464  0.00  0.00    +0.000 A 
ATOM      5  C   UNL     1       1.536   6.934  21.100  0.00  0.00    +0.000 A 
ATOM      6  C   UNL     1       1.342   8.162  20.446  0.00  0.00    +0.000 A 
ATOM      7  C   UNL     1       1.697   8.232  19.098  0.00  0.00    +0.000 A 
ATOM      8  C   UNL     1       2.215   7.120  18.442  0.00  0.00    +0.000 A 
ATOM      9  C   UNL     1       2.457   5.900  19.110  0.00  0.00    +0.000 A 
ATOM     10  C   UNL     1       3.039   4.748  18.498  0.00  0.00    +0.000 A 
ENDROOT
BRANCH   6  11
ATOM     11  C   UNL     1       0.698   9.316  21.100  0.00  0.00    +0.000 A 
ATOM     12  C   UNL     1       0.468  10.516  20.404  0.00  0.00    +0.000 A 
ATOM     13  C   UNL     1      -0.278  11.553  20.971  0.00  0.00    +0.000 A 
ATOM     14  C   UNL     1      -0.804  11.427  22.262  0.00  0.00    +0.000 A 
ATOM     15  C   UNL     1      -0.534  10.256  22.985  0.00  0.00    +0.000 A 
ATOM     16  C   UNL     1       0.206   9.219  22.410  0.00  0.00    +0.000 A 
BRANCH  14  17
ATOM     17  C   UNL     1      -1.665  12.501  22.871  0.00  0.00    +0.000 C 
ATOM     18  F   UNL     1      -2.674  12.018  23.649  0.00  0.00    +0.000 F 
ATOM     19  F   UNL     1      -0.954  13.345  23.670  0.00  0.00    +0.000 F 
ATOM     20  F   UNL     1      -2.261  13.288  21.933  0.00  0.00    +0.000 F 
ENDBRANCH  14  17
ENDBRANCH   6  11
BRANCH   1  22
ATOM     21  N   UNL     1       4.528   1.607  19.235  0.00  0.00    +0.000 N 
ATOM     22  C   UNL     1       3.491   2.263  18.629  0.00  0.00    +0.000 C 
ATOM     23  O   UNL     1       2.932   1.777  17.653  0.00  0.00    +0.000 OA
ATOM     24  H   UNL     1       4.738   0.682  18.874  0.00  0.00    +0.000 HD
ATOM     25  H   UNL     1       4.823   1.803  20.181  0.00  0.00    +0.000 HD
ENDBRANCH   1  22
BRANCH  10  26
ATOM     26  N   UNL     1       3.532   4.762  17.152  0.00  0.00    +0.000 N 
ATOM     27  H   UNL     1       3.109   3.988  16.615  0.00  0.00    +0.000 HD
BRANCH  26  28
ATOM     28  C   UNL     1       4.868   4.896  16.690  0.00  0.00    +0.000 A 
ATOM     29  C   UNL     1       5.328   4.345  15.487  0.00  0.00    +0.000 A 
ATOM     30  C   UNL     1       6.663   4.483  15.102  0.00  0.00    +0.000 A 
ATOM     31  C   UNL     1       7.545   5.214  15.894  0.00  0.00    +0.000 A 
ATOM     32  C   UNL     1       7.093   5.804  17.072  0.00  0.00    +0.000 A 
ATOM     33  C   UNL     1       5.762   5.646  17.464  0.00  0.00    +0.000 A 
ENDBRANCH  26  28
ENDBRANCH  10  26
TORSDOF 5
ENDMDL
MODEL 6
REMARK VINA RESULT:      -9.2      5.979      9.650
REMARK  Name = 
REMARK  5 active torsions:
REMARK  status: ('A' for Active; 'I' for Inactive)
REMARK    1  A    between atoms: C_2  and  C_4
REMARK    2  A    between atoms: C_9  and  C_10
REMARK    3  A    between atoms: C_13  and  C_14
REMARK    4  A    between atoms: C_23  and  N_24
REMARK    5  A    between atoms: N_24  and  C_25
REMARK                            x       y       z     vdW  Elec       q    Type
REMARK                         _______ _______ _______ _____ _____    ______ ____
ROOT
ATOM      1  C   UNL     1      -0.309  10.537  21.568  0.00  0.00    +0.000 A 
ATOM      2  C   UNL     1       0.364   9.545  22.263  0.00  0.00    +0.000 A 
ATOM      3  N   UNL     1       1.142   8.604  21.685  0.00  0.00    +0.000 NA
ATOM      4  C   UNL     1       1.307   8.653  20.355  0.00  0.00    +0.000 A 
ATOM      5  C   UNL     1       2.156   7.715  19.771  0.00  0.00    +0.000 A 
ATOM      6  C   UNL     1       2.453   7.704  18.397  0.00  0.00    +0.000 A 
ATOM      7  C   UNL     1       1.862   8.690  17.607  0.00  0.00    +0.000 A 
ATOM      8  C   UNL     1       1.019   9.641  18.172  0.00  0.00    +0.000 A 
ATOM      9  C   UNL     1       0.680   9.624  19.542  0.00  0.00    +0.000 A 
ATOM     10  C   UNL     1      -0.224  10.542  20.160  0.00  0.00    +0.000 A 
ENDROOT
BRANCH   6  11
ATOM     11  C   UNL     1       3.424   6.766  17.804  0.00  0.00    +0.000 A 
ATOM     12  C   UNL     1       3.228   5.375  17.863  0.00  0.00    +0.000 A 
ATOM     13  C   UNL     1       4.062   4.493  17.170  0.00  0.00    +0.000 A 
ATOM     14  C   UNL     1       5.131   4.977  16.408  0.00  0.00    +0.000 A 
ATOM     15  C   UNL     1       5.368   6.359  16.386  0.00  0.00    +0.000 A 
ATOM     16  C   UNL     1       4.526   7.238  17.074  0.00  0.00    +0.000 A 
BRANCH  14  17
ATOM     17  C   UNL     1       6.004   4.054  15.600  0.00  0.00    +0.000 C 
ATOM     18  F   UNL     1       5.731   2.734  15.794  0.00  0.00    +0.000 F 
ATOM     19  F   UNL     1       5.879   4.265  14.259  0.00  0.00    +0.000 F 
ATOM     20  F   UNL     1       7.327   4.207  15.880  0.00  0.00    +0.000 F 
ENDBRANCH  14  17
ENDBRANCH   6  11
BRANCH   1  22
ATOM     21  N   UNL     1      -1.828  11.110  23.396  0.00  0.00    +0.000 N 
ATOM     22  C   UNL     1      -1.115  11.537  22.307  0.00  0.00    +0.000 C 
ATOM     23  O   UNL     1      -1.110  12.720  21.992  0.00  0.00    +0.000 OA
ATOM     24  H   UNL     1      -2.271  11.836  23.948  0.00  0.00    +0.000 HD
ATOM     25  H   UNL     1      -1.642  10.234  23.864  0.00  0.00    +0.000 HD
ENDBRANCH   1  22
BRANCH  10  26
ATOM     26  N   UNL     1      -0.958  11.518  19.409  0.00  0.00    +0.000 N 
ATOM     27  H   UNL     1      -0.976  12.414  19.920  0.00  0.00    +0.000 HD
BRANCH  26  28
ATOM     28  C   UNL     1      -2.218  11.390  18.767  0.00  0.00    +0.000 A 
ATOM     29  C   UNL     1      -2.421  10.621  17.614  0.00  0.00    +0.000 A 
ATOM     30  C   UNL     1      -3.678  10.560  17.008  0.00  0.00    +0.000 A 
ATOM     31  C   UNL     1      -4.759  11.231  17.575  0.00  0.00    +0.000 A 
ATOM     32  C   UNL     1      -4.582  11.966  18.746  0.00  0.00    +0.000 A 
ATOM     33  C   UNL     1      -3.319  12.041  19.337  0.00  0.00    +0.000 A 
ENDBRANCH  26  28
ENDBRANCH  10  26
TORSDOF 5
ENDMDL
MODEL 7
REMARK VINA RESULT:      -9.1      5.941      9.687
REMARK  Name = 
REMARK  5 active torsions:
REMARK  status: ('A' for Active; 'I' for Inactive)
REMARK    1  A    between atoms: C_2  and  C_4
REMARK    2  A    between atoms: C_9  and  C_10
REMARK    3  A    between atoms: C_13  and  C_14
REMARK    4  A    between atoms: C_23  and  N_24
REMARK    5  A    between atoms: N_24  and  C_25
REMARK                            x       y       z     vdW  Elec       q    Type
REMARK                         _______ _______ _______ _____ _____    ______ ____
ROOT
ATOM      1  C   UNL     1      -0.446  10.870  21.826  0.00  0.00    +0.000 A 
ATOM      2  C   UNL     1       0.175   9.839  22.511  0.00  0.00    +0.000 A 
ATOM      3  N   UNL     1       0.908   8.868  21.924  0.00  0.00    +0.000 NA
ATOM      4  C   UNL     1       1.080   8.924  20.595  0.00  0.00    +0.000 A 
ATOM      5  C   UNL     1       1.884   7.953  20.002  0.00  0.00    +0.000 A 
ATOM      6  C   UNL     1       2.185   7.943  18.629  0.00  0.00    +0.000 A 
ATOM      7  C   UNL     1       1.645   8.966  17.850  0.00  0.00    +0.000 A 
ATOM      8  C   UNL     1       0.847   9.951  18.423  0.00  0.00    +0.000 A 
ATOM      9  C   UNL     1       0.504   9.934  19.792  0.00  0.00    +0.000 A 
ATOM     10  C   UNL     1      -0.356  10.888  20.418  0.00  0.00    +0.000 A 
ENDROOT
BRANCH   6  11
ATOM     11  C   UNL     1       3.111   6.967  18.027  0.00  0.00    +0.000 A 
ATOM     12  C   UNL     1       2.890   5.582  18.142  0.00  0.00    +0.000 A 
ATOM     13  C   UNL     1       3.676   4.661  17.444  0.00  0.00    +0.000 A 
ATOM     14  C   UNL     1       4.721   5.097  16.622  0.00  0.00    +0.000 A 
ATOM     15  C   UNL     1       4.984   6.472  16.544  0.00  0.00    +0.000 A 
ATOM     16  C   UNL     1       4.190   7.390  17.236  0.00  0.00    +0.000 A 
BRANCH  14  17
ATOM     17  C   UNL     1       5.540   4.130  15.809  0.00  0.00    +0.000 C 
ATOM     18  F   UNL     1       5.370   2.829  16.173  0.00  0.00    +0.000 F 
ATOM     19  F   UNL     1       5.239   4.185  14.481  0.00  0.00    +0.000 F 
ATOM     20  F   UNL     1       6.877   4.372  15.899  0.00  0.00    +0.000 F 
ENDBRANCH  14  17
ENDBRANCH   6  11
BRANCH   1  22
ATOM     21  N   UNL     1      -2.285  11.493  23.312  0.00  0.00    +0.000 N 
ATOM     22  C   UNL     1      -1.205  11.899  22.575  0.00  0.00    +0.000 C 
ATOM     23  O   UNL     1      -0.854  13.073  22.581  0.00  0.00    +0.000 OA
ATOM     24  H   UNL     1      -2.707  12.198  23.905  0.00  0.00    +0.000 HD
ATOM     25  H   UNL     1      -2.438  10.529  23.574  0.00  0.00    +0.000 HD
ENDBRANCH   1  22
BRANCH  10  26
ATOM     26  N   UNL     1      -1.040  11.908  19.677  0.00  0.00    +0.000 N 
ATOM     27  H   UNL     1      -0.970  12.809  20.174  0.00  0.00    +0.000 HD
BRANCH  26  28
ATOM     28  C   UNL     1      -2.328  11.868  19.081  0.00  0.00    +0.000 A 
ATOM     29  C   UNL     1      -3.489  12.318  19.722  0.00  0.00    +0.000 A 
ATOM     30  C   UNL     1      -4.733  12.222  19.096  0.00  0.00    +0.000 A 
ATOM     31  C   UNL     1      -4.826  11.717  17.801  0.00  0.00    +0.000 A 
ATOM     32  C   UNL     1      -3.674  11.304  17.134  0.00  0.00    +0.000 A 
ATOM     33  C   UNL     1      -2.434  11.382  17.771  0.00  0.00    +0.000 A 
ENDBRANCH  26  28
ENDBRANCH  10  26
TORSDOF 5
ENDMDL
MODEL 8
REMARK VINA RESULT:      -9.0      5.869      9.691
REMARK  Name = 
REMARK  5 active torsions:
REMARK  status: ('A' for Active; 'I' for Inactive)
REMARK    1  A    between atoms: C_2  and  C_4
REMARK    2  A    between atoms: C_9  and  C_10
REMARK    3  A    between atoms: C_13  and  C_14
REMARK    4  A    between atoms: C_23  and  N_24
REMARK    5  A    between atoms: N_24  and  C_25
REMARK                            x       y       z     vdW  Elec       q    Type
REMARK                         _______ _______ _______ _____ _____    ______ ____
ROOT
ATOM      1  C   UNL     1      -0.312  10.727  21.999  0.00  0.00    +0.000 A 
ATOM      2  C   UNL     1       0.315   9.646  22.596  0.00  0.00    +0.000 A 
ATOM      3  N   UNL     1       1.018   8.707  21.925  0.00  0.00    +0.000 NA
ATOM      4  C   UNL     1       1.151   8.849  20.598  0.00  0.00    +0.000 A 
ATOM      5  C   UNL     1       1.923   7.910  19.918  0.00  0.00    +0.000 A 
ATOM      6  C   UNL     1       2.184   7.987  18.540  0.00  0.00    +0.000 A 
ATOM      7  C   UNL     1       1.635   9.065  17.845  0.00  0.00    +0.000 A 
ATOM      8  C   UNL     1       0.868  10.019  18.506  0.00  0.00    +0.000 A 
ATOM      9  C   UNL     1       0.564   9.916  19.881  0.00  0.00    +0.000 A 
ATOM     10  C   UNL     1      -0.263  10.837  20.594  0.00  0.00    +0.000 A 
ENDROOT
BRANCH   6  11
ATOM     11  C   UNL     1       3.079   7.042  17.847  0.00  0.00    +0.000 A 
ATOM     12  C   UNL     1       4.170   7.494  17.083  0.00  0.00    +0.000 A 
ATOM     13  C   UNL     1       5.107   6.601  16.556  0.00  0.00    +0.000 A 
ATOM     14  C   UNL     1       4.971   5.223  16.763  0.00  0.00    +0.000 A 
ATOM     15  C   UNL     1       3.857   4.759  17.477  0.00  0.00    +0.000 A 
ATOM     16  C   UNL     1       2.928   5.656  18.010  0.00  0.00    +0.000 A 
BRANCH  14  17
ATOM     17  C   UNL     1       6.001   4.246  16.262  0.00  0.00    +0.000 C 
ATOM     18  F   UNL     1       7.093   4.141  17.069  0.00  0.00    +0.000 F 
ATOM     19  F   UNL     1       5.504   2.982  16.148  0.00  0.00    +0.000 F 
ATOM     20  F   UNL     1       6.477   4.573  15.030  0.00  0.00    +0.000 F 
ENDBRANCH  14  17
ENDBRANCH   6  11
BRANCH   1  22
ATOM     21  N   UNL     1      -2.245  11.346  23.363  0.00  0.00    +0.000 N 
ATOM     22  C   UNL     1      -1.035  11.713  22.837  0.00  0.00    +0.000 C 
ATOM     23  O   UNL     1      -0.549  12.807  23.099  0.00  0.00    +0.000 OA
ATOM     24  H   UNL     1      -2.655  11.995  24.025  0.00  0.00    +0.000 HD
ATOM     25  H   UNL     1      -2.547  10.384  23.423  0.00  0.00    +0.000 HD
ENDBRANCH   1  22
BRANCH  10  26
ATOM     26  N   UNL     1      -0.955  11.910  19.942  0.00  0.00    +0.000 N 
ATOM     27  H   UNL     1      -0.838  12.782  20.481  0.00  0.00    +0.000 HD
BRANCH  26  28
ATOM     28  C   UNL     1      -2.272  11.934  19.410  0.00  0.00    +0.000 A 
ATOM     29  C   UNL     1      -3.361  12.512  20.073  0.00  0.00    +0.000 A 
ATOM     30  C   UNL     1      -4.640  12.474  19.513  0.00  0.00    +0.000 A 
ATOM     31  C   UNL     1      -4.836  11.898  18.260  0.00  0.00    +0.000 A 
ATOM     32  C   UNL     1      -3.754  11.356  17.570  0.00  0.00    +0.000 A 
ATOM     33  C   UNL     1      -2.481  11.377  18.142  0.00  0.00    +0.000 A 
ENDBRANCH  26  28
ENDBRANCH  10  26
TORSDOF 5
ENDMDL
MODEL 9
REMARK VINA RESULT:      -8.9      5.936      9.675
REMARK  Name = 
REMARK  5 active torsions:
REMARK  status: ('A' for Active; 'I' for Inactive)
REMARK    1  A    between atoms: C_2  and  C_4
REMARK    2  A    between atoms: C_9  and  C_10
REMARK    3  A    between atoms: C_13  and  C_14
REMARK    4  A    between atoms: C_23  and  N_24
REMARK    5  A    between atoms: N_24  and  C_25
REMARK                            x       y       z     vdW  Elec       q    Type
REMARK                         _______ _______ _______ _____ _____    ______ ____
ROOT
ATOM      1  C   UNL     1      -0.484  10.847  21.908  0.00  0.00    +0.000 A 
ATOM      2  C   UNL     1       0.150   9.815  22.580  0.00  0.00    +0.000 A 
ATOM      3  N   UNL     1       0.886   8.854  21.981  0.00  0.00    +0.000 NA
ATOM      4  C   UNL     1       1.048   8.922  20.650  0.00  0.00    +0.000 A 
ATOM      5  C   UNL     1       1.855   7.962  20.044  0.00  0.00    +0.000 A 
ATOM      6  C   UNL     1       2.146   7.966  18.670  0.00  0.00    +0.000 A 
ATOM      7  C   UNL     1       1.593   8.991  17.902  0.00  0.00    +0.000 A 
ATOM      8  C   UNL     1       0.792   9.965  18.489  0.00  0.00    +0.000 A 
ATOM      9  C   UNL     1       0.458   9.934  19.860  0.00  0.00    +0.000 A 
ATOM     10  C   UNL     1      -0.404  10.877  20.500  0.00  0.00    +0.000 A 
ENDROOT
BRANCH   6  11
ATOM     11  C   UNL     1       3.075   7.001  18.053  0.00  0.00    +0.000 A 
ATOM     12  C   UNL     1       2.853   5.615  18.138  0.00  0.00    +0.000 A 
ATOM     13  C   UNL     1       3.643   4.708  17.426  0.00  0.00    +0.000 A 
ATOM     14  C   UNL     1       4.693   5.160  16.619  0.00  0.00    +0.000 A 
ATOM     15  C   UNL     1       4.956   6.536  16.570  0.00  0.00    +0.000 A 
ATOM     16  C   UNL     1       4.159   7.440  17.277  0.00  0.00    +0.000 A 
BRANCH  14  17
ATOM     17  C   UNL     1       5.516   4.209  15.791  0.00  0.00    +0.000 C 
ATOM     18  F   UNL     1       6.854   4.457  15.844  0.00  0.00    +0.000 F 
ATOM     19  F   UNL     1       5.364   2.913  16.186  0.00  0.00    +0.000 F 
ATOM     20  F   UNL     1       5.182   4.239  14.472  0.00  0.00    +0.000 F 
ENDBRANCH  14  17
ENDBRANCH   6  11
BRANCH   1  22
ATOM     21  N   UNL     1      -0.699  13.113  22.801  0.00  0.00    +0.000 N 
ATOM     22  C   UNL     1      -1.246  11.864  22.671  0.00  0.00    +0.000 C 
ATOM     23  O   UNL     1      -2.354  11.619  23.132  0.00  0.00    +0.000 OA
ATOM     24  H   UNL     1      -1.296  13.816  23.223  0.00  0.00    +0.000 HD
ATOM     25  H   UNL     1       0.049  13.447  22.210  0.00  0.00    +0.000 HD
ENDBRANCH   1  22
BRANCH  10  26
ATOM     26  N   UNL     1      -1.101  11.897  19.772  0.00  0.00    +0.000 N 
ATOM     27  H   UNL     1      -1.100  12.776  20.312  0.00  0.00    +0.000 HD
BRANCH  26  28
ATOM     28  C   UNL     1      -2.356  11.825  19.111  0.00  0.00    +0.000 A 
ATOM     29  C   UNL     1      -2.528  11.255  17.844  0.00  0.00    +0.000 A 
ATOM     30  C   UNL     1      -3.783  11.243  17.230  0.00  0.00    +0.000 A 
ATOM     31  C   UNL     1      -4.890  11.762  17.897  0.00  0.00    +0.000 A 
ATOM     32  C   UNL     1      -4.742  12.294  19.176  0.00  0.00    +0.000 A 
ATOM     33  C   UNL     1      -3.483  12.322  19.778  0.00  0.00    +0.000 A 
ENDBRANCH  26  28
ENDBRANCH  10  26
TORSDOF 5
ENDMDL
