MODEL 1
REMARK VINA RESULT:      -8.2      0.000      0.000
REMARK  Name = 
REMARK  4 active torsions:
REMARK  status: ('A' for Active; 'I' for Inactive)
REMARK    1  A    between atoms: C_2  and  C_3
REMARK    2  A    between atoms: C_2  and  O_19
REMARK    3  A    between atoms: C_3  and  C_4
REMARK    4  A    between atoms: O_19  and  C_20
REMARK                            x       y       z     vdW  Elec       q    Type
REMARK                         _______ _______ _______ _____ _____    ______ ____
ROOT
ATOM      1  C   UNL     1       5.535   4.849  16.101  0.00  0.00    +0.000 A 
ATOM      2  C   UNL     1       5.455   6.261  16.183  0.00  0.00    +0.000 A 
ATOM      3  N   UNL     1       4.589   6.678  17.110  0.00  0.00    +0.000 NA
ATOM      4  N   UNL     1       4.135   5.535  17.656  0.00  0.00    +0.000 N 
ATOM      5  C   UNL     1       4.654   4.403  17.068  0.00  0.00    +0.000 A 
ATOM      6  N   UNL     1       4.295   3.156  17.476  0.00  0.00    +0.000 NA
ATOM      7  N   UNL     1       3.457   2.996  18.435  0.00  0.00    +0.000 N 
ATOM      8  O   UNL     1       3.110   1.831  18.819  0.00  0.00    +0.000 OA
ATOM      9  C   UNL     1       2.865   4.164  19.115  0.00  0.00    +0.000 A 
ATOM     10  C   UNL     1       1.953   3.996  20.161  0.00  0.00    +0.000 A 
ATOM     11  C   UNL     1       1.406   5.122  20.784  0.00  0.00    +0.000 A 
ATOM     12  C   UNL     1       1.773   6.406  20.366  0.00  0.00    +0.000 A 
ATOM     13 CL   UNL     1       1.088   7.777  21.152  0.00  0.00    +0.000 Cl
ATOM     14  C   UNL     1       2.682   6.588  19.324  0.00  0.00    +0.000 A 
ATOM     15  C   UNL     1       3.219   5.456  18.707  0.00  0.00    +0.000 A 
ENDROOT
BRANCH   1  16
ATOM     16  C   UNL     1       6.403   4.025  15.200  0.00  0.00    +0.000 C 
BRANCH  16  18
ATOM     17  O   UNL     1       8.074   5.544  14.297  0.00  0.00    +0.000 OA
ATOM     18  C   UNL     1       7.070   4.866  14.129  0.00  0.00    +0.000 C 
BRANCH  18  19
ATOM     19  O   UNL     1       6.320   4.778  12.947  0.00  0.00    +0.000 OA
BRANCH  19  20
ATOM     20  C   UNL     1       6.268   3.568  12.221  0.00  0.00    +0.000 A 
ATOM     21  C   UNL     1       5.071   2.940  11.877  0.00  0.00    +0.000 A 
ATOM     22  C   UNL     1       5.101   1.730  11.181  0.00  0.00    +0.000 A 
ATOM     23  C   UNL     1       6.320   1.171  10.798  0.00  0.00    +0.000 A 
ATOM     24  C   UNL     1       7.514   1.830  11.097  0.00  0.00    +0.000 A 
ATOM     25  C   UNL     1       7.490   3.033  11.808  0.00  0.00    +0.000 A 
ENDBRANCH  19  20
ENDBRANCH  18  19
ENDBRANCH  16  18
ENDBRANCH   1  16
TORSDOF 4
ENDMDL
MODEL 2
REMARK VINA RESULT:      -8.1      4.208      5.905
REMARK  Name = 
REMARK  4 active torsions:
REMARK  status: ('A' for Active; 'I' for Inactive)
REMARK    1  A    between atoms: C_2  and  C_3
REMARK    2  A    between atoms: C_2  and  O_19
REMARK    3  A    between atoms: C_3  and  C_4
REMARK    4  A    between atoms: O_19  and  C_20
REMARK                            x       y       z     vdW  Elec       q    Type
REMARK                         _______ _______ _______ _____ _____    ______ ____
ROOT
ATOM      1  C   UNL     1       2.904   5.314  19.015  0.00  0.00    +0.000 A 
ATOM      2  C   UNL     1       2.464   4.882  20.290  0.00  0.00    +0.000 A 
ATOM      3  N   UNL     1       1.858   5.848  20.985  0.00  0.00    +0.000 NA
ATOM      4  N   UNL     1       1.872   6.898  20.145  0.00  0.00    +0.000 N 
ATOM      5  C   UNL     1       2.512   6.639  18.953  0.00  0.00    +0.000 A 
ATOM      6  N   UNL     1       2.640   7.589  17.987  0.00  0.00    +0.000 NA
ATOM      7  N   UNL     1       2.158   8.766  18.158  0.00  0.00    +0.000 N 
ATOM      8  O   UNL     1       2.280   9.664  17.262  0.00  0.00    +0.000 OA
ATOM      9  C   UNL     1       1.455   9.113  19.408  0.00  0.00    +0.000 A 
ATOM     10  C   UNL     1       0.926  10.394  19.599  0.00  0.00    +0.000 A 
ATOM     11  C   UNL     1       0.267  10.694  20.795  0.00  0.00    +0.000 A 
ATOM     12  C   UNL     1       0.135   9.720  21.790  0.00  0.00    +0.000 A 
ATOM     13 CL   UNL     1      -0.684  10.114  23.253  0.00  0.00    +0.000 Cl
ATOM     14  C   UNL     1       0.656   8.438  21.612  0.00  0.00    +0.000 A 
ATOM     15  C   UNL     1       1.315   8.150  20.415  0.00  0.00    +0.000 A 
ENDROOT
BRANCH   1  16
ATOM     16  C   UNL     1       3.600   4.513  17.959  0.00  0.00    +0.000 C 
BRANCH  16  18
ATOM     17  O   UNL     1       5.072   3.320  19.484  0.00  0.00    +0.000 OA
ATOM     18  C   UNL     1       4.922   3.955  18.448  0.00  0.00    +0.000 C 
BRANCH  18  19
ATOM     19  O   UNL     1       5.935   4.331  17.555  0.00  0.00    +0.000 OA
BRANCH  19  20
ATOM     20  C   UNL     1       6.631   5.548  17.733  0.00  0.00    +0.000 A 
ATOM     21  C   UNL     1       6.361   6.693  16.986  0.00  0.00    +0.000 A 
ATOM     22  C   UNL     1       7.110   7.851  17.202  0.00  0.00    +0.000 A 
ATOM     23  C   UNL     1       8.099   7.874  18.186  0.00  0.00    +0.000 A 
ATOM     24  C   UNL     1       8.330   6.741  18.968  0.00  0.00    +0.000 A 
ATOM     25  C   UNL     1       7.593   5.575  18.745  0.00  0.00    +0.000 A 
ENDBRANCH  19  20
ENDBRANCH  18  19
ENDBRANCH  16  18
ENDBRANCH   1  16
TORSDOF 4
ENDMDL
MODEL 3
REMARK VINA RESULT:      -8.1      3.372      7.754
REMARK  Name = 
REMARK  4 active torsions:
REMARK  status: ('A' for Active; 'I' for Inactive)
REMARK    1  A    between atoms: C_2  and  C_3
REMARK    2  A    between atoms: C_2  and  O_19
REMARK    3  A    between atoms: C_3  and  C_4
REMARK    4  A    between atoms: O_19  and  C_20
REMARK                            x       y       z     vdW  Elec       q    Type
REMARK                         _______ _______ _______ _____ _____    ______ ____
ROOT
ATOM      1  C   UNL     1       3.193   3.525  18.899  0.00  0.00    +0.000 A 
ATOM      2  C   UNL     1       2.553   2.839  17.837  0.00  0.00    +0.000 A 
ATOM      3  N   UNL     1       3.202   2.960  16.676  0.00  0.00    +0.000 NA
ATOM      4  N   UNL     1       4.284   3.693  16.993  0.00  0.00    +0.000 N 
ATOM      5  C   UNL     1       4.316   4.081  18.314  0.00  0.00    +0.000 A 
ATOM      6  N   UNL     1       5.326   4.845  18.812  0.00  0.00    +0.000 NA
ATOM      7  N   UNL     1       6.293   5.225  18.059  0.00  0.00    +0.000 N 
ATOM      8  O   UNL     1       7.239   5.946  18.515  0.00  0.00    +0.000 OA
ATOM      9  C   UNL     1       6.327   4.841  16.634  0.00  0.00    +0.000 A 
ATOM     10  C   UNL     1       7.379   5.252  15.809  0.00  0.00    +0.000 A 
ATOM     11  C   UNL     1       7.383   4.875  14.462  0.00  0.00    +0.000 A 
ATOM     12  C   UNL     1       6.345   4.091  13.947  0.00  0.00    +0.000 A 
ATOM     13 CL   UNL     1       6.374   3.638  12.286  0.00  0.00    +0.000 Cl
ATOM     14  C   UNL     1       5.291   3.674  14.760  0.00  0.00    +0.000 A 
ATOM     15  C   UNL     1       5.295   4.059  16.101  0.00  0.00    +0.000 A 
ENDROOT
BRANCH   1  16
ATOM     16  C   UNL     1       2.774   3.599  20.334  0.00  0.00    +0.000 C 
BRANCH  16  18
ATOM     17  O   UNL     1       0.566   4.588  20.586  0.00  0.00    +0.000 OA
ATOM     18  C   UNL     1       1.782   4.720  20.579  0.00  0.00    +0.000 C 
BRANCH  18  19
ATOM     19  O   UNL     1       2.483   5.923  20.739  0.00  0.00    +0.000 OA
BRANCH  19  20
ATOM     20  C   UNL     1       2.142   7.058  19.969  0.00  0.00    +0.000 A 
ATOM     21  C   UNL     1       2.447   7.177  18.614  0.00  0.00    +0.000 A 
ATOM     22  C   UNL     1       2.101   8.341  17.927  0.00  0.00    +0.000 A 
ATOM     23  C   UNL     1       1.420   9.366  18.584  0.00  0.00    +0.000 A 
ATOM     24  C   UNL     1       1.069   9.222  19.927  0.00  0.00    +0.000 A 
ATOM     25  C   UNL     1       1.427   8.064  20.623  0.00  0.00    +0.000 A 
ENDBRANCH  19  20
ENDBRANCH  18  19
ENDBRANCH  16  18
ENDBRANCH   1  16
TORSDOF 4
ENDMDL
MODEL 4
REMARK VINA RESULT:      -7.8      5.306      8.597
REMARK  Name = 
REMARK  4 active torsions:
REMARK  status: ('A' for Active; 'I' for Inactive)
REMARK    1  A    between atoms: C_2  and  C_3
REMARK    2  A    between atoms: C_2  and  O_19
REMARK    3  A    between atoms: C_3  and  C_4
REMARK    4  A    between atoms: O_19  and  C_20
REMARK                            x       y       z     vdW  Elec       q    Type
REMARK                         _______ _______ _______ _____ _____    ______ ____
ROOT
ATOM      1  C   UNL     1       1.553   8.888  19.171  0.00  0.00    +0.000 A 
ATOM      2  C   UNL     1       2.107   9.251  17.918  0.00  0.00    +0.000 A 
ATOM      3  N   UNL     1       2.874   8.291  17.392  0.00  0.00    +0.000 NA
ATOM      4  N   UNL     1       2.786   7.291  18.288  0.00  0.00    +0.000 N 
ATOM      5  C   UNL     1       2.023   7.607  19.390  0.00  0.00    +0.000 A 
ATOM      6  N   UNL     1       1.838   6.724  20.409  0.00  0.00    +0.000 NA
ATOM      7  N   UNL     1       2.370   5.557  20.370  0.00  0.00    +0.000 N 
ATOM      8  O   UNL     1       2.207   4.727  21.324  0.00  0.00    +0.000 OA
ATOM      9  C   UNL     1       3.195   5.149  19.218  0.00  0.00    +0.000 A 
ATOM     10  C   UNL     1       3.776   3.877  19.169  0.00  0.00    +0.000 A 
ATOM     11  C   UNL     1       4.555   3.520  18.064  0.00  0.00    +0.000 A 
ATOM     12  C   UNL     1       4.748   4.425  17.015  0.00  0.00    +0.000 A 
ATOM     13 CL   UNL     1       5.710   3.959  15.665  0.00  0.00    +0.000 Cl
ATOM     14  C   UNL     1       4.174   5.695  17.051  0.00  0.00    +0.000 A 
ATOM     15  C   UNL     1       3.401   6.043  18.160  0.00  0.00    +0.000 A 
ENDROOT
BRANCH   1  16
ATOM     16  C   UNL     1       0.638   9.692  20.041  0.00  0.00    +0.000 C 
BRANCH  16  18
ATOM     17  O   UNL     1       0.347  11.718  18.727  0.00  0.00    +0.000 OA
ATOM     18  C   UNL     1      -0.141  10.724  19.248  0.00  0.00    +0.000 C 
BRANCH  18  19
ATOM     19  O   UNL     1      -1.500  10.381  19.262  0.00  0.00    +0.000 OA
BRANCH  19  20
ATOM     20  C   UNL     1      -2.291  10.543  18.103  0.00  0.00    +0.000 A 
ATOM     21  C   UNL     1      -3.426  11.351  18.065  0.00  0.00    +0.000 A 
ATOM     22  C   UNL     1      -4.172  11.440  16.889  0.00  0.00    +0.000 A 
ATOM     23  C   UNL     1      -3.764  10.753  15.746  0.00  0.00    +0.000 A 
ATOM     24  C   UNL     1      -2.597   9.987  15.772  0.00  0.00    +0.000 A 
ATOM     25  C   UNL     1      -1.855   9.883  16.952  0.00  0.00    +0.000 A 
ENDBRANCH  19  20
ENDBRANCH  18  19
ENDBRANCH  16  18
ENDBRANCH   1  16
TORSDOF 4
ENDMDL
MODEL 5
REMARK VINA RESULT:      -7.8      3.838      5.726
REMARK  Name = 
REMARK  4 active torsions:
REMARK  status: ('A' for Active; 'I' for Inactive)
REMARK    1  A    between atoms: C_2  and  C_3
REMARK    2  A    between atoms: C_2  and  O_19
REMARK    3  A    between atoms: C_3  and  C_4
REMARK    4  A    between atoms: O_19  and  C_20
REMARK                            x       y       z     vdW  Elec       q    Type
REMARK                         _______ _______ _______ _____ _____    ______ ____
ROOT
ATOM      1  C   UNL     1       3.017   5.538  18.364  0.00  0.00    +0.000 A 
ATOM      2  C   UNL     1       2.768   4.925  19.616  0.00  0.00    +0.000 A 
ATOM      3  N   UNL     1       2.227   5.762  20.506  0.00  0.00    +0.000 NA
ATOM      4  N   UNL     1       2.090   6.909  19.818  0.00  0.00    +0.000 N 
ATOM      5  C   UNL     1       2.573   6.838  18.530  0.00  0.00    +0.000 A 
ATOM      6  N   UNL     1       2.536   7.908  17.691  0.00  0.00    +0.000 NA
ATOM      7  N   UNL     1       2.040   9.027  18.077  0.00  0.00    +0.000 N 
ATOM      8  O   UNL     1       2.008  10.037  17.300  0.00  0.00    +0.000 OA
ATOM      9  C   UNL     1       1.499   9.174  19.442  0.00  0.00    +0.000 A 
ATOM     10  C   UNL     1       0.956  10.391  19.868  0.00  0.00    +0.000 A 
ATOM     11  C   UNL     1       0.454  10.501  21.168  0.00  0.00    +0.000 A 
ATOM     12  C   UNL     1       0.491   9.403  22.034  0.00  0.00    +0.000 A 
ATOM     13 CL   UNL     1      -0.137   9.564  23.629  0.00  0.00    +0.000 Cl
ATOM     14  C   UNL     1       1.029   8.184  21.621  0.00  0.00    +0.000 A 
ATOM     15  C   UNL     1       1.531   8.086  20.322  0.00  0.00    +0.000 A 
ENDROOT
BRANCH   1  16
ATOM     16  C   UNL     1       3.592   4.916  17.131  0.00  0.00    +0.000 C 
BRANCH  16  18
ATOM     17  O   UNL     1       4.200   2.771  18.103  0.00  0.00    +0.000 OA
ATOM     18  C   UNL     1       4.518   3.760  17.456  0.00  0.00    +0.000 C 
BRANCH  18  19
ATOM     19  O   UNL     1       5.793   4.038  16.944  0.00  0.00    +0.000 OA
BRANCH  19  20
ATOM     20  C   UNL     1       6.585   5.061  17.513  0.00  0.00    +0.000 A 
ATOM     21  C   UNL     1       7.221   4.933  18.746  0.00  0.00    +0.000 A 
ATOM     22  C   UNL     1       7.965   5.999  19.255  0.00  0.00    +0.000 A 
ATOM     23  C   UNL     1       8.102   7.174  18.516  0.00  0.00    +0.000 A 
ATOM     24  C   UNL     1       7.507   7.279  17.257  0.00  0.00    +0.000 A 
ATOM     25  C   UNL     1       6.749   6.220  16.751  0.00  0.00    +0.000 A 
ENDBRANCH  19  20
ENDBRANCH  18  19
ENDBRANCH  16  18
ENDBRANCH   1  16
TORSDOF 4
ENDMDL
MODEL 6
REMARK VINA RESULT:      -7.7      5.325      8.719
REMARK  Name = 
REMARK  4 active torsions:
REMARK  status: ('A' for Active; 'I' for Inactive)
REMARK    1  A    between atoms: C_2  and  C_3
REMARK    2  A    between atoms: C_2  and  O_19
REMARK    3  A    between atoms: C_3  and  C_4
REMARK    4  A    between atoms: O_19  and  C_20
REMARK                            x       y       z     vdW  Elec       q    Type
REMARK                         _______ _______ _______ _____ _____    ______ ____
ROOT
ATOM      1  C   UNL     1       1.444   8.939  19.214  0.00  0.00    +0.000 A 
ATOM      2  C   UNL     1       1.972   9.366  17.971  0.00  0.00    +0.000 A 
ATOM      3  N   UNL     1       2.791   8.466  17.418  0.00  0.00    +0.000 NA
ATOM      4  N   UNL     1       2.764   7.439  18.286  0.00  0.00    +0.000 N 
ATOM      5  C   UNL     1       1.988   7.681  19.398  0.00  0.00    +0.000 A 
ATOM      6  N   UNL     1       1.858   6.762  20.393  0.00  0.00    +0.000 NA
ATOM      7  N   UNL     1       2.456   5.629  20.322  0.00  0.00    +0.000 N 
ATOM      8  O   UNL     1       2.345   4.766  21.253  0.00  0.00    +0.000 OA
ATOM      9  C   UNL     1       3.298   5.300  19.157  0.00  0.00    +0.000 A 
ATOM     10  C   UNL     1       3.951   4.066  19.072  0.00  0.00    +0.000 A 
ATOM     11  C   UNL     1       4.746   3.783  17.957  0.00  0.00    +0.000 A 
ATOM     12  C   UNL     1       4.883   4.726  16.932  0.00  0.00    +0.000 A 
ATOM     13 CL   UNL     1       5.864   4.352  15.567  0.00  0.00    +0.000 Cl
ATOM     14  C   UNL     1       4.236   5.960  17.003  0.00  0.00    +0.000 A 
ATOM     15  C   UNL     1       3.449   6.233  18.123  0.00  0.00    +0.000 A 
ENDROOT
BRANCH   1  16
ATOM     16  C   UNL     1       0.488   9.664  20.108  0.00  0.00    +0.000 C 
BRANCH  16  18
ATOM     17  O   UNL     1       0.696  11.850  19.060  0.00  0.00    +0.000 OA
ATOM     18  C   UNL     1      -0.018  10.948  19.477  0.00  0.00    +0.000 C 
BRANCH  18  19
ATOM     19  O   UNL     1      -1.419  10.949  19.505  0.00  0.00    +0.000 OA
BRANCH  19  20
ATOM     20  C   UNL     1      -2.159  10.829  18.308  0.00  0.00    +0.000 A 
ATOM     21  C   UNL     1      -1.758  10.021  17.245  0.00  0.00    +0.000 A 
ATOM     22  C   UNL     1      -2.529   9.976  16.082  0.00  0.00    +0.000 A 
ATOM     23  C   UNL     1      -3.715  10.705  15.998  0.00  0.00    +0.000 A 
ATOM     24  C   UNL     1      -4.140  11.471  17.085  0.00  0.00    +0.000 A 
ATOM     25  C   UNL     1      -3.364  11.532  18.245  0.00  0.00    +0.000 A 
ENDBRANCH  19  20
ENDBRANCH  18  19
ENDBRANCH  16  18
ENDBRANCH   1  16
TORSDOF 4
ENDMDL
MODEL 7
REMARK VINA RESULT:      -7.7      4.856      6.897
REMARK  Name = 
REMARK  4 active torsions:
REMARK  status: ('A' for Active; 'I' for Inactive)
REMARK    1  A    between atoms: C_2  and  C_3
REMARK    2  A    between atoms: C_2  and  O_19
REMARK    3  A    between atoms: C_3  and  C_4
REMARK    4  A    between atoms: O_19  and  C_20
REMARK                            x       y       z     vdW  Elec       q    Type
REMARK                         _______ _______ _______ _____ _____    ______ ____
ROOT
ATOM      1  C   UNL     1       2.255   7.426  19.313  0.00  0.00    +0.000 A 
ATOM      2  C   UNL     1       2.370   8.065  18.053  0.00  0.00    +0.000 A 
ATOM      3  N   UNL     1       1.830   9.287  18.039  0.00  0.00    +0.000 NA
ATOM      4  N   UNL     1       1.397   9.455  19.301  0.00  0.00    +0.000 N 
ATOM      5  C   UNL     1       1.605   8.356  20.104  0.00  0.00    +0.000 A 
ATOM      6  N   UNL     1       1.215   8.337  21.408  0.00  0.00    +0.000 NA
ATOM      7  N   UNL     1       0.641   9.356  21.935  0.00  0.00    +0.000 N 
ATOM      8  O   UNL     1       0.265   9.344  23.153  0.00  0.00    +0.000 OA
ATOM      9  C   UNL     1       0.391  10.571  21.136  0.00  0.00    +0.000 A 
ATOM     10  C   UNL     1      -0.234  11.685  21.705  0.00  0.00    +0.000 A 
ATOM     11  C   UNL     1      -0.460  12.821  20.922  0.00  0.00    +0.000 A 
ATOM     12  C   UNL     1      -0.061  12.844  19.581  0.00  0.00    +0.000 A 
ATOM     13 CL   UNL     1      -0.348  14.256  18.639  0.00  0.00    +0.000 Cl
ATOM     14  C   UNL     1       0.564  11.739  19.001  0.00  0.00    +0.000 A 
ATOM     15  C   UNL     1       0.782  10.609  19.791  0.00  0.00    +0.000 A 
ENDROOT
BRANCH   1  16
ATOM     16  C   UNL     1       2.753   6.072  19.709  0.00  0.00    +0.000 C 
BRANCH  16  18
ATOM     17  O   UNL     1       1.948   4.914  17.727  0.00  0.00    +0.000 OA
ATOM     18  C   UNL     1       2.852   5.132  18.523  0.00  0.00    +0.000 C 
BRANCH  18  19
ATOM     19  O   UNL     1       4.115   4.524  18.525  0.00  0.00    +0.000 OA
BRANCH  19  20
ATOM     20  C   UNL     1       5.281   5.295  18.321  0.00  0.00    +0.000 A 
ATOM     21  C   UNL     1       6.405   5.203  19.140  0.00  0.00    +0.000 A 
ATOM     22  C   UNL     1       7.510   6.018  18.890  0.00  0.00    +0.000 A 
ATOM     23  C   UNL     1       7.506   6.892  17.803  0.00  0.00    +0.000 A 
ATOM     24  C   UNL     1       6.399   6.942  16.953  0.00  0.00    +0.000 A 
ATOM     25  C   UNL     1       5.284   6.140  17.209  0.00  0.00    +0.000 A 
ENDBRANCH  19  20
ENDBRANCH  18  19
ENDBRANCH  16  18
ENDBRANCH   1  16
TORSDOF 4
ENDMDL
MODEL 8
REMARK VINA RESULT:      -7.7      4.111      6.185
REMARK  Name = 
REMARK  4 active torsions:
REMARK  status: ('A' for Active; 'I' for Inactive)
REMARK    1  A    between atoms: C_2  and  C_3
REMARK    2  A    between atoms: C_2  and  O_19
REMARK    3  A    between atoms: C_3  and  C_4
REMARK    4  A    between atoms: O_19  and  C_20
REMARK                            x       y       z     vdW  Elec       q    Type
REMARK                         _______ _______ _______ _____ _____    ______ ____
ROOT
ATOM      1  C   UNL     1       2.514   7.097  19.228  0.00  0.00    +0.000 A 
ATOM      2  C   UNL     1       2.716   7.736  17.980  0.00  0.00    +0.000 A 
ATOM      3  N   UNL     1       2.106   8.922  17.899  0.00  0.00    +0.000 NA
ATOM      4  N   UNL     1       1.538   9.068  19.109  0.00  0.00    +0.000 N 
ATOM      5  C   UNL     1       1.732   7.987  19.941  0.00  0.00    +0.000 A 
ATOM      6  N   UNL     1       1.214   7.949  21.198  0.00  0.00    +0.000 NA
ATOM      7  N   UNL     1       0.526   8.933  21.654  0.00  0.00    +0.000 N 
ATOM      8  O   UNL     1       0.032   8.902  22.828  0.00  0.00    +0.000 OA
ATOM      9  C   UNL     1       0.284  10.126  20.821  0.00  0.00    +0.000 A 
ATOM     10  C   UNL     1      -0.463  11.201  21.313  0.00  0.00    +0.000 A 
ATOM     11  C   UNL     1      -0.679  12.317  20.499  0.00  0.00    +0.000 A 
ATOM     12  C   UNL     1      -0.149  12.359  19.205  0.00  0.00    +0.000 A 
ATOM     13 CL   UNL     1      -0.426  13.747  18.224  0.00  0.00    +0.000 Cl
ATOM     14  C   UNL     1       0.599  11.294  18.703  0.00  0.00    +0.000 A 
ATOM     15  C   UNL     1       0.805  10.183  19.523  0.00  0.00    +0.000 A 
ENDROOT
BRANCH   1  16
ATOM     16  C   UNL     1       3.053   5.779  19.687  0.00  0.00    +0.000 C 
BRANCH  16  18
ATOM     17  O   UNL     1       1.695   4.502  18.125  0.00  0.00    +0.000 OA
ATOM     18  C   UNL     1       2.766   4.669  18.694  0.00  0.00    +0.000 C 
BRANCH  18  19
ATOM     19  O   UNL     1       3.898   3.850  18.583  0.00  0.00    +0.000 OA
BRANCH  19  20
ATOM     20  C   UNL     1       4.909   4.151  17.643  0.00  0.00    +0.000 A 
ATOM     21  C   UNL     1       4.692   4.143  16.266  0.00  0.00    +0.000 A 
ATOM     22  C   UNL     1       5.750   4.425  15.399  0.00  0.00    +0.000 A 
ATOM     23  C   UNL     1       7.007   4.748  15.908  0.00  0.00    +0.000 A 
ATOM     24  C   UNL     1       7.206   4.806  17.288  0.00  0.00    +0.000 A 
ATOM     25  C   UNL     1       6.156   4.510  18.160  0.00  0.00    +0.000 A 
ENDBRANCH  19  20
ENDBRANCH  18  19
ENDBRANCH  16  18
ENDBRANCH   1  16
TORSDOF 4
ENDMDL
MODEL 9
REMARK VINA RESULT:      -7.6      3.661      7.465
REMARK  Name = 
REMARK  4 active torsions:
REMARK  status: ('A' for Active; 'I' for Inactive)
REMARK    1  A    between atoms: C_2  and  C_3
REMARK    2  A    between atoms: C_2  and  O_19
REMARK    3  A    between atoms: C_3  and  C_4
REMARK    4  A    between atoms: O_19  and  C_20
REMARK                            x       y       z     vdW  Elec       q    Type
REMARK                         _______ _______ _______ _____ _____    ______ ____
ROOT
ATOM      1  C   UNL     1       3.143   2.468  19.156  0.00  0.00    +0.000 A 
ATOM      2  C   UNL     1       2.665   1.994  17.910  0.00  0.00    +0.000 A 
ATOM      3  N   UNL     1       3.379   2.445  16.875  0.00  0.00    +0.000 NA
ATOM      4  N   UNL     1       4.345   3.180  17.454  0.00  0.00    +0.000 N 
ATOM      5  C   UNL     1       4.235   3.249  18.825  0.00  0.00    +0.000 A 
ATOM      6  N   UNL     1       5.113   3.964  19.579  0.00  0.00    +0.000 NA
ATOM      7  N   UNL     1       6.083   4.599  19.029  0.00  0.00    +0.000 N 
ATOM      8  O   UNL     1       6.906   5.278  19.727  0.00  0.00    +0.000 OA
ATOM      9  C   UNL     1       6.265   4.566  17.566  0.00  0.00    +0.000 A 
ATOM     10  C   UNL     1       7.321   5.256  16.961  0.00  0.00    +0.000 A 
ATOM     11  C   UNL     1       7.467   5.208  15.571  0.00  0.00    +0.000 A 
ATOM     12  C   UNL     1       6.566   4.474  14.793  0.00  0.00    +0.000 A 
ATOM     13 CL   UNL     1       6.768   4.429  13.083  0.00  0.00    +0.000 Cl
ATOM     14  C   UNL     1       5.508   3.781  15.383  0.00  0.00    +0.000 A 
ATOM     15  C   UNL     1       5.371   3.839  16.771  0.00  0.00    +0.000 A 
ENDROOT
BRANCH   1  16
ATOM     16  C   UNL     1       2.613   2.164  20.523  0.00  0.00    +0.000 C 
BRANCH  16  18
ATOM     17  O   UNL     1       2.305   3.713  22.372  0.00  0.00    +0.000 OA
ATOM     18  C   UNL     1       2.072   3.401  21.212  0.00  0.00    +0.000 C 
BRANCH  18  19
ATOM     19  O   UNL     1       1.229   4.086  20.325  0.00  0.00    +0.000 OA
BRANCH  19  20
ATOM     20  C   UNL     1       1.583   5.367  19.846  0.00  0.00    +0.000 A 
ATOM     21  C   UNL     1       1.982   5.602  18.530  0.00  0.00    +0.000 A 
ATOM     22  C   UNL     1       2.342   6.892  18.138  0.00  0.00    +0.000 A 
ATOM     23  C   UNL     1       2.269   7.947  19.046  0.00  0.00    +0.000 A 
ATOM     24  C   UNL     1       1.818   7.717  20.347  0.00  0.00    +0.000 A 
ATOM     25  C   UNL     1       1.471   6.425  20.749  0.00  0.00    +0.000 A 
ENDBRANCH  19  20
ENDBRANCH  18  19
ENDBRANCH  16  18
ENDBRANCH   1  16
TORSDOF 4
ENDMDL
