MODEL 1
REMARK VINA RESULT:      -7.5      0.000      0.000
REMARK  Name = 
REMARK  1 active torsions:
REMARK  status: ('A' for Active; 'I' for Inactive)
REMARK    1  A    between atoms: C_8  and  C_9
REMARK                            x       y       z     vdW  Elec       q    Type
REMARK                         _______ _______ _______ _____ _____    ______ ____
ROOT
ATOM      1  C   UNL     1       4.894   5.500  17.750  0.00  0.00    +0.000 A 
ATOM      2  C   UNL     1       6.163   6.059  18.014  0.00  0.00    +0.000 A 
ATOM      3  C   UNL     1       7.172   6.021  17.047  0.00  0.00    +0.000 A 
ATOM      4  C   UNL     1       6.881   5.422  15.841  0.00  0.00    +0.000 A 
ATOM      5  C   UNL     1       5.652   4.860  15.588  0.00  0.00    +0.000 A 
ATOM      6  C   UNL     1       4.638   4.877  16.523  0.00  0.00    +0.000 A 
ATOM      7  O   UNL     1       5.571   4.333  14.337  0.00  0.00    +0.000 OA
ATOM      8  C   UNL     1       6.883   4.644  13.825  0.00  0.00    +0.000 C 
ATOM      9  O   UNL     1       7.726   5.323  14.780  0.00  0.00    +0.000 OA
ENDROOT
BRANCH   1  17
ATOM     10  O   UNL     1       1.773   6.062  20.548  0.00  0.00    +0.000 OA
ATOM     11  C   UNL     1       2.340   4.976  20.516  0.00  0.00    +0.000 C 
ATOM     12  C   UNL     1       1.890   3.900  21.424  0.00  0.00    +0.000 C 
ATOM     13  C   UNL     1       2.463   2.693  21.462  0.00  0.00    +0.000 C 
ATOM     14  C   UNL     1       3.615   2.279  20.615  0.00  0.00    +0.000 C 
ATOM     15  C   UNL     1       4.146   3.326  19.632  0.00  0.00    +0.000 C 
ATOM     16  C   UNL     1       3.469   4.671  19.589  0.00  0.00    +0.000 C 
ATOM     17  C   UNL     1       3.821   5.654  18.734  0.00  0.00    +0.000 C 
ENDBRANCH   1  17
TORSDOF 1
ENDMDL
MODEL 2
REMARK VINA RESULT:      -7.4      2.575      3.181
REMARK  Name = 
REMARK  1 active torsions:
REMARK  status: ('A' for Active; 'I' for Inactive)
REMARK    1  A    between atoms: C_8  and  C_9
REMARK                            x       y       z     vdW  Elec       q    Type
REMARK                         _______ _______ _______ _____ _____    ______ ____
ROOT
ATOM      1  C   UNL     1       5.474   5.136  17.825  0.00  0.00    +0.000 A 
ATOM      2  C   UNL     1       6.483   4.708  18.715  0.00  0.00    +0.000 A 
ATOM      3  C   UNL     1       7.570   5.535  19.010  0.00  0.00    +0.000 A 
ATOM      4  C   UNL     1       7.617   6.771  18.403  0.00  0.00    +0.000 A 
ATOM      5  C   UNL     1       6.646   7.184  17.521  0.00  0.00    +0.000 A 
ATOM      6  C   UNL     1       5.563   6.389  17.206  0.00  0.00    +0.000 A 
ATOM      7  O   UNL     1       6.876   8.437  17.047  0.00  0.00    +0.000 OA
ATOM      8  C   UNL     1       8.094   8.772  17.743  0.00  0.00    +0.000 C 
ATOM      9  O   UNL     1       8.578   7.713  18.596  0.00  0.00    +0.000 OA
ENDROOT
BRANCH   1  17
ATOM     10  O   UNL     1       2.104   2.676  17.135  0.00  0.00    +0.000 OA
ATOM     11  C   UNL     1       2.137   3.348  18.159  0.00  0.00    +0.000 C 
ATOM     12  C   UNL     1       1.021   3.247  19.125  0.00  0.00    +0.000 C 
ATOM     13  C   UNL     1       0.973   3.955  20.256  0.00  0.00    +0.000 C 
ATOM     14  C   UNL     1       2.013   4.930  20.688  0.00  0.00    +0.000 C 
ATOM     15  C   UNL     1       3.215   5.096  19.754  0.00  0.00    +0.000 C 
ATOM     16  C   UNL     1       3.261   4.269  18.496  0.00  0.00    +0.000 C 
ATOM     17  C   UNL     1       4.289   4.299  17.623  0.00  0.00    +0.000 C 
ENDBRANCH   1  17
TORSDOF 1
ENDMDL
MODEL 3
REMARK VINA RESULT:      -7.2      1.318      2.058
REMARK  Name = 
REMARK  1 active torsions:
REMARK  status: ('A' for Active; 'I' for Inactive)
REMARK    1  A    between atoms: C_8  and  C_9
REMARK                            x       y       z     vdW  Elec       q    Type
REMARK                         _______ _______ _______ _____ _____    ______ ____
ROOT
ATOM      1  C   UNL     1       5.322   4.007  17.672  0.00  0.00    +0.000 A 
ATOM      2  C   UNL     1       6.512   4.676  18.031  0.00  0.00    +0.000 A 
ATOM      3  C   UNL     1       7.396   5.133  17.049  0.00  0.00    +0.000 A 
ATOM      4  C   UNL     1       7.061   4.905  15.732  0.00  0.00    +0.000 A 
ATOM      5  C   UNL     1       5.911   4.237  15.380  0.00  0.00    +0.000 A 
ATOM      6  C   UNL     1       5.023   3.771  16.325  0.00  0.00    +0.000 A 
ATOM      7  O   UNL     1       5.767   4.130  14.032  0.00  0.00    +0.000 OA
ATOM      8  C   UNL     1       6.947   4.822  13.576  0.00  0.00    +0.000 C 
ATOM      9  O   UNL     1       7.782   5.305  14.650  0.00  0.00    +0.000 OA
ENDROOT
BRANCH   1  17
ATOM     10  O   UNL     1       2.589   2.836  20.680  0.00  0.00    +0.000 OA
ATOM     11  C   UNL     1       2.586   4.005  20.311  0.00  0.00    +0.000 C 
ATOM     12  C   UNL     1       1.660   4.962  20.953  0.00  0.00    +0.000 C 
ATOM     13  C   UNL     1       1.584   6.248  20.600  0.00  0.00    +0.000 C 
ATOM     14  C   UNL     1       2.403   6.880  19.529  0.00  0.00    +0.000 C 
ATOM     15  C   UNL     1       3.401   5.967  18.812  0.00  0.00    +0.000 C 
ATOM     16  C   UNL     1       3.487   4.526  19.243  0.00  0.00    +0.000 C 
ATOM     17  C   UNL     1       4.359   3.642  18.714  0.00  0.00    +0.000 C 
ENDBRANCH   1  17
TORSDOF 1
ENDMDL
MODEL 4
REMARK VINA RESULT:      -7.2      2.502      3.229
REMARK  Name = 
REMARK  1 active torsions:
REMARK  status: ('A' for Active; 'I' for Inactive)
REMARK    1  A    between atoms: C_8  and  C_9
REMARK                            x       y       z     vdW  Elec       q    Type
REMARK                         _______ _______ _______ _____ _____    ______ ____
ROOT
ATOM      1  C   UNL     1       5.080   4.875  17.876  0.00  0.00    +0.000 A 
ATOM      2  C   UNL     1       4.701   5.689  16.787  0.00  0.00    +0.000 A 
ATOM      3  C   UNL     1       5.445   6.824  16.453  0.00  0.00    +0.000 A 
ATOM      4  C   UNL     1       6.550   7.114  17.223  0.00  0.00    +0.000 A 
ATOM      5  C   UNL     1       6.911   6.334  18.297  0.00  0.00    +0.000 A 
ATOM      6  C   UNL     1       6.195   5.210  18.654  0.00  0.00    +0.000 A 
ATOM      7  O   UNL     1       8.035   6.788  18.913  0.00  0.00    +0.000 OA
ATOM      8  C   UNL     1       8.350   7.933  18.094  0.00  0.00    +0.000 C 
ATOM      9  O   UNL     1       7.404   8.154  17.027  0.00  0.00    +0.000 OA
ENDROOT
BRANCH   1  17
ATOM     10  O   UNL     1       3.064   1.218  18.548  0.00  0.00    +0.000 OA
ATOM     11  C   UNL     1       2.633   2.231  19.089  0.00  0.00    +0.000 C 
ATOM     12  C   UNL     1       1.456   2.129  19.977  0.00  0.00    +0.000 C 
ATOM     13  C   UNL     1       0.916   3.186  20.592  0.00  0.00    +0.000 C 
ATOM     14  C   UNL     1       1.414   4.583  20.463  0.00  0.00    +0.000 C 
ATOM     15  C   UNL     1       2.640   4.786  19.568  0.00  0.00    +0.000 C 
ATOM     16  C   UNL     1       3.247   3.578  18.905  0.00  0.00    +0.000 C 
ATOM     17  C   UNL     1       4.352   3.630  18.133  0.00  0.00    +0.000 C 
ENDBRANCH   1  17
TORSDOF 1
ENDMDL
MODEL 5
REMARK VINA RESULT:      -7.2      3.457      5.885
REMARK  Name = 
REMARK  1 active torsions:
REMARK  status: ('A' for Active; 'I' for Inactive)
REMARK    1  A    between atoms: C_8  and  C_9
REMARK                            x       y       z     vdW  Elec       q    Type
REMARK                         _______ _______ _______ _____ _____    ______ ____
ROOT
ATOM      1  C   UNL     1       2.678   7.087  19.096  0.00  0.00    +0.000 A 
ATOM      2  C   UNL     1       2.608   7.818  17.891  0.00  0.00    +0.000 A 
ATOM      3  C   UNL     1       1.860   8.996  17.815  0.00  0.00    +0.000 A 
ATOM      4  C   UNL     1       1.200   9.408  18.952  0.00  0.00    +0.000 A 
ATOM      5  C   UNL     1       1.250   8.688  20.122  0.00  0.00    +0.000 A 
ATOM      6  C   UNL     1       1.976   7.520  20.227  0.00  0.00    +0.000 A 
ATOM      7  O   UNL     1       0.540   9.275  21.122  0.00  0.00    +0.000 OA
ATOM      8  C   UNL     1       0.051  10.455  20.453  0.00  0.00    +0.000 C 
ATOM      9  O   UNL     1       0.454  10.540  19.070  0.00  0.00    +0.000 OA
ENDROOT
BRANCH   1  17
ATOM     10  O   UNL     1       5.320   3.796  19.376  0.00  0.00    +0.000 OA
ATOM     11  C   UNL     1       4.146   3.580  19.098  0.00  0.00    +0.000 C 
ATOM     12  C   UNL     1       3.694   2.186  18.908  0.00  0.00    +0.000 C 
ATOM     13  C   UNL     1       2.436   1.866  18.589  0.00  0.00    +0.000 C 
ATOM     14  C   UNL     1       1.341   2.854  18.379  0.00  0.00    +0.000 C 
ATOM     15  C   UNL     1       1.713   4.327  18.564  0.00  0.00    +0.000 C 
ATOM     16  C   UNL     1       3.130   4.663  18.949  0.00  0.00    +0.000 C 
ATOM     17  C   UNL     1       3.560   5.920  19.182  0.00  0.00    +0.000 C 
ENDBRANCH   1  17
TORSDOF 1
ENDMDL
MODEL 6
REMARK VINA RESULT:      -7.1      1.674      1.981
REMARK  Name = 
REMARK  1 active torsions:
REMARK  status: ('A' for Active; 'I' for Inactive)
REMARK    1  A    between atoms: C_8  and  C_9
REMARK                            x       y       z     vdW  Elec       q    Type
REMARK                         _______ _______ _______ _____ _____    ______ ____
ROOT
ATOM      1  C   UNL     1       5.575   4.090  18.328  0.00  0.00    +0.000 A 
ATOM      2  C   UNL     1       6.341   5.255  18.545  0.00  0.00    +0.000 A 
ATOM      3  C   UNL     1       7.023   5.866  17.489  0.00  0.00    +0.000 A 
ATOM      4  C   UNL     1       6.919   5.290  16.242  0.00  0.00    +0.000 A 
ATOM      5  C   UNL     1       6.188   4.144  16.031  0.00  0.00    +0.000 A 
ATOM      6  C   UNL     1       5.508   3.516  17.053  0.00  0.00    +0.000 A 
ATOM      7  O   UNL     1       6.207   3.750  14.729  0.00  0.00    +0.000 OA
ATOM      8  C   UNL     1       7.018   4.788  14.142  0.00  0.00    +0.000 C 
ATOM      9  O   UNL     1       7.486   5.762  15.099  0.00  0.00    +0.000 OA
ENDROOT
BRANCH   1  17
ATOM     10  O   UNL     1       3.380   2.479  21.564  0.00  0.00    +0.000 OA
ATOM     11  C   UNL     1       2.765   2.865  20.576  0.00  0.00    +0.000 C 
ATOM     12  C   UNL     1       1.289   2.788  20.568  0.00  0.00    +0.000 C 
ATOM     13  C   UNL     1       0.546   3.174  19.526  0.00  0.00    +0.000 C 
ATOM     14  C   UNL     1       1.095   3.719  18.254  0.00  0.00    +0.000 C 
ATOM     15  C   UNL     1       2.618   3.846  18.172  0.00  0.00    +0.000 C 
ATOM     16  C   UNL     1       3.434   3.429  19.367  0.00  0.00    +0.000 C 
ATOM     17  C   UNL     1       4.778   3.537  19.425  0.00  0.00    +0.000 C 
ENDBRANCH   1  17
TORSDOF 1
ENDMDL
MODEL 7
REMARK VINA RESULT:      -7.0      1.592      6.348
REMARK  Name = 
REMARK  1 active torsions:
REMARK  status: ('A' for Active; 'I' for Inactive)
REMARK    1  A    between atoms: C_8  and  C_9
REMARK                            x       y       z     vdW  Elec       q    Type
REMARK                         _______ _______ _______ _____ _____    ______ ____
ROOT
ATOM      1  C   UNL     1       4.107   4.816  18.408  0.00  0.00    +0.000 A 
ATOM      2  C   UNL     1       2.832   5.319  18.072  0.00  0.00    +0.000 A 
ATOM      3  C   UNL     1       1.694   4.894  18.763  0.00  0.00    +0.000 A 
ATOM      4  C   UNL     1       1.866   3.974  19.774  0.00  0.00    +0.000 A 
ATOM      5  C   UNL     1       3.105   3.468  20.092  0.00  0.00    +0.000 A 
ATOM      6  C   UNL     1       4.245   3.864  19.425  0.00  0.00    +0.000 A 
ATOM      7  O   UNL     1       3.054   2.585  21.124  0.00  0.00    +0.000 OA
ATOM      8  C   UNL     1       1.645   2.606  21.432  0.00  0.00    +0.000 C 
ATOM      9  O   UNL     1       0.881   3.475  20.569  0.00  0.00    +0.000 OA
ENDROOT
BRANCH   1  17
ATOM     10  O   UNL     1       7.562   6.460  16.604  0.00  0.00    +0.000 OA
ATOM     11  C   UNL     1       6.904   5.641  15.970  0.00  0.00    +0.000 C 
ATOM     12  C   UNL     1       7.361   5.237  14.624  0.00  0.00    +0.000 C 
ATOM     13  C   UNL     1       6.695   4.364  13.862  0.00  0.00    +0.000 C 
ATOM     14  C   UNL     1       5.423   3.697  14.257  0.00  0.00    +0.000 C 
ATOM     15  C   UNL     1       4.876   4.047  15.643  0.00  0.00    +0.000 C 
ATOM     16  C   UNL     1       5.656   5.014  16.495  0.00  0.00    +0.000 C 
ATOM     17  C   UNL     1       5.295   5.362  17.747  0.00  0.00    +0.000 C 
ENDBRANCH   1  17
TORSDOF 1
ENDMDL
MODEL 8
REMARK VINA RESULT:      -7.0      3.481      5.300
REMARK  Name = 
REMARK  1 active torsions:
REMARK  status: ('A' for Active; 'I' for Inactive)
REMARK    1  A    between atoms: C_8  and  C_9
REMARK                            x       y       z     vdW  Elec       q    Type
REMARK                         _______ _______ _______ _____ _____    ______ ____
ROOT
ATOM      1  C   UNL     1       2.689   5.721  18.192  0.00  0.00    +0.000 A 
ATOM      2  C   UNL     1       1.696   4.785  17.833  0.00  0.00    +0.000 A 
ATOM      3  C   UNL     1       1.858   3.428  18.123  0.00  0.00    +0.000 A 
ATOM      4  C   UNL     1       3.016   3.045  18.765  0.00  0.00    +0.000 A 
ATOM      5  C   UNL     1       3.994   3.952  19.099  0.00  0.00    +0.000 A 
ATOM      6  C   UNL     1       3.865   5.297  18.822  0.00  0.00    +0.000 A 
ATOM      7  O   UNL     1       5.046   3.368  19.734  0.00  0.00    +0.000 OA
ATOM      8  C   UNL     1       4.610   1.994  19.777  0.00  0.00    +0.000 C 
ATOM      9  O   UNL     1       3.328   1.778  19.151  0.00  0.00    +0.000 OA
ENDROOT
BRANCH   1  17
ATOM     10  O   UNL     1       2.018   9.833  17.466  0.00  0.00    +0.000 OA
ATOM     11  C   UNL     1       1.729   9.380  18.568  0.00  0.00    +0.000 C 
ATOM     12  C   UNL     1       1.129  10.274  19.581  0.00  0.00    +0.000 C 
ATOM     13  C   UNL     1       0.801   9.863  20.809  0.00  0.00    +0.000 C 
ATOM     14  C   UNL     1       0.997   8.476  21.317  0.00  0.00    +0.000 C 
ATOM     15  C   UNL     1       1.605   7.474  20.332  0.00  0.00    +0.000 C 
ATOM     16  C   UNL     1       1.945   7.953  18.945  0.00  0.00    +0.000 C 
ATOM     17  C   UNL     1       2.443   7.150  17.982  0.00  0.00    +0.000 C 
ENDBRANCH   1  17
TORSDOF 1
ENDMDL
MODEL 9
REMARK VINA RESULT:      -7.0      1.718      6.576
REMARK  Name = 
REMARK  1 active torsions:
REMARK  status: ('A' for Active; 'I' for Inactive)
REMARK    1  A    between atoms: C_8  and  C_9
REMARK                            x       y       z     vdW  Elec       q    Type
REMARK                         _______ _______ _______ _____ _____    ______ ____
ROOT
ATOM      1  C   UNL     1       5.414   5.259  16.616  0.00  0.00    +0.000 A 
ATOM      2  C   UNL     1       4.507   6.313  16.856  0.00  0.00    +0.000 A 
ATOM      3  C   UNL     1       3.564   6.222  17.883  0.00  0.00    +0.000 A 
ATOM      4  C   UNL     1       3.556   5.072  18.643  0.00  0.00    +0.000 A 
ATOM      5  C   UNL     1       4.426   4.035  18.400  0.00  0.00    +0.000 A 
ATOM      6  C   UNL     1       5.364   4.093  17.390  0.00  0.00    +0.000 A 
ATOM      7  O   UNL     1       4.257   3.003  19.269  0.00  0.00    +0.000 OA
ATOM      8  C   UNL     1       3.194   3.516  20.098  0.00  0.00    +0.000 C 
ATOM      9  O   UNL     1       2.734   4.825  19.698  0.00  0.00    +0.000 OA
ENDROOT
BRANCH   1  17
ATOM     10  O   UNL     1       8.514   5.817  13.793  0.00  0.00    +0.000 OA
ATOM     11  C   UNL     1       7.574   5.088  13.493  0.00  0.00    +0.000 C 
ATOM     12  C   UNL     1       7.579   4.409  12.180  0.00  0.00    +0.000 C 
ATOM     13  C   UNL     1       6.588   3.612  11.771  0.00  0.00    +0.000 C 
ATOM     14  C   UNL     1       5.365   3.309  12.564  0.00  0.00    +0.000 C 
ATOM     15  C   UNL     1       5.275   3.962  13.946  0.00  0.00    +0.000 C 
ATOM     16  C   UNL     1       6.415   4.837  14.397  0.00  0.00    +0.000 C 
ATOM     17  C   UNL     1       6.465   5.427  15.610  0.00  0.00    +0.000 C 
ENDBRANCH   1  17
TORSDOF 1
ENDMDL
