MODEL 1
REMARK VINA RESULT:      -8.2      0.000      0.000
REMARK  Name = 
REMARK  7 active torsions:
REMARK  status: ('A' for Active; 'I' for Inactive)
REMARK    1  A    between atoms: C_1  and  O_2
REMARK    2  A    between atoms: O_2  and  C_3
REMARK    3  A    between atoms: C_8  and  O_9
REMARK    4  A    between atoms: O_9  and  C_10
REMARK    5  A    between atoms: C_10  and  C_11
REMARK    6  A    between atoms: C_11  and  N_12
REMARK    7  A    between atoms: C_13  and  C_14
REMARK                            x       y       z     vdW  Elec       q    Type
REMARK                         _______ _______ _______ _____ _____    ______ ____
ROOT
ATOM      1  N   UNL     1       3.848   5.185  17.444  0.00  0.00    +0.000 N 
ATOM      2  C   UNL     1       3.977   5.691  18.712  0.00  0.00    +0.000 A 
ATOM      3  N   UNL     1       4.359   4.881  19.647  0.00  0.00    +0.000 NA
ATOM      4  C   UNL     1       3.391   3.851  19.795  0.00  0.00    +0.000 A 
ATOM      5  C   UNL     1       3.080   3.435  21.089  0.00  0.00    +0.000 A 
ATOM      6  C   UNL     1       1.755   3.145  21.397  0.00  0.00    +0.000 A 
ATOM      7  C   UNL     1       0.774   3.235  20.402  0.00  0.00    +0.000 A 
ATOM      8  C   UNL     1       1.140   3.424  19.061  0.00  0.00    +0.000 A 
ATOM      9  C   UNL     1       2.483   3.644  18.744  0.00  0.00    +0.000 A 
ATOM     10  C   UNL     1       2.943   4.122  17.388  0.00  0.00    +0.000 A 
ATOM     11  O   UNL     1       2.399   3.708  16.366  0.00  0.00    +0.000 OA
ENDROOT
BRANCH   2  12
ATOM     12  C   UNL     1       2.968   6.786  19.001  0.00  0.00    +0.000 A 
ATOM     13  C   UNL     1       2.328   6.841  20.257  0.00  0.00    +0.000 A 
ATOM     14  C   UNL     1       1.426   7.853  20.568  0.00  0.00    +0.000 A 
ATOM     15  C   UNL     1       1.166   8.818  19.615  0.00  0.00    +0.000 A 
ATOM     16 BR   UNL     1      -0.053  10.201  20.012  0.00  0.00    +0.000 Br
ATOM     17  C   UNL     1       1.792   8.767  18.354  0.00  0.00    +0.000 A 
ATOM     18  C   UNL     1       2.705   7.758  18.048  0.00  0.00    +0.000 A 
ENDBRANCH   2  12
BRANCH   1  19
ATOM     19  C   UNL     1       4.326   5.955  16.264  0.00  0.00    +0.000 C 
BRANCH  19  20
ATOM     20  C   UNL     1       5.414   5.233  15.409  0.00  0.00    +0.000 C 
BRANCH  20  21
ATOM     21  O   UNL     1       6.715   5.813  15.511  0.00  0.00    +0.000 OA
BRANCH  21  27
ATOM     22  C   UNL     1       7.578   7.014  17.554  0.00  0.00    +0.000 A 
ATOM     23  C   UNL     1       7.964   6.852  18.896  0.00  0.00    +0.000 A 
ATOM     24  C   UNL     1       8.167   5.582  19.431  0.00  0.00    +0.000 A 
ATOM     25  C   UNL     1       7.948   4.460  18.642  0.00  0.00    +0.000 A 
ATOM     26  C   UNL     1       7.467   4.610  17.338  0.00  0.00    +0.000 A 
ATOM     27  C   UNL     1       7.242   5.877  16.789  0.00  0.00    +0.000 A 
BRANCH  22  29
ATOM     28  C   UNL     1       8.087   9.318  17.789  0.00  0.00    +0.000 C 
ATOM     29  O   UNL     1       7.547   8.262  16.984  0.00  0.00    +0.000 OA
ENDBRANCH  22  29
ENDBRANCH  21  27
ENDBRANCH  20  21
ENDBRANCH  19  20
ENDBRANCH   1  19
TORSDOF 6
ENDMDL
MODEL 2
REMARK VINA RESULT:      -7.9      2.246      3.788
REMARK  Name = 
REMARK  7 active torsions:
REMARK  status: ('A' for Active; 'I' for Inactive)
REMARK    1  A    between atoms: C_1  and  O_2
REMARK    2  A    between atoms: O_2  and  C_3
REMARK    3  A    between atoms: C_8  and  O_9
REMARK    4  A    between atoms: O_9  and  C_10
REMARK    5  A    between atoms: C_10  and  C_11
REMARK    6  A    between atoms: C_11  and  N_12
REMARK    7  A    between atoms: C_13  and  C_14
REMARK                            x       y       z     vdW  Elec       q    Type
REMARK                         _______ _______ _______ _____ _____    ______ ____
ROOT
ATOM      1  N   UNL     1       4.082   4.295  17.656  0.00  0.00    +0.000 N 
ATOM      2  C   UNL     1       4.176   4.861  18.902  0.00  0.00    +0.000 A 
ATOM      3  N   UNL     1       4.337   4.067  19.912  0.00  0.00    +0.000 NA
ATOM      4  C   UNL     1       3.206   3.212  20.017  0.00  0.00    +0.000 A 
ATOM      5  C   UNL     1       2.717   2.938  21.293  0.00  0.00    +0.000 A 
ATOM      6  C   UNL     1       1.340   2.878  21.483  0.00  0.00    +0.000 A 
ATOM      7  C   UNL     1       0.481   3.051  20.391  0.00  0.00    +0.000 A 
ATOM      8  C   UNL     1       0.992   3.089  19.085  0.00  0.00    +0.000 A 
ATOM      9  C   UNL     1       2.376   3.076  18.893  0.00  0.00    +0.000 A 
ATOM     10  C   UNL     1       3.028   3.384  17.566  0.00  0.00    +0.000 A 
ATOM     11  O   UNL     1       2.519   2.991  16.518  0.00  0.00    +0.000 OA
ENDROOT
BRANCH   2  12
ATOM     12  C   UNL     1       3.334   6.116  19.030  0.00  0.00    +0.000 A 
ATOM     13  C   UNL     1       3.252   7.023  17.953  0.00  0.00    +0.000 A 
ATOM     14  C   UNL     1       2.459   8.163  18.023  0.00  0.00    +0.000 A 
ATOM     15  C   UNL     1       1.741   8.394  19.180  0.00  0.00    +0.000 A 
ATOM     16 BR   UNL     1       0.658   9.934  19.301  0.00  0.00    +0.000 Br
ATOM     17  C   UNL     1       1.823   7.501  20.265  0.00  0.00    +0.000 A 
ATOM     18  C   UNL     1       2.610   6.351  20.189  0.00  0.00    +0.000 A 
ENDBRANCH   2  12
BRANCH   1  19
ATOM     19  C   UNL     1       4.783   4.900  16.491  0.00  0.00    +0.000 C 
BRANCH  19  20
ATOM     20  C   UNL     1       6.055   4.129  16.020  0.00  0.00    +0.000 C 
BRANCH  20  21
ATOM     21  O   UNL     1       5.896   3.445  14.777  0.00  0.00    +0.000 OA
BRANCH  21  27
ATOM     22  C   UNL     1       6.398   3.726  12.322  0.00  0.00    +0.000 A 
ATOM     23  C   UNL     1       7.056   4.531  11.376  0.00  0.00    +0.000 A 
ATOM     24  C   UNL     1       7.971   5.501  11.778  0.00  0.00    +0.000 A 
ATOM     25  C   UNL     1       8.207   5.705  13.133  0.00  0.00    +0.000 A 
ATOM     26  C   UNL     1       7.482   4.979  14.081  0.00  0.00    +0.000 A 
ATOM     27  C   UNL     1       6.547   4.012  13.696  0.00  0.00    +0.000 A 
BRANCH  22  29
ATOM     28  C   UNL     1       4.331   2.994  11.418  0.00  0.00    +0.000 C 
ATOM     29  O   UNL     1       5.633   2.661  11.918  0.00  0.00    +0.000 OA
ENDBRANCH  22  29
ENDBRANCH  21  27
ENDBRANCH  20  21
ENDBRANCH  19  20
ENDBRANCH   1  19
TORSDOF 6
ENDMDL
MODEL 3
REMARK VINA RESULT:      -7.8      3.509      5.857
REMARK  Name = 
REMARK  7 active torsions:
REMARK  status: ('A' for Active; 'I' for Inactive)
REMARK    1  A    between atoms: C_1  and  O_2
REMARK    2  A    between atoms: O_2  and  C_3
REMARK    3  A    between atoms: C_8  and  O_9
REMARK    4  A    between atoms: O_9  and  C_10
REMARK    5  A    between atoms: C_10  and  C_11
REMARK    6  A    between atoms: C_11  and  N_12
REMARK    7  A    between atoms: C_13  and  C_14
REMARK                            x       y       z     vdW  Elec       q    Type
REMARK                         _______ _______ _______ _____ _____    ______ ____
ROOT
ATOM      1  N   UNL     1       6.659   6.658  17.913  0.00  0.00    +0.000 N 
ATOM      2  C   UNL     1       5.645   6.711  16.991  0.00  0.00    +0.000 A 
ATOM      3  N   UNL     1       4.450   6.952  17.425  0.00  0.00    +0.000 NA
ATOM      4  C   UNL     1       4.052   5.905  18.300  0.00  0.00    +0.000 A 
ATOM      5  C   UNL     1       2.736   5.454  18.215  0.00  0.00    +0.000 A 
ATOM      6  C   UNL     1       2.489   4.089  18.331  0.00  0.00    +0.000 A 
ATOM      7  C   UNL     1       3.550   3.209  18.570  0.00  0.00    +0.000 A 
ATOM      8  C   UNL     1       4.825   3.704  18.887  0.00  0.00    +0.000 A 
ATOM      9  C   UNL     1       5.053   5.081  18.840  0.00  0.00    +0.000 A 
ATOM     10  C   UNL     1       6.433   5.691  18.894  0.00  0.00    +0.000 A 
ATOM     11  O   UNL     1       7.296   5.211  19.628  0.00  0.00    +0.000 OA
ENDROOT
BRANCH   2  12
ATOM     12  C   UNL     1       5.871   5.758  15.832  0.00  0.00    +0.000 A 
ATOM     13  C   UNL     1       4.795   5.002  15.322  0.00  0.00    +0.000 A 
ATOM     14  C   UNL     1       4.959   4.148  14.237  0.00  0.00    +0.000 A 
ATOM     15  C   UNL     1       6.208   4.054  13.657  0.00  0.00    +0.000 A 
ATOM     16 BR   UNL     1       6.457   2.904  12.183  0.00  0.00    +0.000 Br
ATOM     17  C   UNL     1       7.292   4.798  14.163  0.00  0.00    +0.000 A 
ATOM     18  C   UNL     1       7.123   5.663  15.245  0.00  0.00    +0.000 A 
ENDBRANCH   2  12
BRANCH   1  19
ATOM     19  C   UNL     1       7.977   7.292  17.633  0.00  0.00    +0.000 C 
BRANCH  19  20
ATOM     20  C   UNL     1       8.051   8.817  17.953  0.00  0.00    +0.000 C 
BRANCH  20  21
ATOM     21  O   UNL     1       8.779   9.128  19.142  0.00  0.00    +0.000 OA
BRANCH  21  27
ATOM     22  C   UNL     1       9.529  11.229  20.318  0.00  0.00    +0.000 A 
ATOM     23  C   UNL     1      10.234  12.435  20.162  0.00  0.00    +0.000 A 
ATOM     24  C   UNL     1      10.590  12.895  18.896  0.00  0.00    +0.000 A 
ATOM     25  C   UNL     1      10.281  12.133  17.776  0.00  0.00    +0.000 A 
ATOM     26  C   UNL     1       9.671  10.885  17.930  0.00  0.00    +0.000 A 
ATOM     27  C   UNL     1       9.320  10.400  19.195  0.00  0.00    +0.000 A 
BRANCH  22  29
ATOM     28  C   UNL     1       8.399  11.920  22.285  0.00  0.00    +0.000 C 
ATOM     29  O   UNL     1       9.030  10.867  21.544  0.00  0.00    +0.000 OA
ENDBRANCH  22  29
ENDBRANCH  21  27
ENDBRANCH  20  21
ENDBRANCH  19  20
ENDBRANCH   1  19
TORSDOF 6
ENDMDL
MODEL 4
REMARK VINA RESULT:      -7.6      3.438      5.844
REMARK  Name = 
REMARK  7 active torsions:
REMARK  status: ('A' for Active; 'I' for Inactive)
REMARK    1  A    between atoms: C_1  and  O_2
REMARK    2  A    between atoms: O_2  and  C_3
REMARK    3  A    between atoms: C_8  and  O_9
REMARK    4  A    between atoms: O_9  and  C_10
REMARK    5  A    between atoms: C_10  and  C_11
REMARK    6  A    between atoms: C_11  and  N_12
REMARK    7  A    between atoms: C_13  and  C_14
REMARK                            x       y       z     vdW  Elec       q    Type
REMARK                         _______ _______ _______ _____ _____    ______ ____
ROOT
ATOM      1  N   UNL     1       6.621   6.585  18.236  0.00  0.00    +0.000 N 
ATOM      2  C   UNL     1       5.649   6.703  17.276  0.00  0.00    +0.000 A 
ATOM      3  N   UNL     1       4.438   6.934  17.671  0.00  0.00    +0.000 NA
ATOM      4  C   UNL     1       3.992   5.844  18.467  0.00  0.00    +0.000 A 
ATOM      5  C   UNL     1       2.677   5.415  18.299  0.00  0.00    +0.000 A 
ATOM      6  C   UNL     1       2.410   4.050  18.326  0.00  0.00    +0.000 A 
ATOM      7  C   UNL     1       3.451   3.143  18.559  0.00  0.00    +0.000 A 
ATOM      8  C   UNL     1       4.716   3.603  18.958  0.00  0.00    +0.000 A 
ATOM      9  C   UNL     1       4.960   4.978  19.000  0.00  0.00    +0.000 A 
ATOM     10  C   UNL     1       6.343   5.566  19.149  0.00  0.00    +0.000 A 
ATOM     11  O   UNL     1       7.167   5.034  19.890  0.00  0.00    +0.000 OA
ENDROOT
BRANCH   2  12
ATOM     12  C   UNL     1       5.915   5.815  16.074  0.00  0.00    +0.000 A 
ATOM     13  C   UNL     1       4.847   5.138  15.448  0.00  0.00    +0.000 A 
ATOM     14  C   UNL     1       5.051   4.347  14.323  0.00  0.00    +0.000 A 
ATOM     15  C   UNL     1       6.332   4.236  13.820  0.00  0.00    +0.000 A 
ATOM     16 BR   UNL     1       6.634   3.170  12.294  0.00  0.00    +0.000 Br
ATOM     17  C   UNL     1       7.407   4.900  14.442  0.00  0.00    +0.000 A 
ATOM     18  C   UNL     1       7.199   5.703  15.565  0.00  0.00    +0.000 A 
ENDBRANCH   2  12
BRANCH   1  19
ATOM     19  C   UNL     1       7.956   7.216  18.049  0.00  0.00    +0.000 C 
BRANCH  19  20
ATOM     20  C   UNL     1       7.934   8.772  17.931  0.00  0.00    +0.000 C 
BRANCH  20  21
ATOM     21  O   UNL     1       9.010   9.423  18.607  0.00  0.00    +0.000 OA
BRANCH  21  27
ATOM     22  C   UNL     1      10.380  11.529  18.386  0.00  0.00    +0.000 A 
ATOM     23  C   UNL     1      10.398  12.828  17.848  0.00  0.00    +0.000 A 
ATOM     24  C   UNL     1       9.235  13.410  17.350  0.00  0.00    +0.000 A 
ATOM     25  C   UNL     1       8.050  12.684  17.346  0.00  0.00    +0.000 A 
ATOM     26  C   UNL     1       8.045  11.358  17.786  0.00  0.00    +0.000 A 
ATOM     27  C   UNL     1       9.207  10.751  18.275  0.00  0.00    +0.000 A 
BRANCH  22  29
ATOM     28  C   UNL     1      12.164  11.948  19.891  0.00  0.00    +0.000 C 
ATOM     29  O   UNL     1      11.482  11.026  19.031  0.00  0.00    +0.000 OA
ENDBRANCH  22  29
ENDBRANCH  21  27
ENDBRANCH  20  21
ENDBRANCH  19  20
ENDBRANCH   1  19
TORSDOF 6
ENDMDL
MODEL 5
REMARK VINA RESULT:      -7.5      4.010      6.673
REMARK  Name = 
REMARK  7 active torsions:
REMARK  status: ('A' for Active; 'I' for Inactive)
REMARK    1  A    between atoms: C_1  and  O_2
REMARK    2  A    between atoms: O_2  and  C_3
REMARK    3  A    between atoms: C_8  and  O_9
REMARK    4  A    between atoms: O_9  and  C_10
REMARK    5  A    between atoms: C_10  and  C_11
REMARK    6  A    between atoms: C_11  and  N_12
REMARK    7  A    between atoms: C_13  and  C_14
REMARK                            x       y       z     vdW  Elec       q    Type
REMARK                         _______ _______ _______ _____ _____    ______ ____
ROOT
ATOM      1  N   UNL     1       0.898   9.944  19.137  0.00  0.00    +0.000 N 
ATOM      2  C   UNL     1       0.398  11.186  18.841  0.00  0.00    +0.000 A 
ATOM      3  N   UNL     1       0.935  12.206  19.429  0.00  0.00    +0.000 NA
ATOM      4  C   UNL     1       0.738  12.092  20.832  0.00  0.00    +0.000 A 
ATOM      5  C   UNL     1       0.420  13.251  21.538  0.00  0.00    +0.000 A 
ATOM      6  C   UNL     1      -0.521  13.175  22.560  0.00  0.00    +0.000 A 
ATOM      7  C   UNL     1      -1.096  11.939  22.884  0.00  0.00    +0.000 A 
ATOM      8  C   UNL     1      -0.592  10.755  22.326  0.00  0.00    +0.000 A 
ATOM      9  C   UNL     1       0.406  10.830  21.350  0.00  0.00    +0.000 A 
ATOM     10  C   UNL     1       0.819   9.652  20.501  0.00  0.00    +0.000 A 
ATOM     11  O   UNL     1       0.882   8.526  20.990  0.00  0.00    +0.000 OA
ENDROOT
BRANCH   2  12
ATOM     12  C   UNL     1      -1.091  11.154  18.552  0.00  0.00    +0.000 A 
ATOM     13  C   UNL     1      -1.636  10.109  17.776  0.00  0.00    +0.000 A 
ATOM     14  C   UNL     1      -3.001  10.029  17.524  0.00  0.00    +0.000 A 
ATOM     15  C   UNL     1      -3.826  11.001  18.056  0.00  0.00    +0.000 A 
ATOM     16 BR   UNL     1      -5.681  10.915  17.729  0.00  0.00    +0.000 Br
ATOM     17  C   UNL     1      -3.291  12.054  18.824  0.00  0.00    +0.000 A 
ATOM     18  C   UNL     1      -1.922  12.126  19.085  0.00  0.00    +0.000 A 
ENDBRANCH   2  12
BRANCH   1  19
ATOM     19  C   UNL     1       1.115   8.934  18.065  0.00  0.00    +0.000 C 
BRANCH  19  20
ATOM     20  C   UNL     1       2.581   8.414  17.944  0.00  0.00    +0.000 C 
BRANCH  20  21
ATOM     21  O   UNL     1       2.799   7.138  18.549  0.00  0.00    +0.000 OA
BRANCH  21  27
ATOM     22  C   UNL     1       3.485   4.837  17.779  0.00  0.00    +0.000 A 
ATOM     23  C   UNL     1       4.251   4.130  16.835  0.00  0.00    +0.000 A 
ATOM     24  C   UNL     1       5.186   4.787  16.039  0.00  0.00    +0.000 A 
ATOM     25  C   UNL     1       5.337   6.164  16.148  0.00  0.00    +0.000 A 
ATOM     26  C   UNL     1       4.509   6.888  17.011  0.00  0.00    +0.000 A 
ATOM     27  C   UNL     1       3.553   6.247  17.807  0.00  0.00    +0.000 A 
BRANCH  22  29
ATOM     28  C   UNL     1       1.421   3.740  18.176  0.00  0.00    +0.000 C 
ATOM     29  O   UNL     1       2.695   4.167  18.678  0.00  0.00    +0.000 OA
ENDBRANCH  22  29
ENDBRANCH  21  27
ENDBRANCH  20  21
ENDBRANCH  19  20
ENDBRANCH   1  19
TORSDOF 6
ENDMDL
MODEL 6
REMARK VINA RESULT:      -7.4      4.018      6.514
REMARK  Name = 
REMARK  7 active torsions:
REMARK  status: ('A' for Active; 'I' for Inactive)
REMARK    1  A    between atoms: C_1  and  O_2
REMARK    2  A    between atoms: O_2  and  C_3
REMARK    3  A    between atoms: C_8  and  O_9
REMARK    4  A    between atoms: O_9  and  C_10
REMARK    5  A    between atoms: C_10  and  C_11
REMARK    6  A    between atoms: C_11  and  N_12
REMARK    7  A    between atoms: C_13  and  C_14
REMARK                            x       y       z     vdW  Elec       q    Type
REMARK                         _______ _______ _______ _____ _____    ______ ____
ROOT
ATOM      1  N   UNL     1       0.909   9.838  19.164  0.00  0.00    +0.000 N 
ATOM      2  C   UNL     1       0.421  11.074  18.824  0.00  0.00    +0.000 A 
ATOM      3  N   UNL     1       0.976  12.109  19.368  0.00  0.00    +0.000 NA
ATOM      4  C   UNL     1       0.792  12.051  20.776  0.00  0.00    +0.000 A 
ATOM      5  C   UNL     1       0.495  13.240  21.441  0.00  0.00    +0.000 A 
ATOM      6  C   UNL     1      -0.436  13.214  22.474  0.00  0.00    +0.000 A 
ATOM      7  C   UNL     1      -1.022  11.999  22.851  0.00  0.00    +0.000 A 
ATOM      8  C   UNL     1      -0.538  10.788  22.333  0.00  0.00    +0.000 A 
ATOM      9  C   UNL     1       0.450  10.814  21.346  0.00  0.00    +0.000 A 
ATOM     10  C   UNL     1       0.841   9.600  20.538  0.00  0.00    +0.000 A 
ATOM     11  O   UNL     1       0.896   8.492  21.069  0.00  0.00    +0.000 OA
ENDROOT
BRANCH   2  12
ATOM     12  C   UNL     1      -1.072  11.049  18.552  0.00  0.00    +0.000 A 
ATOM     13  C   UNL     1      -1.913  12.012  19.148  0.00  0.00    +0.000 A 
ATOM     14  C   UNL     1      -3.279  12.040  18.890  0.00  0.00    +0.000 A 
ATOM     15  C   UNL     1      -3.805  11.100  18.027  0.00  0.00    +0.000 A 
ATOM     16 BR   UNL     1      -5.654  11.118  17.660  0.00  0.00    +0.000 Br
ATOM     17  C   UNL     1      -2.976  10.129  17.433  0.00  0.00    +0.000 A 
ATOM     18  C   UNL     1      -1.603  10.108  17.684  0.00  0.00    +0.000 A 
ENDBRANCH   2  12
BRANCH   1  19
ATOM     19  C   UNL     1       1.103   8.786  18.129  0.00  0.00    +0.000 C 
BRANCH  19  20
ATOM     20  C   UNL     1       2.563   8.249  18.007  0.00  0.00    +0.000 C 
BRANCH  20  21
ATOM     21  O   UNL     1       2.875   7.196  18.919  0.00  0.00    +0.000 OA
BRANCH  21  27
ATOM     22  C   UNL     1       4.337   5.354  18.009  0.00  0.00    +0.000 A 
ATOM     23  C   UNL     1       4.350   4.019  17.567  0.00  0.00    +0.000 A 
ATOM     24  C   UNL     1       3.161   3.342  17.308  0.00  0.00    +0.000 A 
ATOM     25  C   UNL     1       1.945   3.978  17.529  0.00  0.00    +0.000 A 
ATOM     26  C   UNL     1       1.922   5.268  18.064  0.00  0.00    +0.000 A 
ATOM     27  C   UNL     1       3.107   5.959  18.345  0.00  0.00    +0.000 A 
BRANCH  22  29
ATOM     28  C   UNL     1       5.869   6.795  16.913  0.00  0.00    +0.000 C 
ATOM     29  O   UNL     1       5.504   6.070  18.095  0.00  0.00    +0.000 OA
ENDBRANCH  22  29
ENDBRANCH  21  27
ENDBRANCH  20  21
ENDBRANCH  19  20
ENDBRANCH   1  19
TORSDOF 6
ENDMDL
MODEL 7
REMARK VINA RESULT:      -7.3      3.519      5.817
REMARK  Name = 
REMARK  7 active torsions:
REMARK  status: ('A' for Active; 'I' for Inactive)
REMARK    1  A    between atoms: C_1  and  O_2
REMARK    2  A    between atoms: O_2  and  C_3
REMARK    3  A    between atoms: C_8  and  O_9
REMARK    4  A    between atoms: O_9  and  C_10
REMARK    5  A    between atoms: C_10  and  C_11
REMARK    6  A    between atoms: C_11  and  N_12
REMARK    7  A    between atoms: C_13  and  C_14
REMARK                            x       y       z     vdW  Elec       q    Type
REMARK                         _______ _______ _______ _____ _____    ______ ____
ROOT
ATOM      1  N   UNL     1       6.667   6.757  17.888  0.00  0.00    +0.000 N 
ATOM      2  C   UNL     1       5.619   6.739  17.003  0.00  0.00    +0.000 A 
ATOM      3  N   UNL     1       4.427   6.912  17.479  0.00  0.00    +0.000 NA
ATOM      4  C   UNL     1       4.126   5.852  18.377  0.00  0.00    +0.000 A 
ATOM      5  C   UNL     1       2.838   5.321  18.345  0.00  0.00    +0.000 A 
ATOM      6  C   UNL     1       2.677   3.946  18.481  0.00  0.00    +0.000 A 
ATOM      7  C   UNL     1       3.799   3.133  18.688  0.00  0.00    +0.000 A 
ATOM      8  C   UNL     1       5.052   3.707  18.953  0.00  0.00    +0.000 A 
ATOM      9  C   UNL     1       5.194   5.096  18.886  0.00  0.00    +0.000 A 
ATOM     10  C   UNL     1       6.536   5.788  18.885  0.00  0.00    +0.000 A 
ATOM     11  O   UNL     1       7.452   5.368  19.590  0.00  0.00    +0.000 OA
ENDROOT
BRANCH   2  12
ATOM     12  C   UNL     1       5.859   5.789  15.844  0.00  0.00    +0.000 A 
ATOM     13  C   UNL     1       4.797   5.012  15.339  0.00  0.00    +0.000 A 
ATOM     14  C   UNL     1       4.974   4.160  14.254  0.00  0.00    +0.000 A 
ATOM     15  C   UNL     1       6.223   4.089  13.670  0.00  0.00    +0.000 A 
ATOM     16 BR   UNL     1       6.490   2.942  12.197  0.00  0.00    +0.000 Br
ATOM     17  C   UNL     1       7.294   4.854  14.173  0.00  0.00    +0.000 A 
ATOM     18  C   UNL     1       7.112   5.717  15.255  0.00  0.00    +0.000 A 
ENDBRANCH   2  12
BRANCH   1  19
ATOM     19  C   UNL     1       7.933   7.465  17.554  0.00  0.00    +0.000 C 
BRANCH  19  20
ATOM     20  C   UNL     1       8.345   8.580  18.565  0.00  0.00    +0.000 C 
BRANCH  20  21
ATOM     21  O   UNL     1       8.818   9.779  17.950  0.00  0.00    +0.000 OA
BRANCH  21  27
ATOM     22  C   UNL     1      10.313  11.737  18.487  0.00  0.00    +0.000 A 
ATOM     23  C   UNL     1      10.694  12.639  19.496  0.00  0.00    +0.000 A 
ATOM     24  C   UNL     1      10.335  12.419  20.823  0.00  0.00    +0.000 A 
ATOM     25  C   UNL     1       9.553  11.317  21.150  0.00  0.00    +0.000 A 
ATOM     26  C   UNL     1       9.085  10.473  20.140  0.00  0.00    +0.000 A 
ATOM     27  C   UNL     1       9.423  10.687  18.800  0.00  0.00    +0.000 A 
BRANCH  22  29
ATOM     28  C   UNL     1      11.331  13.158  16.884  0.00  0.00    +0.000 C 
ATOM     29  O   UNL     1      10.812  11.863  17.215  0.00  0.00    +0.000 OA
ENDBRANCH  22  29
ENDBRANCH  21  27
ENDBRANCH  20  21
ENDBRANCH  19  20
ENDBRANCH   1  19
TORSDOF 6
ENDMDL
MODEL 8
REMARK VINA RESULT:      -7.3      1.936      3.285
REMARK  Name = 
REMARK  7 active torsions:
REMARK  status: ('A' for Active; 'I' for Inactive)
REMARK    1  A    between atoms: C_1  and  O_2
REMARK    2  A    between atoms: O_2  and  C_3
REMARK    3  A    between atoms: C_8  and  O_9
REMARK    4  A    between atoms: O_9  and  C_10
REMARK    5  A    between atoms: C_10  and  C_11
REMARK    6  A    between atoms: C_11  and  N_12
REMARK    7  A    between atoms: C_13  and  C_14
REMARK                            x       y       z     vdW  Elec       q    Type
REMARK                         _______ _______ _______ _____ _____    ______ ____
ROOT
ATOM      1  N   UNL     1       4.121   4.639  17.821  0.00  0.00    +0.000 N 
ATOM      2  C   UNL     1       4.099   5.139  19.098  0.00  0.00    +0.000 A 
ATOM      3  N   UNL     1       4.239   4.300  20.074  0.00  0.00    +0.000 NA
ATOM      4  C   UNL     1       3.155   3.381  20.057  0.00  0.00    +0.000 A 
ATOM      5  C   UNL     1       2.599   3.011  21.280  0.00  0.00    +0.000 A 
ATOM      6  C   UNL     1       1.218   2.865  21.371  0.00  0.00    +0.000 A 
ATOM      7  C   UNL     1       0.425   3.051  20.232  0.00  0.00    +0.000 A 
ATOM      8  C   UNL     1       1.018   3.189  18.969  0.00  0.00    +0.000 A 
ATOM      9  C   UNL     1       2.410   3.262  18.873  0.00  0.00    +0.000 A 
ATOM     10  C   UNL     1       3.130   3.678  17.612  0.00  0.00    +0.000 A 
ATOM     11  O   UNL     1       2.715   3.316  16.512  0.00  0.00    +0.000 OA
ENDROOT
BRANCH   2  12
ATOM     12  C   UNL     1       3.179   6.338  19.232  0.00  0.00    +0.000 A 
ATOM     13  C   UNL     1       3.030   7.236  18.154  0.00  0.00    +0.000 A 
ATOM     14  C   UNL     1       2.166   8.322  18.230  0.00  0.00    +0.000 A 
ATOM     15  C   UNL     1       1.444   8.509  19.392  0.00  0.00    +0.000 A 
ATOM     16 BR   UNL     1       0.265   9.975  19.520  0.00  0.00    +0.000 Br
ATOM     17  C   UNL     1       1.591   7.624  20.477  0.00  0.00    +0.000 A 
ATOM     18  C   UNL     1       2.451   6.527  20.396  0.00  0.00    +0.000 A 
ENDBRANCH   2  12
BRANCH   1  19
ATOM     19  C   UNL     1       4.861   5.344  16.739  0.00  0.00    +0.000 C 
BRANCH  19  20
ATOM     20  C   UNL     1       6.277   4.764  16.430  0.00  0.00    +0.000 C 
BRANCH  20  21
ATOM     21  O   UNL     1       6.952   5.419  15.355  0.00  0.00    +0.000 OA
BRANCH  21  27
ATOM     22  C   UNL     1       7.597   4.990  12.956  0.00  0.00    +0.000 A 
ATOM     23  C   UNL     1       7.350   4.179  11.834  0.00  0.00    +0.000 A 
ATOM     24  C   UNL     1       6.240   3.339  11.792  0.00  0.00    +0.000 A 
ATOM     25  C   UNL     1       5.388   3.269  12.889  0.00  0.00    +0.000 A 
ATOM     26  C   UNL     1       5.683   3.995  14.045  0.00  0.00    +0.000 A 
ATOM     27  C   UNL     1       6.803   4.833  14.111  0.00  0.00    +0.000 A 
BRANCH  22  29
ATOM     28  C   UNL     1       8.683   6.687  11.704  0.00  0.00    +0.000 C 
ATOM     29  O   UNL     1       8.588   5.939  12.924  0.00  0.00    +0.000 OA
ENDBRANCH  22  29
ENDBRANCH  21  27
ENDBRANCH  20  21
ENDBRANCH  19  20
ENDBRANCH   1  19
TORSDOF 6
ENDMDL
MODEL 9
REMARK VINA RESULT:      -7.3      1.747      2.977
REMARK  Name = 
REMARK  7 active torsions:
REMARK  status: ('A' for Active; 'I' for Inactive)
REMARK    1  A    between atoms: C_1  and  O_2
REMARK    2  A    between atoms: O_2  and  C_3
REMARK    3  A    between atoms: C_8  and  O_9
REMARK    4  A    between atoms: O_9  and  C_10
REMARK    5  A    between atoms: C_10  and  C_11
REMARK    6  A    between atoms: C_11  and  N_12
REMARK    7  A    between atoms: C_13  and  C_14
REMARK                            x       y       z     vdW  Elec       q    Type
REMARK                         _______ _______ _______ _____ _____    ______ ____
ROOT
ATOM      1  N   UNL     1       4.143   4.887  17.507  0.00  0.00    +0.000 N 
ATOM      2  C   UNL     1       4.154   5.443  18.760  0.00  0.00    +0.000 A 
ATOM      3  N   UNL     1       4.385   4.659  19.764  0.00  0.00    +0.000 NA
ATOM      4  C   UNL     1       3.354   3.684  19.840  0.00  0.00    +0.000 A 
ATOM      5  C   UNL     1       2.877   3.342  21.104  0.00  0.00    +0.000 A 
ATOM      6  C   UNL     1       1.512   3.128  21.269  0.00  0.00    +0.000 A 
ATOM      7  C   UNL     1       0.657   3.219  20.164  0.00  0.00    +0.000 A 
ATOM      8  C   UNL     1       1.182   3.330  18.867  0.00  0.00    +0.000 A 
ATOM      9  C   UNL     1       2.562   3.472  18.700  0.00  0.00    +0.000 A 
ATOM     10  C   UNL     1       3.198   3.866  17.388  0.00  0.00    +0.000 A 
ATOM     11  O   UNL     1       2.752   3.432  16.327  0.00  0.00    +0.000 OA
ENDROOT
BRANCH   2  12
ATOM     12  C   UNL     1       3.176   6.597  18.887  0.00  0.00    +0.000 A 
ATOM     13  C   UNL     1       2.467   6.790  20.090  0.00  0.00    +0.000 A 
ATOM     14  C   UNL     1       1.591   7.858  20.253  0.00  0.00    +0.000 A 
ATOM     15  C   UNL     1       1.429   8.740  19.203  0.00  0.00    +0.000 A 
ATOM     16 BR   UNL     1       0.248  10.198  19.398  0.00  0.00    +0.000 Br
ATOM     17  C   UNL     1       2.125   8.552  17.994  0.00  0.00    +0.000 A 
ATOM     18  C   UNL     1       3.012   7.486  17.836  0.00  0.00    +0.000 A 
ENDBRANCH   2  12
BRANCH   1  19
ATOM     19  C   UNL     1       4.793   5.579  16.360  0.00  0.00    +0.000 C 
BRANCH  19  20
ATOM     20  C   UNL     1       6.329   5.805  16.516  0.00  0.00    +0.000 C 
BRANCH  20  21
ATOM     21  O   UNL     1       7.131   4.774  15.939  0.00  0.00    +0.000 OA
BRANCH  21  27
ATOM     22  C   UNL     1       7.557   4.901  13.457  0.00  0.00    +0.000 A 
ATOM     23  C   UNL     1       7.200   4.363  12.208  0.00  0.00    +0.000 A 
ATOM     24  C   UNL     1       6.078   3.547  12.077  0.00  0.00    +0.000 A 
ATOM     25  C   UNL     1       5.325   3.227  13.200  0.00  0.00    +0.000 A 
ATOM     26  C   UNL     1       5.731   3.675  14.460  0.00  0.00    +0.000 A 
ATOM     27  C   UNL     1       6.864   4.482  14.613  0.00  0.00    +0.000 A 
BRANCH  22  29
ATOM     28  C   UNL     1       8.987   6.403  12.307  0.00  0.00    +0.000 C 
ATOM     29  O   UNL     1       8.554   5.838  13.552  0.00  0.00    +0.000 OA
ENDBRANCH  22  29
ENDBRANCH  21  27
ENDBRANCH  20  21
ENDBRANCH  19  20
ENDBRANCH   1  19
TORSDOF 6
ENDMDL
