MODEL 1
REMARK VINA RESULT:      -7.6      0.000      0.000
REMARK  Name = 
REMARK  7 active torsions:
REMARK  status: ('A' for Active; 'I' for Inactive)
REMARK    1  A    between atoms: C_1  and  N_2
REMARK    2  A    between atoms: N_2  and  C_3
REMARK    3  A    between atoms: N_2  and  C_4
REMARK    4  A    between atoms: C_4  and  C_5
REMARK    5  A    between atoms: C_5  and  N_6
REMARK    6  A    between atoms: C_7  and  C_9
REMARK    7  A    between atoms: C_11  and  O_12
REMARK                            x       y       z     vdW  Elec       q    Type
REMARK                         _______ _______ _______ _____ _____    ______ ____
ROOT
ATOM      1  C   UNL     1       6.390   5.384  16.977  0.00  0.00    +0.000 C 
ATOM      2  C   UNL     1       6.266   4.846  15.579  0.00  0.00    +0.000 A 
ATOM      3  C   UNL     1       7.119   4.930  14.495  0.00  0.00    +0.000 A 
ATOM      4  C   UNL     1       6.731   4.366  13.281  0.00  0.00    +0.000 A 
ATOM      5  C   UNL     1       5.497   3.705  13.168  0.00  0.00    +0.000 A 
ATOM      6  C   UNL     1       4.650   3.586  14.274  0.00  0.00    +0.000 A 
ATOM      7  C   UNL     1       5.049   4.164  15.465  0.00  0.00    +0.000 A 
ATOM      8  N   UNL     1       4.384   4.200  16.699  0.00  0.00    +0.000 N 
ATOM      9  C   UNL     1       3.189   3.593  17.033  0.00  0.00    +0.000 A 
ATOM     10  O   UNL     1       2.481   2.943  16.273  0.00  0.00    +0.000 OA
ATOM     11  C   UNL     1       2.765   3.752  18.446  0.00  0.00    +0.000 A 
ATOM     12  C   UNL     1       1.539   3.206  18.859  0.00  0.00    +0.000 A 
ATOM     13  C   UNL     1       1.120   3.346  20.183  0.00  0.00    +0.000 A 
ATOM     14  C   UNL     1       1.917   4.028  21.100  0.00  0.00    +0.000 A 
ATOM     15  C   UNL     1       3.141   4.564  20.697  0.00  0.00    +0.000 A 
ATOM     16  C   UNL     1       3.570   4.419  19.370  0.00  0.00    +0.000 A 
ATOM     17  C   UNL     1       4.868   4.981  18.956  0.00  0.00    +0.000 A 
ATOM     18  O   UNL     1       5.620   5.504  19.785  0.00  0.00    +0.000 OA
ATOM     19  N   UNL     1       5.137   4.950  17.618  0.00  0.00    +0.000 N 
ENDROOT
BRANCH   1  21
ATOM     20  N   UNL     1       7.524   7.430  17.789  0.00  0.00    +0.000 N 
ATOM     21  C   UNL     1       6.526   6.912  17.009  0.00  0.00    +0.000 C 
ATOM     22  O   UNL     1       5.790   7.642  16.330  0.00  0.00    +0.000 OA
ATOM     23  H   UNL     1       7.912   6.861  18.541  0.00  0.00    +0.000 HD
BRANCH  20  24
ATOM     24  C   UNL     1       7.819   8.840  17.771  0.00  0.00    +0.000 C 
BRANCH  24  25
ATOM     25  C   UNL     1       8.932   9.237  18.755  0.00  0.00    +0.000 C 
BRANCH  25  27
ATOM     26  C   UNL     1       9.410  11.020  20.314  0.00  0.00    +0.000 C 
ATOM     27  N   UNL     1       9.054  10.701  18.927  0.00  0.00    +0.000 NA
ATOM     28  C   UNL     1      10.070  11.263  18.028  0.00  0.00    +0.000 C 
ENDBRANCH  25  27
ENDBRANCH  24  25
ENDBRANCH  20  24
ENDBRANCH   1  21
BRANCH   3  29
ATOM     29  O   UNL     1       8.327   5.552  14.549  0.00  0.00    +0.000 OA
ATOM     30  H   UNL     1       8.861   5.288  13.774  0.00  0.00    +0.000 HD
ENDBRANCH   3  29
TORSDOF 5
ENDMDL
MODEL 2
REMARK VINA RESULT:      -7.2      3.385      6.488
REMARK  Name = 
REMARK  7 active torsions:
REMARK  status: ('A' for Active; 'I' for Inactive)
REMARK    1  A    between atoms: C_1  and  N_2
REMARK    2  A    between atoms: N_2  and  C_3
REMARK    3  A    between atoms: N_2  and  C_4
REMARK    4  A    between atoms: C_4  and  C_5
REMARK    5  A    between atoms: C_5  and  N_6
REMARK    6  A    between atoms: C_7  and  C_9
REMARK    7  A    between atoms: C_11  and  O_12
REMARK                            x       y       z     vdW  Elec       q    Type
REMARK                         _______ _______ _______ _____ _____    ______ ____
ROOT
ATOM      1  C   UNL     1       4.152   4.970  18.564  0.00  0.00    +0.000 C 
ATOM      2  C   UNL     1       3.671   4.062  19.662  0.00  0.00    +0.000 A 
ATOM      3  C   UNL     1       4.082   2.797  20.038  0.00  0.00    +0.000 A 
ATOM      4  C   UNL     1       3.423   2.155  21.085  0.00  0.00    +0.000 A 
ATOM      5  C   UNL     1       2.372   2.795  21.761  0.00  0.00    +0.000 A 
ATOM      6  C   UNL     1       1.982   4.089  21.406  0.00  0.00    +0.000 A 
ATOM      7  C   UNL     1       2.639   4.703  20.356  0.00  0.00    +0.000 A 
ATOM      8  N   UNL     1       2.430   5.974  19.802  0.00  0.00    +0.000 N 
ATOM      9  C   UNL     1       1.554   6.951  20.233  0.00  0.00    +0.000 A 
ATOM     10  O   UNL     1       0.769   6.843  21.168  0.00  0.00    +0.000 OA
ATOM     11  C   UNL     1       1.604   8.230  19.484  0.00  0.00    +0.000 A 
ATOM     12  C   UNL     1       0.714   9.260  19.825  0.00  0.00    +0.000 A 
ATOM     13  C   UNL     1       0.742  10.471  19.132  0.00  0.00    +0.000 A 
ATOM     14  C   UNL     1       1.656  10.662  18.097  0.00  0.00    +0.000 A 
ATOM     15  C   UNL     1       2.550   9.645  17.759  0.00  0.00    +0.000 A 
ATOM     16  C   UNL     1       2.530   8.430  18.459  0.00  0.00    +0.000 A 
ATOM     17  C   UNL     1       3.484   7.365  18.101  0.00  0.00    +0.000 A 
ATOM     18  O   UNL     1       4.357   7.563  17.248  0.00  0.00    +0.000 OA
ATOM     19  N   UNL     1       3.291   6.157  18.707  0.00  0.00    +0.000 N 
ENDROOT
BRANCH   1  21
ATOM     20  N   UNL     1       4.985   4.604  16.260  0.00  0.00    +0.000 N 
ATOM     21  C   UNL     1       3.999   4.341  17.172  0.00  0.00    +0.000 C 
ATOM     22  O   UNL     1       3.045   3.599  16.898  0.00  0.00    +0.000 OA
ATOM     23  H   UNL     1       5.581   5.420  16.396  0.00  0.00    +0.000 HD
BRANCH  20  24
ATOM     24  C   UNL     1       5.002   3.945  14.979  0.00  0.00    +0.000 C 
BRANCH  24  25
ATOM     25  C   UNL     1       6.298   4.194  14.190  0.00  0.00    +0.000 C 
BRANCH  25  27
ATOM     26  C   UNL     1       4.958   3.464  12.316  0.00  0.00    +0.000 C 
ATOM     27  N   UNL     1       6.312   3.510  12.878  0.00  0.00    +0.000 NA
ATOM     28  C   UNL     1       7.203   4.191  11.929  0.00  0.00    +0.000 C 
ENDBRANCH  25  27
ENDBRANCH  24  25
ENDBRANCH  20  24
ENDBRANCH   1  21
BRANCH   3  29
ATOM     29  O   UNL     1       5.097   2.134  19.423  0.00  0.00    +0.000 OA
ATOM     30  H   UNL     1       4.828   1.208  19.264  0.00  0.00    +0.000 HD
ENDBRANCH   3  29
TORSDOF 5
ENDMDL
MODEL 3
REMARK VINA RESULT:      -7.1      3.393      7.240
REMARK  Name = 
REMARK  7 active torsions:
REMARK  status: ('A' for Active; 'I' for Inactive)
REMARK    1  A    between atoms: C_1  and  N_2
REMARK    2  A    between atoms: N_2  and  C_3
REMARK    3  A    between atoms: N_2  and  C_4
REMARK    4  A    between atoms: C_4  and  C_5
REMARK    5  A    between atoms: C_5  and  N_6
REMARK    6  A    between atoms: C_7  and  C_9
REMARK    7  A    between atoms: C_11  and  O_12
REMARK                            x       y       z     vdW  Elec       q    Type
REMARK                         _______ _______ _______ _____ _____    ______ ____
ROOT
ATOM      1  C   UNL     1       3.184   6.192  20.062  0.00  0.00    +0.000 C 
ATOM      2  C   UNL     1       2.360   7.406  19.734  0.00  0.00    +0.000 A 
ATOM      3  C   UNL     1       1.468   8.131  20.501  0.00  0.00    +0.000 A 
ATOM      4  C   UNL     1       0.798   9.208  19.923  0.00  0.00    +0.000 A 
ATOM      5  C   UNL     1       1.043   9.563  18.587  0.00  0.00    +0.000 A 
ATOM      6  C   UNL     1       1.974   8.853  17.822  0.00  0.00    +0.000 A 
ATOM      7  C   UNL     1       2.618   7.780  18.410  0.00  0.00    +0.000 A 
ATOM      8  N   UNL     1       3.569   6.909  17.862  0.00  0.00    +0.000 N 
ATOM      9  C   UNL     1       4.147   6.968  16.608  0.00  0.00    +0.000 A 
ATOM     10  O   UNL     1       3.882   7.790  15.739  0.00  0.00    +0.000 OA
ATOM     11  C   UNL     1       5.181   5.942  16.331  0.00  0.00    +0.000 A 
ATOM     12  C   UNL     1       5.785   5.901  15.065  0.00  0.00    +0.000 A 
ATOM     13  C   UNL     1       6.759   4.941  14.783  0.00  0.00    +0.000 A 
ATOM     14  C   UNL     1       7.136   4.020  15.759  0.00  0.00    +0.000 A 
ATOM     15  C   UNL     1       6.545   4.062  17.023  0.00  0.00    +0.000 A 
ATOM     16  C   UNL     1       5.572   5.030  17.313  0.00  0.00    +0.000 A 
ATOM     17  C   UNL     1       4.961   5.072  18.653  0.00  0.00    +0.000 A 
ATOM     18  O   UNL     1       5.358   4.319  19.549  0.00  0.00    +0.000 OA
ATOM     19  N   UNL     1       3.906   5.925  18.806  0.00  0.00    +0.000 N 
ENDROOT
BRANCH   1  21
ATOM     20  N   UNL     1       1.516   4.448  19.504  0.00  0.00    +0.000 N 
ATOM     21  C   UNL     1       2.322   4.989  20.469  0.00  0.00    +0.000 C 
ATOM     22  O   UNL     1       2.379   4.507  21.610  0.00  0.00    +0.000 OA
ATOM     23  H   UNL     1       1.265   5.013  18.693  0.00  0.00    +0.000 HD
BRANCH  20  24
ATOM     24  C   UNL     1       0.780   3.234  19.751  0.00  0.00    +0.000 C 
BRANCH  24  25
ATOM     25  C   UNL     1       1.456   1.988  19.155  0.00  0.00    +0.000 C 
BRANCH  25  27
ATOM     26  C   UNL     1       3.687   1.145  18.765  0.00  0.00    +0.000 C 
ATOM     27  N   UNL     1       2.779   2.279  18.560  0.00  0.00    +0.000 NA
ATOM     28  C   UNL     1       2.670   2.554  17.121  0.00  0.00    +0.000 C 
ENDBRANCH  25  27
ENDBRANCH  24  25
ENDBRANCH  20  24
ENDBRANCH   1  21
BRANCH   3  29
ATOM     29  O   UNL     1       1.197   7.836  21.800  0.00  0.00    +0.000 OA
ATOM     30  H   UNL     1       1.292   8.645  22.341  0.00  0.00    +0.000 HD
ENDBRANCH   3  29
TORSDOF 5
ENDMDL
MODEL 4
REMARK VINA RESULT:      -7.0      8.900     10.757
REMARK  Name = 
REMARK  7 active torsions:
REMARK  status: ('A' for Active; 'I' for Inactive)
REMARK    1  A    between atoms: C_1  and  N_2
REMARK    2  A    between atoms: N_2  and  C_3
REMARK    3  A    between atoms: N_2  and  C_4
REMARK    4  A    between atoms: C_4  and  C_5
REMARK    5  A    between atoms: C_5  and  N_6
REMARK    6  A    between atoms: C_7  and  C_9
REMARK    7  A    between atoms: C_11  and  O_12
REMARK                            x       y       z     vdW  Elec       q    Type
REMARK                         _______ _______ _______ _____ _____    ______ ____
ROOT
ATOM      1  C   UNL     1      -0.438  11.122  18.831  0.00  0.00    +0.000 C 
ATOM      2  C   UNL     1       0.444  10.001  19.305  0.00  0.00    +0.000 A 
ATOM      3  C   UNL     1       1.355   9.213  18.627  0.00  0.00    +0.000 A 
ATOM      4  C   UNL     1       2.019   8.199  19.315  0.00  0.00    +0.000 A 
ATOM      5  C   UNL     1       1.779   7.996  20.683  0.00  0.00    +0.000 A 
ATOM      6  C   UNL     1       0.886   8.816  21.379  0.00  0.00    +0.000 A 
ATOM      7  C   UNL     1       0.228   9.807  20.674  0.00  0.00    +0.000 A 
ATOM      8  N   UNL     1      -0.714  10.740  21.129  0.00  0.00    +0.000 N 
ATOM      9  C   UNL     1      -1.157  10.933  22.423  0.00  0.00    +0.000 A 
ATOM     10  O   UNL     1      -0.816  10.276  23.399  0.00  0.00    +0.000 OA
ATOM     11  C   UNL     1      -2.115  12.050  22.611  0.00  0.00    +0.000 A 
ATOM     12  C   UNL     1      -2.651  12.286  23.887  0.00  0.00    +0.000 A 
ATOM     13  C   UNL     1      -3.557  13.330  24.085  0.00  0.00    +0.000 A 
ATOM     14  C   UNL     1      -3.932  14.142  23.017  0.00  0.00    +0.000 A 
ATOM     15  C   UNL     1      -3.394  13.918  21.748  0.00  0.00    +0.000 A 
ATOM     16  C   UNL     1      -2.478  12.875  21.546  0.00  0.00    +0.000 A 
ATOM     17  C   UNL     1      -1.910  12.652  20.205  0.00  0.00    +0.000 A 
ATOM     18  O   UNL     1      -2.167  13.426  19.276  0.00  0.00    +0.000 OA
ATOM     19  N   UNL     1      -1.163  11.520  20.050  0.00  0.00    +0.000 N 
ENDROOT
BRANCH   1  21
ATOM     20  N   UNL     1      -2.021  11.665  17.004  0.00  0.00    +0.000 N 
ATOM     21  C   UNL     1      -1.412  10.677  17.730  0.00  0.00    +0.000 C 
ATOM     22  O   UNL     1      -1.609   9.478  17.485  0.00  0.00    +0.000 OA
ATOM     23  H   UNL     1      -2.077  12.605  17.396  0.00  0.00    +0.000 HD
BRANCH  20  24
ATOM     24  C   UNL     1      -2.838  11.346  15.861  0.00  0.00    +0.000 C 
BRANCH  24  25
ATOM     25  C   UNL     1      -4.311  11.094  16.224  0.00  0.00    +0.000 C 
BRANCH  25  27
ATOM     26  C   UNL     1      -5.957  12.675  17.016  0.00  0.00    +0.000 C 
ATOM     27  N   UNL     1      -4.765  11.900  17.378  0.00  0.00    +0.000 NA
ATOM     28  C   UNL     1      -5.078  11.050  18.534  0.00  0.00    +0.000 C 
ENDBRANCH  25  27
ENDBRANCH  24  25
ENDBRANCH  20  24
ENDBRANCH   1  21
BRANCH   3  29
ATOM     29  O   UNL     1       1.630   9.371  17.305  0.00  0.00    +0.000 OA
ATOM     30  H   UNL     1       2.576   9.178  17.147  0.00  0.00    +0.000 HD
ENDBRANCH   3  29
TORSDOF 5
ENDMDL
MODEL 5
REMARK VINA RESULT:      -6.9      7.093      8.937
REMARK  Name = 
REMARK  7 active torsions:
REMARK  status: ('A' for Active; 'I' for Inactive)
REMARK    1  A    between atoms: C_1  and  N_2
REMARK    2  A    between atoms: N_2  and  C_3
REMARK    3  A    between atoms: N_2  and  C_4
REMARK    4  A    between atoms: C_4  and  C_5
REMARK    5  A    between atoms: C_5  and  N_6
REMARK    6  A    between atoms: C_7  and  C_9
REMARK    7  A    between atoms: C_11  and  O_12
REMARK                            x       y       z     vdW  Elec       q    Type
REMARK                         _______ _______ _______ _____ _____    ______ ____
ROOT
ATOM      1  C   UNL     1       0.645  11.572  19.471  0.00  0.00    +0.000 C 
ATOM      2  C   UNL     1      -0.142  11.541  20.752  0.00  0.00    +0.000 A 
ATOM      3  C   UNL     1      -0.937  12.499  21.351  0.00  0.00    +0.000 A 
ATOM      4  C   UNL     1      -1.527  12.217  22.582  0.00  0.00    +0.000 A 
ATOM      5  C   UNL     1      -1.332  10.968  23.192  0.00  0.00    +0.000 A 
ATOM      6  C   UNL     1      -0.559   9.984  22.569  0.00  0.00    +0.000 A 
ATOM      7  C   UNL     1       0.029  10.290  21.355  0.00  0.00    +0.000 A 
ATOM      8  N   UNL     1       0.852   9.496  20.545  0.00  0.00    +0.000 N 
ATOM      9  C   UNL     1       1.212   8.177  20.740  0.00  0.00    +0.000 A 
ATOM     10  O   UNL     1       0.894   7.485  21.700  0.00  0.00    +0.000 OA
ATOM     11  C   UNL     1       2.045   7.576  19.669  0.00  0.00    +0.000 A 
ATOM     12  C   UNL     1       2.495   6.254  19.811  0.00  0.00    +0.000 A 
ATOM     13  C   UNL     1       3.281   5.670  18.817  0.00  0.00    +0.000 A 
ATOM     14  C   UNL     1       3.622   6.398  17.678  0.00  0.00    +0.000 A 
ATOM     15  C   UNL     1       3.169   7.709  17.527  0.00  0.00    +0.000 A 
ATOM     16  C   UNL     1       2.372   8.297  18.521  0.00  0.00    +0.000 A 
ATOM     17  C   UNL     1       1.892   9.679  18.348  0.00  0.00    +0.000 A 
ATOM     18  O   UNL     1       2.112  10.296  17.300  0.00  0.00    +0.000 OA
ATOM     19  N   UNL     1       1.269  10.238  19.427  0.00  0.00    +0.000 N 
ENDROOT
BRANCH   1  21
ATOM     20  N   UNL     1       1.864  13.379  18.295  0.00  0.00    +0.000 N 
ATOM     21  C   UNL     1       1.708  12.679  19.461  0.00  0.00    +0.000 C 
ATOM     22  O   UNL     1       2.369  12.952  20.473  0.00  0.00    +0.000 OA
ATOM     23  H   UNL     1       1.539  12.966  17.421  0.00  0.00    +0.000 HD
BRANCH  20  24
ATOM     24  C   UNL     1       2.732  14.527  18.232  0.00  0.00    +0.000 C 
BRANCH  24  25
ATOM     25  C   UNL     1       1.976  15.862  18.333  0.00  0.00    +0.000 C 
BRANCH  25  27
ATOM     26  C   UNL     1       1.027  16.396  20.490  0.00  0.00    +0.000 C 
ATOM     27  N   UNL     1       0.770  15.777  19.185  0.00  0.00    +0.000 NA
ATOM     28  C   UNL     1      -0.378  16.443  18.556  0.00  0.00    +0.000 C 
ENDBRANCH  25  27
ENDBRANCH  24  25
ENDBRANCH  20  24
ENDBRANCH   1  21
BRANCH   3  29
ATOM     29  O   UNL     1      -1.165  13.722  20.802  0.00  0.00    +0.000 OA
ATOM     30  H   UNL     1      -0.672  14.399  21.306  0.00  0.00    +0.000 HD
ENDBRANCH   3  29
TORSDOF 5
ENDMDL
MODEL 6
REMARK VINA RESULT:      -6.8      8.298     11.399
REMARK  Name = 
REMARK  7 active torsions:
REMARK  status: ('A' for Active; 'I' for Inactive)
REMARK    1  A    between atoms: C_1  and  N_2
REMARK    2  A    between atoms: N_2  and  C_3
REMARK    3  A    between atoms: N_2  and  C_4
REMARK    4  A    between atoms: C_4  and  C_5
REMARK    5  A    between atoms: C_5  and  N_6
REMARK    6  A    between atoms: C_7  and  C_9
REMARK    7  A    between atoms: C_11  and  O_12
REMARK                            x       y       z     vdW  Elec       q    Type
REMARK                         _______ _______ _______ _____ _____    ______ ____
ROOT
ATOM      1  C   UNL     1       1.085  10.985  19.916  0.00  0.00    +0.000 C 
ATOM      2  C   UNL     1       0.211  11.044  21.138  0.00  0.00    +0.000 A 
ATOM      3  C   UNL     1      -0.328  10.038  21.918  0.00  0.00    +0.000 A 
ATOM      4  C   UNL     1      -1.152  10.378  22.989  0.00  0.00    +0.000 A 
ATOM      5  C   UNL     1      -1.413  11.726  23.282  0.00  0.00    +0.000 A 
ATOM      6  C   UNL     1      -0.837  12.745  22.518  0.00  0.00    +0.000 A 
ATOM      7  C   UNL     1      -0.034  12.385  21.452  0.00  0.00    +0.000 A 
ATOM      8  N   UNL     1       0.639  13.203  20.534  0.00  0.00    +0.000 N 
ATOM      9  C   UNL     1       0.715  14.583  20.528  0.00  0.00    +0.000 A 
ATOM     10  O   UNL     1       0.156  15.332  21.321  0.00  0.00    +0.000 OA
ATOM     11  C   UNL     1       1.564  15.172  19.463  0.00  0.00    +0.000 A 
ATOM     12  C   UNL     1       1.658  16.568  19.355  0.00  0.00    +0.000 A 
ATOM     13  C   UNL     1       2.449  17.143  18.359  0.00  0.00    +0.000 A 
ATOM     14  C   UNL     1       3.149  16.332  17.468  0.00  0.00    +0.000 A 
ATOM     15  C   UNL     1       3.067  14.943  17.577  0.00  0.00    +0.000 A 
ATOM     16  C   UNL     1       2.279  14.361  18.581  0.00  0.00    +0.000 A 
ATOM     17  C   UNL     1       2.206  12.894  18.693  0.00  0.00    +0.000 A 
ATOM     18  O   UNL     1       2.897  12.172  17.966  0.00  0.00    +0.000 OA
ATOM     19  N   UNL     1       1.290  12.404  19.580  0.00  0.00    +0.000 N 
ENDROOT
BRANCH   1  21
ATOM     20  N   UNL     1      -0.868  10.578  18.448  0.00  0.00    +0.000 N 
ATOM     21  C   UNL     1       0.421  10.232  18.755  0.00  0.00    +0.000 C 
ATOM     22  O   UNL     1       1.036   9.377  18.101  0.00  0.00    +0.000 OA
ATOM     23  H   UNL     1      -1.436  11.048  19.152  0.00  0.00    +0.000 HD
BRANCH  20  24
ATOM     24  C   UNL     1      -1.523  10.030  17.288  0.00  0.00    +0.000 C 
BRANCH  24  25
ATOM     25  C   UNL     1      -3.027   9.791  17.500  0.00  0.00    +0.000 C 
BRANCH  25  27
ATOM     26  C   UNL     1      -4.495  11.627  16.943  0.00  0.00    +0.000 C 
ATOM     27  N   UNL     1      -3.862  10.402  16.443  0.00  0.00    +0.000 NA
ATOM     28  C   UNL     1      -3.066  10.724  15.251  0.00  0.00    +0.000 C 
ENDBRANCH  25  27
ENDBRANCH  24  25
ENDBRANCH  20  24
ENDBRANCH   1  21
BRANCH   3  29
ATOM     29  O   UNL     1      -0.104   8.718  21.683  0.00  0.00    +0.000 OA
ATOM     30  H   UNL     1       0.842   8.583  21.472  0.00  0.00    +0.000 HD
ENDBRANCH   3  29
TORSDOF 5
ENDMDL
MODEL 7
REMARK VINA RESULT:      -6.7      9.616     11.827
REMARK  Name = 
REMARK  7 active torsions:
REMARK  status: ('A' for Active; 'I' for Inactive)
REMARK    1  A    between atoms: C_1  and  N_2
REMARK    2  A    between atoms: N_2  and  C_3
REMARK    3  A    between atoms: N_2  and  C_4
REMARK    4  A    between atoms: C_4  and  C_5
REMARK    5  A    between atoms: C_5  and  N_6
REMARK    6  A    between atoms: C_7  and  C_9
REMARK    7  A    between atoms: C_11  and  O_12
REMARK                            x       y       z     vdW  Elec       q    Type
REMARK                         _______ _______ _______ _____ _____    ______ ____
ROOT
ATOM      1  C   UNL     1      -1.258  12.957  21.246  0.00  0.00    +0.000 C 
ATOM      2  C   UNL     1      -2.318  13.357  22.235  0.00  0.00    +0.000 A 
ATOM      3  C   UNL     1      -2.218  13.917  23.494  0.00  0.00    +0.000 A 
ATOM      4  C   UNL     1      -3.382  14.152  24.225  0.00  0.00    +0.000 A 
ATOM      5  C   UNL     1      -4.637  13.843  23.679  0.00  0.00    +0.000 A 
ATOM      6  C   UNL     1      -4.741  13.312  22.389  0.00  0.00    +0.000 A 
ATOM      7  C   UNL     1      -3.574  13.075  21.687  0.00  0.00    +0.000 A 
ATOM      8  N   UNL     1      -3.407  12.541  20.402  0.00  0.00    +0.000 N 
ATOM      9  C   UNL     1      -4.391  12.191  19.496  0.00  0.00    +0.000 A 
ATOM     10  O   UNL     1      -5.598  12.256  19.695  0.00  0.00    +0.000 OA
ATOM     11  C   UNL     1      -3.906  11.714  18.178  0.00  0.00    +0.000 A 
ATOM     12  C   UNL     1      -4.837  11.294  17.216  0.00  0.00    +0.000 A 
ATOM     13  C   UNL     1      -4.403  10.838  15.970  0.00  0.00    +0.000 A 
ATOM     14  C   UNL     1      -3.041  10.799  15.677  0.00  0.00    +0.000 A 
ATOM     15  C   UNL     1      -2.110  11.225  16.626  0.00  0.00    +0.000 A 
ATOM     16  C   UNL     1      -2.544  11.691  17.876  0.00  0.00    +0.000 A 
ATOM     17  C   UNL     1      -1.554  12.147  18.868  0.00  0.00    +0.000 A 
ATOM     18  O   UNL     1      -0.354  12.203  18.580  0.00  0.00    +0.000 OA
ATOM     19  N   UNL     1      -2.036  12.422  20.116  0.00  0.00    +0.000 N 
ENDROOT
BRANCH   1  21
ATOM     20  N   UNL     1      -0.867  10.781  22.363  0.00  0.00    +0.000 N 
ATOM     21  C   UNL     1      -0.301  11.897  21.808  0.00  0.00    +0.000 C 
ATOM     22  O   UNL     1       0.930  12.029  21.729  0.00  0.00    +0.000 OA
ATOM     23  H   UNL     1      -1.836  10.821  22.677  0.00  0.00    +0.000 HD
BRANCH  20  24
ATOM     24  C   UNL     1      -0.051   9.672  22.786  0.00  0.00    +0.000 C 
BRANCH  24  25
ATOM     25  C   UNL     1      -0.008   8.529  21.758  0.00  0.00    +0.000 C 
BRANCH  25  27
ATOM     26  C   UNL     1       1.660   7.110  20.738  0.00  0.00    +0.000 C 
ATOM     27  N   UNL     1       1.252   8.497  20.984  0.00  0.00    +0.000 NA
ATOM     28  C   UNL     1       1.108   9.192  19.698  0.00  0.00    +0.000 C 
ENDBRANCH  25  27
ENDBRANCH  24  25
ENDBRANCH  20  24
ENDBRANCH   1  21
BRANCH   3  29
ATOM     29  O   UNL     1      -1.030  14.241  24.069  0.00  0.00    +0.000 OA
ATOM     30  H   UNL     1      -1.181  14.497  25.001  0.00  0.00    +0.000 HD
ENDBRANCH   3  29
TORSDOF 5
ENDMDL
MODEL 8
REMARK VINA RESULT:      -6.7      6.599      8.548
REMARK  Name = 
REMARK  7 active torsions:
REMARK  status: ('A' for Active; 'I' for Inactive)
REMARK    1  A    between atoms: C_1  and  N_2
REMARK    2  A    between atoms: N_2  and  C_3
REMARK    3  A    between atoms: N_2  and  C_4
REMARK    4  A    between atoms: C_4  and  C_5
REMARK    5  A    between atoms: C_5  and  N_6
REMARK    6  A    between atoms: C_7  and  C_9
REMARK    7  A    between atoms: C_11  and  O_12
REMARK                            x       y       z     vdW  Elec       q    Type
REMARK                         _______ _______ _______ _____ _____    ______ ____
ROOT
ATOM      1  C   UNL     1       0.602  11.770  19.511  0.00  0.00    +0.000 C 
ATOM      2  C   UNL     1      -0.205  11.755  20.779  0.00  0.00    +0.000 A 
ATOM      3  C   UNL     1      -0.995  12.728  21.363  0.00  0.00    +0.000 A 
ATOM      4  C   UNL     1      -1.609  12.459  22.585  0.00  0.00    +0.000 A 
ATOM      5  C   UNL     1      -1.444  11.209  23.201  0.00  0.00    +0.000 A 
ATOM      6  C   UNL     1      -0.677  10.211  22.593  0.00  0.00    +0.000 A 
ATOM      7  C   UNL     1      -0.066  10.503  21.388  0.00  0.00    +0.000 A 
ATOM      8  N   UNL     1       0.757   9.694  20.593  0.00  0.00    +0.000 N 
ATOM      9  C   UNL     1       1.093   8.369  20.798  0.00  0.00    +0.000 A 
ATOM     10  O   UNL     1       0.748   7.686  21.754  0.00  0.00    +0.000 OA
ATOM     11  C   UNL     1       1.932   7.752  19.742  0.00  0.00    +0.000 A 
ATOM     12  C   UNL     1       2.358   6.423  19.894  0.00  0.00    +0.000 A 
ATOM     13  C   UNL     1       3.151   5.823  18.914  0.00  0.00    +0.000 A 
ATOM     14  C   UNL     1       3.522   6.542  17.779  0.00  0.00    +0.000 A 
ATOM     15  C   UNL     1       3.093   7.861  17.618  0.00  0.00    +0.000 A 
ATOM     16  C   UNL     1       2.290   8.464  18.596  0.00  0.00    +0.000 A 
ATOM     17  C   UNL     1       1.835   9.854  18.413  0.00  0.00    +0.000 A 
ATOM     18  O   UNL     1       2.083  10.464  17.367  0.00  0.00    +0.000 OA
ATOM     19  N   UNL     1       1.205  10.426  19.480  0.00  0.00    +0.000 N 
ENDROOT
BRANCH   1  21
ATOM     20  N   UNL     1       1.874  13.548  18.348  0.00  0.00    +0.000 N 
ATOM     21  C   UNL     1       1.683  12.859  19.515  0.00  0.00    +0.000 C 
ATOM     22  O   UNL     1       2.328  13.129  20.539  0.00  0.00    +0.000 OA
ATOM     23  H   UNL     1       1.561  13.134  17.470  0.00  0.00    +0.000 HD
BRANCH  20  24
ATOM     24  C   UNL     1       2.763  14.681  18.295  0.00  0.00    +0.000 C 
BRANCH  24  25
ATOM     25  C   UNL     1       4.214  14.295  17.965  0.00  0.00    +0.000 C 
BRANCH  25  27
ATOM     26  C   UNL     1       6.521  15.012  18.027  0.00  0.00    +0.000 C 
ATOM     27  N   UNL     1       5.207  15.136  18.668  0.00  0.00    +0.000 NA
ATOM     28  C   UNL     1       4.806  16.549  18.672  0.00  0.00    +0.000 C 
ENDBRANCH  25  27
ENDBRANCH  24  25
ENDBRANCH  20  24
ENDBRANCH   1  21
BRANCH   3  29
ATOM     29  O   UNL     1      -1.194  13.953  20.807  0.00  0.00    +0.000 OA
ATOM     30  H   UNL     1      -2.107  14.248  20.996  0.00  0.00    +0.000 HD
ENDBRANCH   3  29
TORSDOF 5
ENDMDL
MODEL 9
REMARK VINA RESULT:      -6.5      6.822      8.753
REMARK  Name = 
REMARK  7 active torsions:
REMARK  status: ('A' for Active; 'I' for Inactive)
REMARK    1  A    between atoms: C_1  and  N_2
REMARK    2  A    between atoms: N_2  and  C_3
REMARK    3  A    between atoms: N_2  and  C_4
REMARK    4  A    between atoms: C_4  and  C_5
REMARK    5  A    between atoms: C_5  and  N_6
REMARK    6  A    between atoms: C_7  and  C_9
REMARK    7  A    between atoms: C_11  and  O_12
REMARK                            x       y       z     vdW  Elec       q    Type
REMARK                         _______ _______ _______ _____ _____    ______ ____
ROOT
ATOM      1  C   UNL     1       0.584  11.305  19.378  0.00  0.00    +0.000 C 
ATOM      2  C   UNL     1      -0.152  11.281  20.688  0.00  0.00    +0.000 A 
ATOM      3  C   UNL     1      -0.972  12.220  21.285  0.00  0.00    +0.000 A 
ATOM      4  C   UNL     1      -1.501  11.952  22.547  0.00  0.00    +0.000 A 
ATOM      5  C   UNL     1      -1.221  10.737  23.190  0.00  0.00    +0.000 A 
ATOM      6  C   UNL     1      -0.423   9.771  22.571  0.00  0.00    +0.000 A 
ATOM      7  C   UNL     1       0.103  10.062  21.325  0.00  0.00    +0.000 A 
ATOM      8  N   UNL     1       0.934   9.280  20.511  0.00  0.00    +0.000 N 
ATOM      9  C   UNL     1       1.367   7.988  20.736  0.00  0.00    +0.000 A 
ATOM     10  O   UNL     1       1.120   7.316  21.730  0.00  0.00    +0.000 OA
ATOM     11  C   UNL     1       2.188   7.391  19.655  0.00  0.00    +0.000 A 
ATOM     12  C   UNL     1       2.709   6.099  19.823  0.00  0.00    +0.000 A 
ATOM     13  C   UNL     1       3.486   5.519  18.819  0.00  0.00    +0.000 A 
ATOM     14  C   UNL     1       3.748   6.222  17.644  0.00  0.00    +0.000 A 
ATOM     15  C   UNL     1       3.225   7.504  17.467  0.00  0.00    +0.000 A 
ATOM     16  C   UNL     1       2.436   8.087  18.471  0.00  0.00    +0.000 A 
ATOM     17  C   UNL     1       1.882   9.437  18.271  0.00  0.00    +0.000 A 
ATOM     18  O   UNL     1       2.032  10.026  17.195  0.00  0.00    +0.000 OA
ATOM     19  N   UNL     1       1.272  10.003  19.354  0.00  0.00    +0.000 N 
ENDROOT
BRANCH   1  21
ATOM     20  N   UNL     1       2.005  13.014  20.471  0.00  0.00    +0.000 N 
ATOM     21  C   UNL     1       1.589  12.462  19.289  0.00  0.00    +0.000 C 
ATOM     22  O   UNL     1       2.032  12.854  18.200  0.00  0.00    +0.000 OA
ATOM     23  H   UNL     1       1.434  12.888  21.306  0.00  0.00    +0.000 HD
BRANCH  20  24
ATOM     24  C   UNL     1       3.051  14.005  20.495  0.00  0.00    +0.000 C 
BRANCH  24  25
ATOM     25  C   UNL     1       2.516  15.446  20.479  0.00  0.00    +0.000 C 
BRANCH  25  27
ATOM     26  C   UNL     1       1.123  15.920  22.397  0.00  0.00    +0.000 C 
ATOM     27  N   UNL     1       1.127  15.550  20.977  0.00  0.00    +0.000 NA
ATOM     28  C   UNL     1       0.360  16.548  20.219  0.00  0.00    +0.000 C 
ENDBRANCH  25  27
ENDBRANCH  24  25
ENDBRANCH  20  24
ENDBRANCH   1  21
BRANCH   3  29
ATOM     29  O   UNL     1      -1.281  13.409  20.705  0.00  0.00    +0.000 OA
ATOM     30  H   UNL     1      -2.202  13.379  20.378  0.00  0.00    +0.000 HD
ENDBRANCH   3  29
TORSDOF 5
ENDMDL
