MODEL 1
REMARK VINA RESULT:      -5.9      0.000      0.000
REMARK  Name = 
REMARK  6 active torsions:
REMARK  status: ('A' for Active; 'I' for Inactive)
REMARK    1  A    between atoms: C_2  and  O_3
REMARK    2  A    between atoms: C_2  and  C_4
REMARK    3  A    between atoms: C_10  and  C_12
REMARK    4  A    between atoms: C_12  and  C_13
REMARK    5  A    between atoms: C_13  and  C_14
REMARK    6  A    between atoms: C_14  and  S_15
REMARK                            x       y       z     vdW  Elec       q    Type
REMARK                         _______ _______ _______ _____ _____    ______ ____
ROOT
ATOM      1  C   UNL     1       3.347   3.037  19.749  0.00  0.00    +0.000 C 
ATOM      2  C   UNL     1       2.082   2.253  19.325  0.00  0.00    +0.000 C 
ATOM      3  C   UNL     1       0.913   3.148  18.945  0.00  0.00    +0.000 C 
ATOM      4  C   UNL     1       1.342   4.157  17.893  0.00  0.00    +0.000 C 
ATOM      5  C   UNL     1       2.552   4.942  18.364  0.00  0.00    +0.000 C 
ATOM      6  N   UNL     1       3.676   4.070  18.736  0.00  0.00    +0.000 N 
ATOM      7  C   UNL     1       4.996   4.519  18.635  0.00  0.00    +0.000 C 
ATOM      8  O   UNL     1       5.917   3.976  19.235  0.00  0.00    +0.000 OA
ENDROOT
BRANCH   1  10
ATOM      9  O   UNL     1       5.018   1.896  21.174  0.00  0.00    +0.000 OA
ATOM     10  C   UNL     1       4.395   1.958  20.119  0.00  0.00    +0.000 C 
BRANCH  10  11
ATOM     11  O   UNL     1       4.636   1.081  19.105  0.00  0.00    +0.000 OA
ATOM     12  H   UNL     1       4.126   1.333  18.307  0.00  0.00    +0.000 HD
ENDBRANCH  10  11
ENDBRANCH   1  10
BRANCH   7  13
ATOM     13  C   UNL     1       5.246   5.759  17.786  0.00  0.00    +0.000 C 
BRANCH  13  14
ATOM     14  C   UNL     1       5.237   5.468  16.282  0.00  0.00    +0.000 C 
BRANCH  14  15
ATOM     15  C   UNL     1       6.256   4.408  15.867  0.00  0.00    +0.000 C 
BRANCH  15  16
ATOM     16  S   UNL     1       6.237   4.047  14.085  0.00  0.00    +0.000 S 
ATOM     17  H   UNL     1       6.626   2.765  14.182  0.00  0.00    +0.000 HD
ENDBRANCH  15  16
ENDBRANCH  14  15
ENDBRANCH  13  14
ENDBRANCH   7  13
TORSDOF 6
ENDMDL
MODEL 2
REMARK VINA RESULT:      -5.8      1.357      1.357
REMARK  Name = 
REMARK  6 active torsions:
REMARK  status: ('A' for Active; 'I' for Inactive)
REMARK    1  A    between atoms: C_2  and  O_3
REMARK    2  A    between atoms: C_2  and  C_4
REMARK    3  A    between atoms: C_10  and  C_12
REMARK    4  A    between atoms: C_12  and  C_13
REMARK    5  A    between atoms: C_13  and  C_14
REMARK    6  A    between atoms: C_14  and  S_15
REMARK                            x       y       z     vdW  Elec       q    Type
REMARK                         _______ _______ _______ _____ _____    ______ ____
ROOT
ATOM      1  C   UNL     1       3.276   2.906  19.906  0.00  0.00    +0.000 C 
ATOM      2  C   UNL     1       2.047   2.049  19.525  0.00  0.00    +0.000 C 
ATOM      3  C   UNL     1       0.803   2.871  19.225  0.00  0.00    +0.000 C 
ATOM      4  C   UNL     1       1.111   3.930  18.180  0.00  0.00    +0.000 C 
ATOM      5  C   UNL     1       2.289   4.784  18.611  0.00  0.00    +0.000 C 
ATOM      6  N   UNL     1       3.485   3.981  18.905  0.00  0.00    +0.000 N 
ATOM      7  C   UNL     1       4.766   4.520  18.751  0.00  0.00    +0.000 C 
ATOM      8  O   UNL     1       5.750   4.028  19.292  0.00  0.00    +0.000 OA
ENDROOT
BRANCH   1  10
ATOM      9  O   UNL     1       5.067   1.828  21.232  0.00  0.00    +0.000 OA
ATOM     10  C   UNL     1       4.411   1.892  20.197  0.00  0.00    +0.000 C 
BRANCH  10  11
ATOM     11  O   UNL     1       4.687   1.084  19.136  0.00  0.00    +0.000 OA
ATOM     12  H   UNL     1       5.613   1.209  18.843  0.00  0.00    +0.000 HD
ENDBRANCH  10  11
ENDBRANCH   1  10
BRANCH   7  13
ATOM     13  C   UNL     1       4.890   5.793  17.923  0.00  0.00    +0.000 C 
BRANCH  13  14
ATOM     14  C   UNL     1       5.472   5.547  16.528  0.00  0.00    +0.000 C 
BRANCH  14  15
ATOM     15  C   UNL     1       6.965   5.859  16.434  0.00  0.00    +0.000 C 
BRANCH  15  16
ATOM     16  S   UNL     1       7.511   7.135  17.608  0.00  0.00    +0.000 S 
ATOM     17  H   UNL     1       6.494   6.996  18.473  0.00  0.00    +0.000 HD
ENDBRANCH  15  16
ENDBRANCH  14  15
ENDBRANCH  13  14
ENDBRANCH   7  13
TORSDOF 6
ENDMDL
MODEL 3
REMARK VINA RESULT:      -5.8      3.227      5.214
REMARK  Name = 
REMARK  6 active torsions:
REMARK  status: ('A' for Active; 'I' for Inactive)
REMARK    1  A    between atoms: C_2  and  O_3
REMARK    2  A    between atoms: C_2  and  C_4
REMARK    3  A    between atoms: C_10  and  C_12
REMARK    4  A    between atoms: C_12  and  C_13
REMARK    5  A    between atoms: C_13  and  C_14
REMARK    6  A    between atoms: C_14  and  S_15
REMARK                            x       y       z     vdW  Elec       q    Type
REMARK                         _______ _______ _______ _____ _____    ______ ____
ROOT
ATOM      1  C   UNL     1       6.805   4.882  17.527  0.00  0.00    +0.000 C 
ATOM      2  C   UNL     1       7.348   5.209  16.116  0.00  0.00    +0.000 C 
ATOM      3  C   UNL     1       6.723   4.366  15.016  0.00  0.00    +0.000 C 
ATOM      4  C   UNL     1       5.208   4.452  15.082  0.00  0.00    +0.000 C 
ATOM      5  C   UNL     1       4.708   4.074  16.465  0.00  0.00    +0.000 C 
ATOM      6  N   UNL     1       5.322   4.890  17.524  0.00  0.00    +0.000 N 
ATOM      7  C   UNL     1       4.645   5.134  18.723  0.00  0.00    +0.000 C 
ATOM      8  O   UNL     1       5.228   5.503  19.736  0.00  0.00    +0.000 OA
ENDROOT
BRANCH   1  10
ATOM      9  O   UNL     1       7.820   7.003  18.300  0.00  0.00    +0.000 OA
ATOM     10  C   UNL     1       7.579   5.815  18.492  0.00  0.00    +0.000 C 
BRANCH  10  11
ATOM     11  O   UNL     1       8.057   5.166  19.590  0.00  0.00    +0.000 OA
ATOM     12  H   UNL     1       7.318   4.800  20.119  0.00  0.00    +0.000 HD
ENDBRANCH  10  11
ENDBRANCH   1  10
BRANCH   7  13
ATOM     13  C   UNL     1       3.145   4.868  18.741  0.00  0.00    +0.000 C 
BRANCH  13  14
ATOM     14  C   UNL     1       2.527   5.018  20.134  0.00  0.00    +0.000 C 
BRANCH  14  15
ATOM     15  C   UNL     1       1.292   4.141  20.343  0.00  0.00    +0.000 C 
BRANCH  15  16
ATOM     16  S   UNL     1       1.580   2.744  21.469  0.00  0.00    +0.000 S 
ATOM     17  H   UNL     1       2.735   3.196  21.985  0.00  0.00    +0.000 HD
ENDBRANCH  15  16
ENDBRANCH  14  15
ENDBRANCH  13  14
ENDBRANCH   7  13
TORSDOF 6
ENDMDL
MODEL 4
REMARK VINA RESULT:      -5.8      2.153      2.449
REMARK  Name = 
REMARK  6 active torsions:
REMARK  status: ('A' for Active; 'I' for Inactive)
REMARK    1  A    between atoms: C_2  and  O_3
REMARK    2  A    between atoms: C_2  and  C_4
REMARK    3  A    between atoms: C_10  and  C_12
REMARK    4  A    between atoms: C_12  and  C_13
REMARK    5  A    between atoms: C_13  and  C_14
REMARK    6  A    between atoms: C_14  and  S_15
REMARK                            x       y       z     vdW  Elec       q    Type
REMARK                         _______ _______ _______ _____ _____    ______ ____
ROOT
ATOM      1  C   UNL     1       3.132   3.065  19.316  0.00  0.00    +0.000 C 
ATOM      2  C   UNL     1       1.850   2.941  20.171  0.00  0.00    +0.000 C 
ATOM      3  C   UNL     1       1.702   4.044  21.207  0.00  0.00    +0.000 C 
ATOM      4  C   UNL     1       1.821   5.407  20.546  0.00  0.00    +0.000 C 
ATOM      5  C   UNL     1       3.114   5.511  19.759  0.00  0.00    +0.000 C 
ATOM      6  N   UNL     1       3.252   4.437  18.764  0.00  0.00    +0.000 N 
ATOM      7  C   UNL     1       3.997   4.632  17.597  0.00  0.00    +0.000 C 
ATOM      8  O   UNL     1       4.416   3.695  16.926  0.00  0.00    +0.000 OA
ENDROOT
BRANCH   1  10
ATOM      9  O   UNL     1       3.928   0.936  18.337  0.00  0.00    +0.000 OA
ATOM     10  C   UNL     1       3.108   1.848  18.358  0.00  0.00    +0.000 C 
BRANCH  10  11
ATOM     11  O   UNL     1       2.096   1.908  17.447  0.00  0.00    +0.000 OA
ATOM     12  H   UNL     1       2.368   1.483  16.608  0.00  0.00    +0.000 HD
ENDBRANCH  10  11
ENDBRANCH   1  10
BRANCH   7  13
ATOM     13  C   UNL     1       4.325   6.070  17.214  0.00  0.00    +0.000 C 
BRANCH  13  14
ATOM     14  C   UNL     1       5.657   6.205  16.471  0.00  0.00    +0.000 C 
BRANCH  14  15
ATOM     15  C   UNL     1       6.732   6.925  17.285  0.00  0.00    +0.000 C 
BRANCH  15  16
ATOM     16  S   UNL     1       7.484   5.881  18.569  0.00  0.00    +0.000 S 
ATOM     17  H   UNL     1       8.443   6.748  18.933  0.00  0.00    +0.000 HD
ENDBRANCH  15  16
ENDBRANCH  14  15
ENDBRANCH  13  14
ENDBRANCH   7  13
TORSDOF 6
ENDMDL
MODEL 5
REMARK VINA RESULT:      -5.8      2.729      3.940
REMARK  Name = 
REMARK  6 active torsions:
REMARK  status: ('A' for Active; 'I' for Inactive)
REMARK    1  A    between atoms: C_2  and  O_3
REMARK    2  A    between atoms: C_2  and  C_4
REMARK    3  A    between atoms: C_10  and  C_12
REMARK    4  A    between atoms: C_12  and  C_13
REMARK    5  A    between atoms: C_13  and  C_14
REMARK    6  A    between atoms: C_14  and  S_15
REMARK                            x       y       z     vdW  Elec       q    Type
REMARK                         _______ _______ _______ _____ _____    ______ ____
ROOT
ATOM      1  C   UNL     1       5.943   5.620  18.116  0.00  0.00    +0.000 C 
ATOM      2  C   UNL     1       5.199   5.213  19.410  0.00  0.00    +0.000 C 
ATOM      3  C   UNL     1       3.716   4.951  19.200  0.00  0.00    +0.000 C 
ATOM      4  C   UNL     1       3.512   3.944  18.080  0.00  0.00    +0.000 C 
ATOM      5  C   UNL     1       4.211   4.401  16.813  0.00  0.00    +0.000 C 
ATOM      6  N   UNL     1       5.644   4.659  17.026  0.00  0.00    +0.000 N 
ATOM      7  C   UNL     1       6.560   4.518  15.980  0.00  0.00    +0.000 C 
ATOM      8  O   UNL     1       7.671   5.035  16.013  0.00  0.00    +0.000 OA
ENDROOT
BRANCH   1  10
ATOM      9  O   UNL     1       8.075   5.139  19.276  0.00  0.00    +0.000 OA
ATOM     10  C   UNL     1       7.410   5.867  18.545  0.00  0.00    +0.000 C 
BRANCH  10  11
ATOM     11  O   UNL     1       7.908   7.048  18.085  0.00  0.00    +0.000 OA
ATOM     12  H   UNL     1       7.261   7.484  17.494  0.00  0.00    +0.000 HD
ENDBRANCH  10  11
ENDBRANCH   1  10
BRANCH   7  13
ATOM     13  C   UNL     1       6.102   3.737  14.754  0.00  0.00    +0.000 C 
BRANCH  13  14
ATOM     14  C   UNL     1       6.612   4.332  13.439  0.00  0.00    +0.000 C 
BRANCH  14  15
ATOM     15  C   UNL     1       6.422   3.401  12.242  0.00  0.00    +0.000 C 
BRANCH  15  16
ATOM     16  S   UNL     1       4.683   3.208  11.746  0.00  0.00    +0.000 S 
ATOM     17  H   UNL     1       4.156   3.942  12.739  0.00  0.00    +0.000 HD
ENDBRANCH  15  16
ENDBRANCH  14  15
ENDBRANCH  13  14
ENDBRANCH   7  13
TORSDOF 6
ENDMDL
MODEL 6
REMARK VINA RESULT:      -5.8      1.799      1.984
REMARK  Name = 
REMARK  6 active torsions:
REMARK  status: ('A' for Active; 'I' for Inactive)
REMARK    1  A    between atoms: C_2  and  O_3
REMARK    2  A    between atoms: C_2  and  C_4
REMARK    3  A    between atoms: C_10  and  C_12
REMARK    4  A    between atoms: C_12  and  C_13
REMARK    5  A    between atoms: C_13  and  C_14
REMARK    6  A    between atoms: C_14  and  S_15
REMARK                            x       y       z     vdW  Elec       q    Type
REMARK                         _______ _______ _______ _____ _____    ______ ____
ROOT
ATOM      1  C   UNL     1       3.397   2.775  20.220  0.00  0.00    +0.000 C 
ATOM      2  C   UNL     1       1.934   2.273  20.272  0.00  0.00    +0.000 C 
ATOM      3  C   UNL     1       0.987   3.235  20.972  0.00  0.00    +0.000 C 
ATOM      4  C   UNL     1       1.097   4.622  20.360  0.00  0.00    +0.000 C 
ATOM      5  C   UNL     1       2.536   5.103  20.374  0.00  0.00    +0.000 C 
ATOM      6  N   UNL     1       3.447   4.164  19.700  0.00  0.00    +0.000 N 
ATOM      7  C   UNL     1       4.623   4.616  19.096  0.00  0.00    +0.000 C 
ATOM      8  O   UNL     1       5.553   3.861  18.833  0.00  0.00    +0.000 OA
ENDROOT
BRANCH   1  10
ATOM      9  O   UNL     1       3.844   1.071  18.482  0.00  0.00    +0.000 OA
ATOM     10  C   UNL     1       4.191   1.655  19.504  0.00  0.00    +0.000 C 
BRANCH  10  11
ATOM     11  O   UNL     1       5.326   1.299  20.169  0.00  0.00    +0.000 OA
ATOM     12  H   UNL     1       5.534   1.957  20.864  0.00  0.00    +0.000 HD
ENDBRANCH  10  11
ENDBRANCH   1  10
BRANCH   7  13
ATOM     13  C   UNL     1       4.735   6.111  18.823  0.00  0.00    +0.000 C 
BRANCH  13  14
ATOM     14  C   UNL     1       4.445   6.478  17.365  0.00  0.00    +0.000 C 
BRANCH  14  15
ATOM     15  C   UNL     1       5.704   6.570  16.504  0.00  0.00    +0.000 C 
BRANCH  15  16
ATOM     16  S   UNL     1       7.213   6.895  17.465  0.00  0.00    +0.000 S 
ATOM     17  H   UNL     1       8.085   6.642  16.476  0.00  0.00    +0.000 HD
ENDBRANCH  15  16
ENDBRANCH  14  15
ENDBRANCH  13  14
ENDBRANCH   7  13
TORSDOF 6
ENDMDL
MODEL 7
REMARK VINA RESULT:      -5.7      3.385      4.107
REMARK  Name = 
REMARK  6 active torsions:
REMARK  status: ('A' for Active; 'I' for Inactive)
REMARK    1  A    between atoms: C_2  and  O_3
REMARK    2  A    between atoms: C_2  and  C_4
REMARK    3  A    between atoms: C_10  and  C_12
REMARK    4  A    between atoms: C_12  and  C_13
REMARK    5  A    between atoms: C_13  and  C_14
REMARK    6  A    between atoms: C_14  and  S_15
REMARK                            x       y       z     vdW  Elec       q    Type
REMARK                         _______ _______ _______ _____ _____    ______ ____
ROOT
ATOM      1  C   UNL     1       3.718   3.893  19.506  0.00  0.00    +0.000 C 
ATOM      2  C   UNL     1       2.922   2.577  19.676  0.00  0.00    +0.000 C 
ATOM      3  C   UNL     1       1.925   2.616  20.824  0.00  0.00    +0.000 C 
ATOM      4  C   UNL     1       1.014   3.824  20.690  0.00  0.00    +0.000 C 
ATOM      5  C   UNL     1       1.827   5.100  20.578  0.00  0.00    +0.000 C 
ATOM      6  N   UNL     1       2.794   5.053  19.470  0.00  0.00    +0.000 N 
ATOM      7  C   UNL     1       3.207   6.224  18.828  0.00  0.00    +0.000 C 
ATOM      8  O   UNL     1       4.231   6.273  18.156  0.00  0.00    +0.000 OA
ENDROOT
BRANCH   1  10
ATOM      9  O   UNL     1       4.365   3.217  17.215  0.00  0.00    +0.000 OA
ATOM     10  C   UNL     1       4.684   3.639  18.323  0.00  0.00    +0.000 C 
BRANCH  10  11
ATOM     11  O   UNL     1       5.989   3.862  18.643  0.00  0.00    +0.000 OA
ATOM     12  H   UNL     1       6.534   3.924  17.832  0.00  0.00    +0.000 HD
ENDBRANCH  10  11
ENDBRANCH   1  10
BRANCH   7  13
ATOM     13  C   UNL     1       2.357   7.471  19.043  0.00  0.00    +0.000 C 
BRANCH  13  14
ATOM     14  C   UNL     1       2.439   8.461  17.878  0.00  0.00    +0.000 C 
BRANCH  14  15
ATOM     15  C   UNL     1       1.360   9.542  17.928  0.00  0.00    +0.000 C 
BRANCH  15  16
ATOM     16  S   UNL     1       0.762   9.886  19.610  0.00  0.00    +0.000 S 
ATOM     17  H   UNL     1       1.772  10.692  19.973  0.00  0.00    +0.000 HD
ENDBRANCH  15  16
ENDBRANCH  14  15
ENDBRANCH  13  14
ENDBRANCH   7  13
TORSDOF 6
ENDMDL
MODEL 8
REMARK VINA RESULT:      -5.7      4.031      5.153
REMARK  Name = 
REMARK  6 active torsions:
REMARK  status: ('A' for Active; 'I' for Inactive)
REMARK    1  A    between atoms: C_2  and  O_3
REMARK    2  A    between atoms: C_2  and  C_4
REMARK    3  A    between atoms: C_10  and  C_12
REMARK    4  A    between atoms: C_12  and  C_13
REMARK    5  A    between atoms: C_13  and  C_14
REMARK    6  A    between atoms: C_14  and  S_15
REMARK                            x       y       z     vdW  Elec       q    Type
REMARK                         _______ _______ _______ _____ _____    ______ ____
ROOT
ATOM      1  C   UNL     1       5.930   4.517  16.733  0.00  0.00    +0.000 C 
ATOM      2  C   UNL     1       4.479   4.077  17.039  0.00  0.00    +0.000 C 
ATOM      3  C   UNL     1       4.239   3.756  18.506  0.00  0.00    +0.000 C 
ATOM      4  C   UNL     1       4.683   4.918  19.380  0.00  0.00    +0.000 C 
ATOM      5  C   UNL     1       6.126   5.287  19.088  0.00  0.00    +0.000 C 
ATOM      6  N   UNL     1       6.351   5.590  17.667  0.00  0.00    +0.000 N 
ATOM      7  C   UNL     1       7.366   6.468  17.273  0.00  0.00    +0.000 C 
ATOM      8  O   UNL     1       7.803   6.486  16.128  0.00  0.00    +0.000 OA
ENDROOT
BRANCH   1  10
ATOM      9  O   UNL     1       6.494   4.029  14.373  0.00  0.00    +0.000 OA
ATOM     10  C   UNL     1       5.971   4.764  15.205  0.00  0.00    +0.000 C 
BRANCH  10  11
ATOM     11  O   UNL     1       5.416   5.955  14.844  0.00  0.00    +0.000 OA
ATOM     12  H   UNL     1       5.792   6.262  13.993  0.00  0.00    +0.000 HD
ENDBRANCH  10  11
ENDBRANCH   1  10
BRANCH   7  13
ATOM     13  C   UNL     1       7.957   7.374  18.345  0.00  0.00    +0.000 C 
BRANCH  13  14
ATOM     14  C   UNL     1       8.145   8.818  17.874  0.00  0.00    +0.000 C 
BRANCH  14  15
ATOM     15  C   UNL     1       8.923   9.681  18.868  0.00  0.00    +0.000 C 
BRANCH  15  16
ATOM     16  S   UNL     1       9.492  11.257  18.164  0.00  0.00    +0.000 S 
ATOM     17  H   UNL     1       9.491  10.864  16.880  0.00  0.00    +0.000 HD
ENDBRANCH  15  16
ENDBRANCH  14  15
ENDBRANCH  13  14
ENDBRANCH   7  13
TORSDOF 6
ENDMDL
MODEL 9
REMARK VINA RESULT:      -5.7      1.166      1.403
REMARK  Name = 
REMARK  6 active torsions:
REMARK  status: ('A' for Active; 'I' for Inactive)
REMARK    1  A    between atoms: C_2  and  O_3
REMARK    2  A    between atoms: C_2  and  C_4
REMARK    3  A    between atoms: C_10  and  C_12
REMARK    4  A    between atoms: C_12  and  C_13
REMARK    5  A    between atoms: C_13  and  C_14
REMARK    6  A    between atoms: C_14  and  S_15
REMARK                            x       y       z     vdW  Elec       q    Type
REMARK                         _______ _______ _______ _____ _____    ______ ____
ROOT
ATOM      1  C   UNL     1       3.497   2.984  20.099  0.00  0.00    +0.000 C 
ATOM      2  C   UNL     1       2.000   2.604  20.194  0.00  0.00    +0.000 C 
ATOM      3  C   UNL     1       1.128   3.713  20.760  0.00  0.00    +0.000 C 
ATOM      4  C   UNL     1       1.344   5.002  19.985  0.00  0.00    +0.000 C 
ATOM      5  C   UNL     1       2.816   5.371  19.958  0.00  0.00    +0.000 C 
ATOM      6  N   UNL     1       3.655   4.291  19.415  0.00  0.00    +0.000 N 
ATOM      7  C   UNL     1       4.864   4.576  18.774  0.00  0.00    +0.000 C 
ATOM      8  O   UNL     1       5.734   3.726  18.617  0.00  0.00    +0.000 OA
ENDROOT
BRANCH   1  10
ATOM      9  O   UNL     1       3.815   1.048  18.591  0.00  0.00    +0.000 OA
ATOM     10  C   UNL     1       4.205   1.728  19.535  0.00  0.00    +0.000 C 
BRANCH  10  11
ATOM     11  O   UNL     1       5.312   1.375  20.247  0.00  0.00    +0.000 OA
ATOM     12  H   UNL     1       6.117   1.475  19.698  0.00  0.00    +0.000 HD
ENDBRANCH  10  11
ENDBRANCH   1  10
BRANCH   7  13
ATOM     13  C   UNL     1       5.090   6.013  18.323  0.00  0.00    +0.000 C 
BRANCH  13  14
ATOM     14  C   UNL     1       5.180   6.158  16.801  0.00  0.00    +0.000 C 
BRANCH  14  15
ATOM     15  C   UNL     1       6.579   5.883  16.251  0.00  0.00    +0.000 C 
BRANCH  15  16
ATOM     16  S   UNL     1       6.618   4.558  15.007  0.00  0.00    +0.000 S 
ATOM     17  H   UNL     1       5.737   5.113  14.161  0.00  0.00    +0.000 HD
ENDBRANCH  15  16
ENDBRANCH  14  15
ENDBRANCH  13  14
ENDBRANCH   7  13
TORSDOF 6
ENDMDL
