MODEL 1
REMARK VINA RESULT:      -7.9      0.000      0.000
REMARK  Name = 
REMARK  6 active torsions:
REMARK  status: ('A' for Active; 'I' for Inactive)
REMARK    1  A    between atoms: C_1  and  C_2
REMARK    2  A    between atoms: N_4  and  C_5
REMARK    3  A    between atoms: C_5  and  C_6
REMARK    4  A    between atoms: C_6  and  C_7
REMARK    5  A    between atoms: C_7  and  N_8
REMARK    6  A    between atoms: N_20  and  C_21
REMARK                            x       y       z     vdW  Elec       q    Type
REMARK                         _______ _______ _______ _____ _____    ______ ____
ROOT
ATOM      1  C   UNL     1       2.434   2.112  17.600  0.00  0.00    +0.000 C 
ATOM      2  C   UNL     1       2.898   3.548  17.344  0.00  0.00    +0.000 C 
ATOM      3  C   UNL     1       2.013   4.577  18.090  0.00  0.00    +0.000 C 
ATOM      4  N   UNL     1       2.137   4.497  19.564  0.00  0.00    +0.000 NA
ATOM      5  C   UNL     1       3.558   4.741  19.915  0.00  0.00    +0.000 C 
ATOM      6  C   UNL     1       4.539   3.769  19.206  0.00  0.00    +0.000 C 
ATOM      7  N   UNL     1       4.313   3.710  17.748  0.00  0.00    +0.000 N 
ENDROOT
BRANCH   7   8
ATOM      8  C   UNL     1       5.247   4.117  16.809  0.00  0.00    +0.000 A 
ATOM      9  C   UNL     1       6.341   4.934  17.127  0.00  0.00    +0.000 A 
ATOM     10  C   UNL     1       7.272   5.338  16.161  0.00  0.00    +0.000 A 
ATOM     11  C   UNL     1       7.130   4.927  14.838  0.00  0.00    +0.000 A 
ATOM     12  C   UNL     1       6.060   4.111  14.497  0.00  0.00    +0.000 A 
ATOM     13 CL   UNL     1       5.866   3.591  12.866  0.00  0.00    +0.000 Cl
ATOM     14  C   UNL     1       5.139   3.707  15.466  0.00  0.00    +0.000 A 
ENDBRANCH   7   8
BRANCH   4  15
ATOM     15  C   UNL     1       1.231   5.433  20.251  0.00  0.00    +0.000 C 
BRANCH  15  16
ATOM     16  C   UNL     1       1.990   6.663  20.773  0.00  0.00    +0.000 C 
BRANCH  16  17
ATOM     17  C   UNL     1       1.883   7.874  19.854  0.00  0.00    +0.000 C 
BRANCH  17  18
ATOM     18  N   UNL     1       1.110   8.925  20.484  0.00  0.00    +0.000 N 
ATOM     19  N   UNL     1       0.767   8.890  21.824  0.00  0.00    +0.000 NA
ATOM     20  C   UNL     1      -0.058   9.884  21.952  0.00  0.00    +0.000 A 
ATOM     21  C   UNL     1      -0.736  10.339  23.185  0.00  0.00    +0.000 A 
ATOM     22  C   UNL     1      -1.558  11.399  23.096  0.00  0.00    +0.000 A 
ATOM     23  C   UNL     1      -1.785  12.075  21.830  0.00  0.00    +0.000 A 
ATOM     24  C   UNL     1      -1.168  11.640  20.719  0.00  0.00    +0.000 A 
ATOM     25  N   UNL     1      -0.321  10.569  20.809  0.00  0.00    +0.000 N 
ATOM     26  C   UNL     1       0.399   9.943  19.818  0.00  0.00    +0.000 A 
ATOM     27  O   UNL     1       0.405  10.189  18.621  0.00  0.00    +0.000 OA
ENDBRANCH  17  18
ENDBRANCH  16  17
ENDBRANCH  15  16
ENDBRANCH   4  15
TORSDOF 5
ENDMDL
MODEL 2
REMARK VINA RESULT:      -7.8      6.240      8.402
REMARK  Name = 
REMARK  6 active torsions:
REMARK  status: ('A' for Active; 'I' for Inactive)
REMARK    1  A    between atoms: C_1  and  C_2
REMARK    2  A    between atoms: N_4  and  C_5
REMARK    3  A    between atoms: C_5  and  C_6
REMARK    4  A    between atoms: C_6  and  C_7
REMARK    5  A    between atoms: C_7  and  N_8
REMARK    6  A    between atoms: N_20  and  C_21
REMARK                            x       y       z     vdW  Elec       q    Type
REMARK                         _______ _______ _______ _____ _____    ______ ____
ROOT
ATOM      1  C   UNL     1       6.407   4.816  15.234  0.00  0.00    +0.000 C 
ATOM      2  C   UNL     1       6.096   4.671  16.726  0.00  0.00    +0.000 C 
ATOM      3  C   UNL     1       7.155   5.383  17.604  0.00  0.00    +0.000 C 
ATOM      4  N   UNL     1       7.146   6.857  17.454  0.00  0.00    +0.000 NA
ATOM      5  C   UNL     1       5.798   7.345  17.837  0.00  0.00    +0.000 C 
ATOM      6  C   UNL     1       4.654   6.681  17.024  0.00  0.00    +0.000 C 
ATOM      7  N   UNL     1       4.749   5.207  17.024  0.00  0.00    +0.000 N 
ENDROOT
BRANCH   7   8
ATOM      8  C   UNL     1       3.794   4.376  17.586  0.00  0.00    +0.000 A 
ATOM      9  C   UNL     1       3.591   3.054  17.164  0.00  0.00    +0.000 A 
ATOM     10  C   UNL     1       2.616   2.231  17.743  0.00  0.00    +0.000 A 
ATOM     11  C   UNL     1       1.812   2.716  18.772  0.00  0.00    +0.000 A 
ATOM     12  C   UNL     1       1.997   4.018  19.214  0.00  0.00    +0.000 A 
ATOM     13 CL   UNL     1       1.013   4.639  20.485  0.00  0.00    +0.000 Cl
ATOM     14  C   UNL     1       2.975   4.831  18.636  0.00  0.00    +0.000 A 
ENDBRANCH   7   8
BRANCH   4  15
ATOM     15  C   UNL     1       8.210   7.503  18.241  0.00  0.00    +0.000 C 
BRANCH  15  16
ATOM     16  C   UNL     1       8.231   9.022  18.008  0.00  0.00    +0.000 C 
BRANCH  16  17
ATOM     17  C   UNL     1       8.897   9.797  19.139  0.00  0.00    +0.000 C 
BRANCH  17  18
ATOM     18  N   UNL     1       9.601  10.952  18.621  0.00  0.00    +0.000 N 
ATOM     19  N   UNL     1      10.901  11.252  18.988  0.00  0.00    +0.000 NA
ATOM     20  C   UNL     1      11.099  12.426  18.473  0.00  0.00    +0.000 A 
ATOM     21  C   UNL     1      12.333  13.239  18.531  0.00  0.00    +0.000 A 
ATOM     22  C   UNL     1      12.325  14.439  17.923  0.00  0.00    +0.000 A 
ATOM     23  C   UNL     1      11.141  14.931  17.238  0.00  0.00    +0.000 A 
ATOM     24  C   UNL     1      10.028  14.181  17.205  0.00  0.00    +0.000 A 
ATOM     25  N   UNL     1      10.037  12.954  17.811  0.00  0.00    +0.000 N 
ATOM     26  C   UNL     1       9.024  12.030  17.921  0.00  0.00    +0.000 A 
ATOM     27  O   UNL     1       7.871  12.125  17.530  0.00  0.00    +0.000 OA
ENDBRANCH  17  18
ENDBRANCH  16  17
ENDBRANCH  15  16
ENDBRANCH   4  15
TORSDOF 5
ENDMDL
MODEL 3
REMARK VINA RESULT:      -7.8      1.175      1.739
REMARK  Name = 
REMARK  6 active torsions:
REMARK  status: ('A' for Active; 'I' for Inactive)
REMARK    1  A    between atoms: C_1  and  C_2
REMARK    2  A    between atoms: N_4  and  C_5
REMARK    3  A    between atoms: C_5  and  C_6
REMARK    4  A    between atoms: C_6  and  C_7
REMARK    5  A    between atoms: C_7  and  N_8
REMARK    6  A    between atoms: N_20  and  C_21
REMARK                            x       y       z     vdW  Elec       q    Type
REMARK                         _______ _______ _______ _____ _____    ______ ____
ROOT
ATOM      1  C   UNL     1       2.369   2.415  17.694  0.00  0.00    +0.000 C 
ATOM      2  C   UNL     1       2.913   3.819  17.422  0.00  0.00    +0.000 C 
ATOM      3  C   UNL     1       2.119   4.901  18.198  0.00  0.00    +0.000 C 
ATOM      4  N   UNL     1       2.287   4.810  19.667  0.00  0.00    +0.000 NA
ATOM      5  C   UNL     1       3.732   4.965  19.970  0.00  0.00    +0.000 C 
ATOM      6  C   UNL     1       4.626   3.935  19.228  0.00  0.00    +0.000 C 
ATOM      7  N   UNL     1       4.348   3.893  17.778  0.00  0.00    +0.000 N 
ENDROOT
BRANCH   7   8
ATOM      8  C   UNL     1       5.273   4.242  16.808  0.00  0.00    +0.000 A 
ATOM      9  C   UNL     1       6.396   5.037  17.078  0.00  0.00    +0.000 A 
ATOM     10  C   UNL     1       7.318   5.383  16.081  0.00  0.00    +0.000 A 
ATOM     11  C   UNL     1       7.136   4.935  14.774  0.00  0.00    +0.000 A 
ATOM     12  C   UNL     1       6.036   4.141  14.481  0.00  0.00    +0.000 A 
ATOM     13 CL   UNL     1       5.791   3.577  12.872  0.00  0.00    +0.000 Cl
ATOM     14  C   UNL     1       5.125   3.795  15.481  0.00  0.00    +0.000 A 
ENDBRANCH   7   8
BRANCH   4  15
ATOM     15  C   UNL     1       1.465   5.799  20.384  0.00  0.00    +0.000 C 
BRANCH  15  16
ATOM     16  C   UNL     1       1.974   7.229  20.141  0.00  0.00    +0.000 C 
BRANCH  16  17
ATOM     17  C   UNL     1       1.695   8.174  21.304  0.00  0.00    +0.000 C 
BRANCH  17  18
ATOM     18  N   UNL     1       0.679   9.141  20.943  0.00  0.00    +0.000 N 
ATOM     19  N   UNL     1       0.353   9.416  19.626  0.00  0.00    +0.000 NA
ATOM     20  C   UNL     1      -0.440  10.439  19.717  0.00  0.00    +0.000 A 
ATOM     21  C   UNL     1      -1.117  11.155  18.614  0.00  0.00    +0.000 A 
ATOM     22  C   UNL     1      -1.904  12.199  18.931  0.00  0.00    +0.000 A 
ATOM     23  C   UNL     1      -2.079  12.620  20.310  0.00  0.00    +0.000 A 
ATOM     24  C   UNL     1      -1.448  11.963  21.297  0.00  0.00    +0.000 A 
ATOM     25  N   UNL     1      -0.657  10.893  20.979  0.00  0.00    +0.000 N 
ATOM     26  C   UNL     1       0.092  10.088  21.805  0.00  0.00    +0.000 A 
ATOM     27  O   UNL     1       0.245  10.183  23.014  0.00  0.00    +0.000 OA
ENDBRANCH  17  18
ENDBRANCH  16  17
ENDBRANCH  15  16
ENDBRANCH   4  15
TORSDOF 5
ENDMDL
MODEL 4
REMARK VINA RESULT:      -7.7      3.485      8.095
REMARK  Name = 
REMARK  6 active torsions:
REMARK  status: ('A' for Active; 'I' for Inactive)
REMARK    1  A    between atoms: C_1  and  C_2
REMARK    2  A    between atoms: N_4  and  C_5
REMARK    3  A    between atoms: C_5  and  C_6
REMARK    4  A    between atoms: C_6  and  C_7
REMARK    5  A    between atoms: C_7  and  N_8
REMARK    6  A    between atoms: N_20  and  C_21
REMARK                            x       y       z     vdW  Elec       q    Type
REMARK                         _______ _______ _______ _____ _____    ______ ____
ROOT
ATOM      1  C   UNL     1       3.727   7.455  17.898  0.00  0.00    +0.000 C 
ATOM      2  C   UNL     1       2.232   7.414  18.222  0.00  0.00    +0.000 C 
ATOM      3  C   UNL     1       1.617   6.026  17.912  0.00  0.00    +0.000 C 
ATOM      4  N   UNL     1       2.127   4.948  18.790  0.00  0.00    +0.000 NA
ATOM      5  C   UNL     1       1.806   5.314  20.192  0.00  0.00    +0.000 C 
ATOM      6  C   UNL     1       2.365   6.702  20.606  0.00  0.00    +0.000 C 
ATOM      7  N   UNL     1       2.004   7.761  19.643  0.00  0.00    +0.000 N 
ENDROOT
BRANCH   7   8
ATOM      8  C   UNL     1       1.203   8.846  19.959  0.00  0.00    +0.000 A 
ATOM      9  C   UNL     1       0.887   9.854  19.036  0.00  0.00    +0.000 A 
ATOM     10  C   UNL     1       0.078  10.945  19.377  0.00  0.00    +0.000 A 
ATOM     11  C   UNL     1      -0.442  11.055  20.665  0.00  0.00    +0.000 A 
ATOM     12  C   UNL     1      -0.152  10.068  21.596  0.00  0.00    +0.000 A 
ATOM     13 CL   UNL     1      -0.785  10.185  23.194  0.00  0.00    +0.000 Cl
ATOM     14  C   UNL     1       0.651   8.979  21.247  0.00  0.00    +0.000 A 
ENDBRANCH   7   8
BRANCH   4  15
ATOM     15  C   UNL     1       1.584   3.629  18.426  0.00  0.00    +0.000 C 
BRANCH  15  16
ATOM     16  C   UNL     1       2.489   2.914  17.410  0.00  0.00    +0.000 C 
BRANCH  16  17
ATOM     17  C   UNL     1       3.766   2.356  18.027  0.00  0.00    +0.000 C 
BRANCH  17  18
ATOM     18  N   UNL     1       4.834   3.332  17.959  0.00  0.00    +0.000 N 
ATOM     19  N   UNL     1       5.481   3.801  19.089  0.00  0.00    +0.000 NA
ATOM     20  C   UNL     1       6.218   4.769  18.637  0.00  0.00    +0.000 A 
ATOM     21  C   UNL     1       7.147   5.627  19.403  0.00  0.00    +0.000 A 
ATOM     22  C   UNL     1       7.821   6.580  18.734  0.00  0.00    +0.000 A 
ATOM     23  C   UNL     1       7.638   6.771  17.305  0.00  0.00    +0.000 A 
ATOM     24  C   UNL     1       6.782   5.987  16.629  0.00  0.00    +0.000 A 
ATOM     25  N   UNL     1       6.105   5.009  17.305  0.00  0.00    +0.000 N 
ATOM     26  C   UNL     1       5.177   4.109  16.835  0.00  0.00    +0.000 A 
ATOM     27  O   UNL     1       4.722   4.017  15.705  0.00  0.00    +0.000 OA
ENDBRANCH  17  18
ENDBRANCH  16  17
ENDBRANCH  15  16
ENDBRANCH   4  15
TORSDOF 5
ENDMDL
MODEL 5
REMARK VINA RESULT:      -7.6      3.500      9.164
REMARK  Name = 
REMARK  6 active torsions:
REMARK  status: ('A' for Active; 'I' for Inactive)
REMARK    1  A    between atoms: C_1  and  C_2
REMARK    2  A    between atoms: N_4  and  C_5
REMARK    3  A    between atoms: C_5  and  C_6
REMARK    4  A    between atoms: C_6  and  C_7
REMARK    5  A    between atoms: C_7  and  N_8
REMARK    6  A    between atoms: N_20  and  C_21
REMARK                            x       y       z     vdW  Elec       q    Type
REMARK                         _______ _______ _______ _____ _____    ______ ____
ROOT
ATOM      1  C   UNL     1       1.272  12.101  18.903  0.00  0.00    +0.000 C 
ATOM      2  C   UNL     1       0.343  10.939  18.542  0.00  0.00    +0.000 C 
ATOM      3  C   UNL     1       0.937   9.575  18.976  0.00  0.00    +0.000 C 
ATOM      4  N   UNL     1       1.031   9.418  20.446  0.00  0.00    +0.000 NA
ATOM      5  C   UNL     1      -0.337   9.546  21.006  0.00  0.00    +0.000 C 
ATOM      6  C   UNL     1      -1.034  10.878  20.618  0.00  0.00    +0.000 C 
ATOM      7  N   UNL     1      -0.986  11.133  19.165  0.00  0.00    +0.000 N 
ENDROOT
BRANCH   7   8
ATOM      8  C   UNL     1      -2.112  11.201  18.359  0.00  0.00    +0.000 A 
ATOM      9  C   UNL     1      -3.339  11.710  18.807  0.00  0.00    +0.000 A 
ATOM     10  C   UNL     1      -4.467  11.766  17.978  0.00  0.00    +0.000 A 
ATOM     11  C   UNL     1      -4.392  11.309  16.665  0.00  0.00    +0.000 A 
ATOM     12  C   UNL     1      -3.188  10.807  16.193  0.00  0.00    +0.000 A 
ATOM     13 CL   UNL     1      -3.073  10.237  14.571  0.00  0.00    +0.000 Cl
ATOM     14  C   UNL     1      -2.066  10.760  17.024  0.00  0.00    +0.000 A 
ENDBRANCH   7   8
BRANCH   4  15
ATOM     15  C   UNL     1       1.667   8.146  20.830  0.00  0.00    +0.000 C 
BRANCH  15  16
ATOM     16  C   UNL     1       2.002   7.294  19.595  0.00  0.00    +0.000 C 
BRANCH  16  17
ATOM     17  C   UNL     1       2.785   6.030  19.928  0.00  0.00    +0.000 C 
BRANCH  17  18
ATOM     18  N   UNL     1       3.663   5.671  18.833  0.00  0.00    +0.000 N 
ATOM     19  N   UNL     1       4.001   6.564  17.831  0.00  0.00    +0.000 NA
ATOM     20  C   UNL     1       4.631   5.829  16.968  0.00  0.00    +0.000 A 
ATOM     21  C   UNL     1       5.242   6.260  15.692  0.00  0.00    +0.000 A 
ATOM     22  C   UNL     1       5.853   5.328  14.940  0.00  0.00    +0.000 A 
ATOM     23  C   UNL     1       5.907   3.937  15.358  0.00  0.00    +0.000 A 
ATOM     24  C   UNL     1       5.337   3.564  16.516  0.00  0.00    +0.000 A 
ATOM     25  N   UNL     1       4.726   4.512  17.289  0.00  0.00    +0.000 N 
ATOM     26  C   UNL     1       4.068   4.366  18.489  0.00  0.00    +0.000 A 
ATOM     27  O   UNL     1       3.852   3.337  19.109  0.00  0.00    +0.000 OA
ENDBRANCH  17  18
ENDBRANCH  16  17
ENDBRANCH  15  16
ENDBRANCH   4  15
TORSDOF 5
ENDMDL
MODEL 6
REMARK VINA RESULT:      -7.6      1.209      1.494
REMARK  Name = 
REMARK  6 active torsions:
REMARK  status: ('A' for Active; 'I' for Inactive)
REMARK    1  A    between atoms: C_1  and  C_2
REMARK    2  A    between atoms: N_4  and  C_5
REMARK    3  A    between atoms: C_5  and  C_6
REMARK    4  A    between atoms: C_6  and  C_7
REMARK    5  A    between atoms: C_7  and  N_8
REMARK    6  A    between atoms: N_20  and  C_21
REMARK                            x       y       z     vdW  Elec       q    Type
REMARK                         _______ _______ _______ _____ _____    ______ ____
ROOT
ATOM      1  C   UNL     1       2.410   2.164  17.547  0.00  0.00    +0.000 C 
ATOM      2  C   UNL     1       2.859   3.623  17.439  0.00  0.00    +0.000 C 
ATOM      3  C   UNL     1       1.911   4.573  18.213  0.00  0.00    +0.000 C 
ATOM      4  N   UNL     1       1.949   4.372  19.680  0.00  0.00    +0.000 NA
ATOM      5  C   UNL     1       3.342   4.607  20.136  0.00  0.00    +0.000 C 
ATOM      6  C   UNL     1       4.382   3.712  19.409  0.00  0.00    +0.000 C 
ATOM      7  N   UNL     1       4.244   3.772  17.940  0.00  0.00    +0.000 N 
ENDROOT
BRANCH   7   8
ATOM      8  C   UNL     1       5.224   4.269  17.096  0.00  0.00    +0.000 A 
ATOM      9  C   UNL     1       5.566   3.655  15.882  0.00  0.00    +0.000 A 
ATOM     10  C   UNL     1       6.564   4.171  15.045  0.00  0.00    +0.000 A 
ATOM     11  C   UNL     1       7.250   5.329  15.406  0.00  0.00    +0.000 A 
ATOM     12  C   UNL     1       6.925   5.961  16.598  0.00  0.00    +0.000 A 
ATOM     13 CL   UNL     1       7.761   7.394  17.063  0.00  0.00    +0.000 Cl
ATOM     14  C   UNL     1       5.926   5.444  17.425  0.00  0.00    +0.000 A 
ENDBRANCH   7   8
BRANCH   4  15
ATOM     15  C   UNL     1       0.986   5.234  20.386  0.00  0.00    +0.000 C 
BRANCH  15  16
ATOM     16  C   UNL     1       1.684   6.445  21.024  0.00  0.00    +0.000 C 
BRANCH  16  17
ATOM     17  C   UNL     1       1.776   7.649  20.094  0.00  0.00    +0.000 C 
BRANCH  17  18
ATOM     18  N   UNL     1       1.035   8.769  20.636  0.00  0.00    +0.000 N 
ATOM     19  N   UNL     1       0.613   8.811  21.954  0.00  0.00    +0.000 NA
ATOM     20  C   UNL     1      -0.154   9.856  21.994  0.00  0.00    +0.000 A 
ATOM     21  C   UNL     1      -0.871  10.401  23.167  0.00  0.00    +0.000 A 
ATOM     22  C   UNL     1      -1.620  11.505  22.990  0.00  0.00    +0.000 A 
ATOM     23  C   UNL     1      -1.731  12.140  21.687  0.00  0.00    +0.000 A 
ATOM     24  C   UNL     1      -1.079  11.624  20.633  0.00  0.00    +0.000 A 
ATOM     25  N   UNL     1      -0.307  10.508  20.813  0.00  0.00    +0.000 N 
ATOM     26  C   UNL     1       0.429   9.801  19.891  0.00  0.00    +0.000 A 
ATOM     27  O   UNL     1       0.519   9.996  18.689  0.00  0.00    +0.000 OA
ENDBRANCH  17  18
ENDBRANCH  16  17
ENDBRANCH  15  16
ENDBRANCH   4  15
TORSDOF 5
ENDMDL
MODEL 7
REMARK VINA RESULT:      -7.6      3.519      8.162
REMARK  Name = 
REMARK  6 active torsions:
REMARK  status: ('A' for Active; 'I' for Inactive)
REMARK    1  A    between atoms: C_1  and  C_2
REMARK    2  A    between atoms: N_4  and  C_5
REMARK    3  A    between atoms: C_5  and  C_6
REMARK    4  A    between atoms: C_6  and  C_7
REMARK    5  A    between atoms: C_7  and  N_8
REMARK    6  A    between atoms: N_20  and  C_21
REMARK                            x       y       z     vdW  Elec       q    Type
REMARK                         _______ _______ _______ _____ _____    ______ ____
ROOT
ATOM      1  C   UNL     1       3.709   7.199  17.881  0.00  0.00    +0.000 C 
ATOM      2  C   UNL     1       2.216   7.220  18.217  0.00  0.00    +0.000 C 
ATOM      3  C   UNL     1       1.525   5.885  17.841  0.00  0.00    +0.000 C 
ATOM      4  N   UNL     1       1.983   4.738  18.659  0.00  0.00    +0.000 NA
ATOM      5  C   UNL     1       1.691   5.046  20.080  0.00  0.00    +0.000 C 
ATOM      6  C   UNL     1       2.327   6.379  20.560  0.00  0.00    +0.000 C 
ATOM      7  N   UNL     1       2.016   7.505  19.656  0.00  0.00    +0.000 N 
ENDROOT
BRANCH   7   8
ATOM      8  C   UNL     1       1.276   8.613  20.034  0.00  0.00    +0.000 A 
ATOM      9  C   UNL     1       0.993   9.674  19.163  0.00  0.00    +0.000 A 
ATOM     10  C   UNL     1       0.246  10.788  19.567  0.00  0.00    +0.000 A 
ATOM     11  C   UNL     1      -0.244  10.867  20.868  0.00  0.00    +0.000 A 
ATOM     12  C   UNL     1       0.015   9.827  21.750  0.00  0.00    +0.000 A 
ATOM     13 CL   UNL     1      -0.581   9.904  23.364  0.00  0.00    +0.000 Cl
ATOM     14  C   UNL     1       0.756   8.717  21.338  0.00  0.00    +0.000 A 
ENDBRANCH   7   8
BRANCH   4  15
ATOM     15  C   UNL     1       1.368   3.469  18.232  0.00  0.00    +0.000 C 
BRANCH  15  16
ATOM     16  C   UNL     1       2.171   2.261  18.741  0.00  0.00    +0.000 C 
BRANCH  16  17
ATOM     17  C   UNL     1       3.404   1.957  17.898  0.00  0.00    +0.000 C 
BRANCH  17  18
ATOM     18  N   UNL     1       4.305   3.091  17.886  0.00  0.00    +0.000 N 
ATOM     19  N   UNL     1       4.738   3.681  16.711  0.00  0.00    +0.000 NA
ATOM     20  C   UNL     1       5.651   4.513  17.107  0.00  0.00    +0.000 A 
ATOM     21  C   UNL     1       6.449   5.437  16.273  0.00  0.00    +0.000 A 
ATOM     22  C   UNL     1       7.350   6.222  16.890  0.00  0.00    +0.000 A 
ATOM     23  C   UNL     1       7.544   6.162  18.329  0.00  0.00    +0.000 A 
ATOM     24  C   UNL     1       6.816   5.309  19.067  0.00  0.00    +0.000 A 
ATOM     25  N   UNL     1       5.889   4.518  18.443  0.00  0.00    +0.000 N 
ATOM     26  C   UNL     1       5.051   3.569  18.982  0.00  0.00    +0.000 A 
ATOM     27  O   UNL     1       4.982   3.196  20.143  0.00  0.00    +0.000 OA
ENDBRANCH  17  18
ENDBRANCH  16  17
ENDBRANCH  15  16
ENDBRANCH   4  15
TORSDOF 5
ENDMDL
MODEL 8
REMARK VINA RESULT:      -7.5      3.344      8.922
REMARK  Name = 
REMARK  6 active torsions:
REMARK  status: ('A' for Active; 'I' for Inactive)
REMARK    1  A    between atoms: C_1  and  C_2
REMARK    2  A    between atoms: N_4  and  C_5
REMARK    3  A    between atoms: C_5  and  C_6
REMARK    4  A    between atoms: C_6  and  C_7
REMARK    5  A    between atoms: C_7  and  N_8
REMARK    6  A    between atoms: N_20  and  C_21
REMARK                            x       y       z     vdW  Elec       q    Type
REMARK                         _______ _______ _______ _____ _____    ______ ____
ROOT
ATOM      1  C   UNL     1       2.232  10.495  18.019  0.00  0.00    +0.000 C 
ATOM      2  C   UNL     1       0.955   9.659  18.130  0.00  0.00    +0.000 C 
ATOM      3  C   UNL     1       1.227   8.282  18.787  0.00  0.00    +0.000 C 
ATOM      4  N   UNL     1       1.627   8.380  20.210  0.00  0.00    +0.000 NA
ATOM      5  C   UNL     1       0.529   9.055  20.945  0.00  0.00    +0.000 C 
ATOM      6  C   UNL     1       0.163  10.445  20.358  0.00  0.00    +0.000 C 
ATOM      7  N   UNL     1      -0.074  10.393  18.901  0.00  0.00    +0.000 N 
ENDROOT
BRANCH   7   8
ATOM      8  C   UNL     1      -1.294  10.676  18.311  0.00  0.00    +0.000 A 
ATOM      9  C   UNL     1      -2.289  11.436  18.943  0.00  0.00    +0.000 A 
ATOM     10  C   UNL     1      -3.519  11.707  18.330  0.00  0.00    +0.000 A 
ATOM     11  C   UNL     1      -3.786  11.220  17.053  0.00  0.00    +0.000 A 
ATOM     12  C   UNL     1      -2.817  10.471  16.401  0.00  0.00    +0.000 A 
ATOM     13 CL   UNL     1      -3.127   9.859  14.821  0.00  0.00    +0.000 Cl
ATOM     14  C   UNL     1      -1.590  10.210  17.016  0.00  0.00    +0.000 A 
ENDBRANCH   7   8
BRANCH   4  15
ATOM     15  C   UNL     1       1.952   7.066  20.788  0.00  0.00    +0.000 C 
BRANCH  15  16
ATOM     16  C   UNL     1       2.216   6.023  19.691  0.00  0.00    +0.000 C 
BRANCH  16  17
ATOM     17  C   UNL     1       3.464   5.186  19.941  0.00  0.00    +0.000 C 
BRANCH  17  18
ATOM     18  N   UNL     1       4.320   5.184  18.772  0.00  0.00    +0.000 N 
ATOM     19  N   UNL     1       3.820   5.045  17.489  0.00  0.00    +0.000 NA
ATOM     20  C   UNL     1       4.886   4.908  16.762  0.00  0.00    +0.000 A 
ATOM     21  C   UNL     1       4.959   4.740  15.294  0.00  0.00    +0.000 A 
ATOM     22  C   UNL     1       6.175   4.614  14.735  0.00  0.00    +0.000 A 
ATOM     23  C   UNL     1       7.383   4.631  15.543  0.00  0.00    +0.000 A 
ATOM     24  C   UNL     1       7.295   4.775  16.875  0.00  0.00    +0.000 A 
ATOM     25  N   UNL     1       6.059   4.916  17.446  0.00  0.00    +0.000 N 
ATOM     26  C   UNL     1       5.723   5.058  18.772  0.00  0.00    +0.000 A 
ATOM     27  O   UNL     1       6.465   5.047  19.742  0.00  0.00    +0.000 OA
ENDBRANCH  17  18
ENDBRANCH  16  17
ENDBRANCH  15  16
ENDBRANCH   4  15
TORSDOF 5
ENDMDL
MODEL 9
REMARK VINA RESULT:      -7.5      1.434      2.011
REMARK  Name = 
REMARK  6 active torsions:
REMARK  status: ('A' for Active; 'I' for Inactive)
REMARK    1  A    between atoms: C_1  and  C_2
REMARK    2  A    between atoms: N_4  and  C_5
REMARK    3  A    between atoms: C_5  and  C_6
REMARK    4  A    between atoms: C_6  and  C_7
REMARK    5  A    between atoms: C_7  and  N_8
REMARK    6  A    between atoms: N_20  and  C_21
REMARK                            x       y       z     vdW  Elec       q    Type
REMARK                         _______ _______ _______ _____ _____    ______ ____
ROOT
ATOM      1  C   UNL     1       3.647   1.949  18.366  0.00  0.00    +0.000 C 
ATOM      2  C   UNL     1       3.621   3.262  17.581  0.00  0.00    +0.000 C 
ATOM      3  C   UNL     1       2.502   4.209  18.085  0.00  0.00    +0.000 C 
ATOM      4  N   UNL     1       2.731   4.705  19.462  0.00  0.00    +0.000 NA
ATOM      5  C   UNL     1       4.021   5.438  19.473  0.00  0.00    +0.000 C 
ATOM      6  C   UNL     1       5.215   4.583  18.968  0.00  0.00    +0.000 C 
ATOM      7  N   UNL     1       4.934   3.940  17.669  0.00  0.00    +0.000 N 
ENDROOT
BRANCH   7   8
ATOM      8  C   UNL     1       5.636   4.217  16.507  0.00  0.00    +0.000 A 
ATOM      9  C   UNL     1       6.853   4.915  16.500  0.00  0.00    +0.000 A 
ATOM     10  C   UNL     1       7.545   5.189  15.314  0.00  0.00    +0.000 A 
ATOM     11  C   UNL     1       7.031   4.764  14.090  0.00  0.00    +0.000 A 
ATOM     12  C   UNL     1       5.833   4.065  14.069  0.00  0.00    +0.000 A 
ATOM     13 CL   UNL     1       5.180   3.531  12.567  0.00  0.00    +0.000 Cl
ATOM     14  C   UNL     1       5.151   3.790  15.256  0.00  0.00    +0.000 A 
ENDBRANCH   7   8
BRANCH   4  15
ATOM     15  C   UNL     1       1.619   5.541  19.945  0.00  0.00    +0.000 C 
BRANCH  15  16
ATOM     16  C   UNL     1       2.071   6.991  20.180  0.00  0.00    +0.000 C 
BRANCH  16  17
ATOM     17  C   UNL     1       1.314   7.684  21.306  0.00  0.00    +0.000 C 
BRANCH  17  18
ATOM     18  N   UNL     1       0.946   9.030  20.920  0.00  0.00    +0.000 N 
ATOM     19  N   UNL     1       1.120   9.505  19.631  0.00  0.00    +0.000 NA
ATOM     20  C   UNL     1       0.853  10.770  19.735  0.00  0.00    +0.000 A 
ATOM     21  C   UNL     1       0.860  11.783  18.657  0.00  0.00    +0.000 A 
ATOM     22  C   UNL     1       0.550  13.051  18.983  0.00  0.00    +0.000 A 
ATOM     23  C   UNL     1       0.228  13.421  20.351  0.00  0.00    +0.000 A 
ATOM     24  C   UNL     1       0.237  12.488  21.317  0.00  0.00    +0.000 A 
ATOM     25  N   UNL     1       0.539  11.195  20.986  0.00  0.00    +0.000 N 
ATOM     26  C   UNL     1       0.627  10.087  21.796  0.00  0.00    +0.000 A 
ATOM     27  O   UNL     1       0.491  10.027  23.008  0.00  0.00    +0.000 OA
ENDBRANCH  17  18
ENDBRANCH  16  17
ENDBRANCH  15  16
ENDBRANCH   4  15
TORSDOF 5
ENDMDL
