MODEL 1
REMARK VINA RESULT:      -8.1      0.000      0.000
REMARK  Name = 
REMARK  4 active torsions:
REMARK  status: ('A' for Active; 'I' for Inactive)
REMARK    1  A    between atoms: C_1  and  N_2
REMARK    2  A    between atoms: N_2  and  C_15
REMARK    3  A    between atoms: C_6  and  C_7
REMARK    4  A    between atoms: N_18  and  C_19
REMARK                            x       y       z     vdW  Elec       q    Type
REMARK                         _______ _______ _______ _____ _____    ______ ____
ROOT
ATOM      1  C   UNL     1       0.290  11.324  20.862  0.00  0.00    +0.000 C 
ATOM      2  C   UNL     1       0.265  12.855  20.845  0.00  0.00    +0.000 C 
ATOM      3  C   UNL     1      -0.451  13.239  22.131  0.00  0.00    +0.000 C 
ATOM      4  N   UNL     1      -1.355  12.128  22.407  0.00  0.00    +0.000 N 
ATOM      5  C   UNL     1      -1.012  10.949  21.600  0.00  0.00    +0.000 C 
ENDROOT
BRANCH   4   6
ATOM      6  C   UNL     1      -2.671  12.372  22.757  0.00  0.00    +0.000 A 
ATOM      7  N   UNL     1      -3.058  12.235  24.057  0.00  0.00    +0.000 NA
ATOM      8  C   UNL     1      -4.345  12.448  24.398  0.00  0.00    +0.000 A 
ATOM      9  N   UNL     1      -5.372  12.776  23.599  0.00  0.00    +0.000 NA
ATOM     10  C   UNL     1      -4.971  12.881  22.326  0.00  0.00    +0.000 A 
ATOM     11  N   UNL     1      -5.807  13.166  21.280  0.00  0.00    +0.000 N 
ATOM     12  C   UNL     1      -5.094  13.192  20.111  0.00  0.00    +0.000 A 
ATOM     13  C   UNL     1      -3.780  12.915  20.419  0.00  0.00    +0.000 A 
ATOM     14  C   UNL     1      -3.684  12.714  21.829  0.00  0.00    +0.000 A 
ATOM     15  H   UNL     1      -6.801  13.309  21.382  0.00  0.00    +0.000 HD
ENDBRANCH   4   6
BRANCH   1  17
ATOM     16  C   UNL     1      -0.383  11.337  18.403  0.00  0.00    +0.000 C 
ATOM     17  N   UNL     1       0.428  10.796  19.490  0.00  0.00    +0.000 N 
ATOM     18  C   UNL     1       1.126   9.616  19.295  0.00  0.00    +0.000 A 
ATOM     19  C   UNL     1       1.749   9.354  18.080  0.00  0.00    +0.000 A 
ATOM     20  C   UNL     1       2.424   8.151  17.851  0.00  0.00    +0.000 A 
ATOM     21  C   UNL     1       2.509   7.187  18.852  0.00  0.00    +0.000 A 
ATOM     22  C   UNL     1       1.897   7.547  20.054  0.00  0.00    +0.000 A 
ATOM     23  N   UNL     1       1.228   8.715  20.292  0.00  0.00    +0.000 NA
BRANCH  21  24
ATOM     24  C   UNL     1       3.184   5.888  18.638  0.00  0.00    +0.000 A 
ATOM     25  C   UNL     1       2.624   4.892  17.822  0.00  0.00    +0.000 A 
ATOM     26  C   UNL     1       3.274   3.675  17.672  0.00  0.00    +0.000 A 
ATOM     27  N   UNL     1       4.444   3.375  18.265  0.00  0.00    +0.000 NA
ATOM     28  C   UNL     1       4.982   4.332  19.044  0.00  0.00    +0.000 A 
ATOM     29  C   UNL     1       4.401   5.575  19.259  0.00  0.00    +0.000 A 
ENDBRANCH  21  24
ENDBRANCH   1  17
TORSDOF 3
ENDMDL
MODEL 2
REMARK VINA RESULT:      -8.0      1.371      2.061
REMARK  Name = 
REMARK  4 active torsions:
REMARK  status: ('A' for Active; 'I' for Inactive)
REMARK    1  A    between atoms: C_1  and  N_2
REMARK    2  A    between atoms: N_2  and  C_15
REMARK    3  A    between atoms: C_6  and  C_7
REMARK    4  A    between atoms: N_18  and  C_19
REMARK                            x       y       z     vdW  Elec       q    Type
REMARK                         _______ _______ _______ _____ _____    ______ ____
ROOT
ATOM      1  C   UNL     1       0.442  11.513  20.816  0.00  0.00    +0.000 C 
ATOM      2  C   UNL     1       0.572  13.031  20.661  0.00  0.00    +0.000 C 
ATOM      3  C   UNL     1       0.038  13.595  21.969  0.00  0.00    +0.000 C 
ATOM      4  N   UNL     1      -0.941  12.617  22.431  0.00  0.00    +0.000 N 
ATOM      5  C   UNL     1      -0.807  11.346  21.707  0.00  0.00    +0.000 C 
ENDROOT
BRANCH   4   6
ATOM      6  C   UNL     1      -2.181  13.033  22.882  0.00  0.00    +0.000 A 
ATOM      7  N   UNL     1      -3.310  12.522  22.314  0.00  0.00    +0.000 NA
ATOM      8  C   UNL     1      -4.520  12.943  22.733  0.00  0.00    +0.000 A 
ATOM      9  N   UNL     1      -4.800  13.860  23.672  0.00  0.00    +0.000 NA
ATOM     10  C   UNL     1      -3.675  14.362  24.199  0.00  0.00    +0.000 A 
ATOM     11  N   UNL     1      -3.648  15.344  25.151  0.00  0.00    +0.000 N 
ATOM     12  C   UNL     1      -2.351  15.643  25.471  0.00  0.00    +0.000 A 
ATOM     13  C   UNL     1      -1.537  14.837  24.704  0.00  0.00    +0.000 A 
ATOM     14  C   UNL     1      -2.367  14.014  23.886  0.00  0.00    +0.000 A 
ATOM     15  H   UNL     1      -4.476  15.781  25.528  0.00  0.00    +0.000 HD
ENDBRANCH   4   6
BRANCH   1  17
ATOM     16  C   UNL     1      -0.589  11.306  18.494  0.00  0.00    +0.000 C 
ATOM     17  N   UNL     1       0.380  10.863  19.492  0.00  0.00    +0.000 N 
ATOM     18  C   UNL     1       1.054   9.668  19.301  0.00  0.00    +0.000 A 
ATOM     19  C   UNL     1       1.492   9.297  18.034  0.00  0.00    +0.000 A 
ATOM     20  C   UNL     1       2.139   8.076  17.816  0.00  0.00    +0.000 A 
ATOM     21  C   UNL     1       2.382   7.206  18.874  0.00  0.00    +0.000 A 
ATOM     22  C   UNL     1       1.951   7.674  20.117  0.00  0.00    +0.000 A 
ATOM     23  N   UNL     1       1.313   8.860  20.348  0.00  0.00    +0.000 NA
BRANCH  21  24
ATOM     24  C   UNL     1       3.032   5.891  18.679  0.00  0.00    +0.000 A 
ATOM     25  C   UNL     1       2.473   4.911  17.843  0.00  0.00    +0.000 A 
ATOM     26  C   UNL     1       3.098   3.678  17.711  0.00  0.00    +0.000 A 
ATOM     27  N   UNL     1       4.241   3.349  18.340  0.00  0.00    +0.000 NA
ATOM     28  C   UNL     1       4.778   4.291  19.138  0.00  0.00    +0.000 A 
ATOM     29  C   UNL     1       4.221   5.548  19.338  0.00  0.00    +0.000 A 
ENDBRANCH  21  24
ENDBRANCH   1  17
TORSDOF 3
ENDMDL
MODEL 3
REMARK VINA RESULT:      -7.8      1.321      2.063
REMARK  Name = 
REMARK  4 active torsions:
REMARK  status: ('A' for Active; 'I' for Inactive)
REMARK    1  A    between atoms: C_1  and  N_2
REMARK    2  A    between atoms: N_2  and  C_15
REMARK    3  A    between atoms: C_6  and  C_7
REMARK    4  A    between atoms: N_18  and  C_19
REMARK                            x       y       z     vdW  Elec       q    Type
REMARK                         _______ _______ _______ _____ _____    ______ ____
ROOT
ATOM      1  C   UNL     1       0.308  11.543  20.744  0.00  0.00    +0.000 C 
ATOM      2  C   UNL     1       0.882  12.958  20.637  0.00  0.00    +0.000 C 
ATOM      3  C   UNL     1       0.310  13.695  21.839  0.00  0.00    +0.000 C 
ATOM      4  N   UNL     1      -0.968  13.044  22.107  0.00  0.00    +0.000 N 
ATOM      5  C   UNL     1      -1.072  11.761  21.399  0.00  0.00    +0.000 C 
ENDROOT
BRANCH   4   6
ATOM      6  C   UNL     1      -2.101  13.804  22.339  0.00  0.00    +0.000 A 
ATOM      7  N   UNL     1      -2.211  15.038  21.771  0.00  0.00    +0.000 NA
ATOM      8  C   UNL     1      -3.302  15.792  22.014  0.00  0.00    +0.000 A 
ATOM      9  N   UNL     1      -4.355  15.501  22.794  0.00  0.00    +0.000 NA
ATOM     10  C   UNL     1      -4.212  14.294  23.357  0.00  0.00    +0.000 A 
ATOM     11  N   UNL     1      -5.109  13.747  24.234  0.00  0.00    +0.000 N 
ATOM     12  C   UNL     1      -4.671  12.514  24.636  0.00  0.00    +0.000 A 
ATOM     13  C   UNL     1      -3.469  12.274  24.006  0.00  0.00    +0.000 A 
ATOM     14  C   UNL     1      -3.161  13.401  23.186  0.00  0.00    +0.000 A 
ATOM     15  H   UNL     1      -5.950  14.215  24.538  0.00  0.00    +0.000 HD
ENDBRANCH   4   6
BRANCH   1  17
ATOM     16  C   UNL     1      -0.645  11.318  18.391  0.00  0.00    +0.000 C 
ATOM     17  N   UNL     1       0.297  10.889  19.421  0.00  0.00    +0.000 N 
ATOM     18  C   UNL     1       0.992   9.702  19.255  0.00  0.00    +0.000 A 
ATOM     19  C   UNL     1       1.475   9.333  18.004  0.00  0.00    +0.000 A 
ATOM     20  C   UNL     1       2.143   8.120  17.810  0.00  0.00    +0.000 A 
ATOM     21  C   UNL     1       2.362   7.255  18.879  0.00  0.00    +0.000 A 
ATOM     22  C   UNL     1       1.886   7.721  20.106  0.00  0.00    +0.000 A 
ATOM     23  N   UNL     1       1.227   8.900  20.312  0.00  0.00    +0.000 NA
BRANCH  21  24
ATOM     24  C   UNL     1       3.034   5.949  18.708  0.00  0.00    +0.000 A 
ATOM     25  C   UNL     1       4.233   5.644  19.374  0.00  0.00    +0.000 A 
ATOM     26  C   UNL     1       4.848   4.418  19.163  0.00  0.00    +0.000 A 
ATOM     27  N   UNL     1       4.360   3.468  18.345  0.00  0.00    +0.000 NA
ATOM     28  C   UNL     1       3.209   3.759  17.710  0.00  0.00    +0.000 A 
ATOM     29  C   UNL     1       2.526   4.960  17.854  0.00  0.00    +0.000 A 
ENDBRANCH  21  24
ENDBRANCH   1  17
TORSDOF 3
ENDMDL
MODEL 4
REMARK VINA RESULT:      -7.8      3.713     10.446
REMARK  Name = 
REMARK  4 active torsions:
REMARK  status: ('A' for Active; 'I' for Inactive)
REMARK    1  A    between atoms: C_1  and  N_2
REMARK    2  A    between atoms: N_2  and  C_15
REMARK    3  A    between atoms: C_6  and  C_7
REMARK    4  A    between atoms: N_18  and  C_19
REMARK                            x       y       z     vdW  Elec       q    Type
REMARK                         _______ _______ _______ _____ _____    ______ ____
ROOT
ATOM      1  C   UNL     1       3.151   3.396  19.472  0.00  0.00    +0.000 C 
ATOM      2  C   UNL     1       2.745   3.267  18.002  0.00  0.00    +0.000 C 
ATOM      3  C   UNL     1       4.061   3.103  17.256  0.00  0.00    +0.000 C 
ATOM      4  N   UNL     1       5.046   3.811  18.067  0.00  0.00    +0.000 N 
ATOM      5  C   UNL     1       4.523   4.099  19.409  0.00  0.00    +0.000 C 
ENDROOT
BRANCH   4   6
ATOM      6  C   UNL     1       5.945   4.677  17.471  0.00  0.00    +0.000 A 
ATOM      7  N   UNL     1       6.479   5.699  18.198  0.00  0.00    +0.000 NA
ATOM      8  C   UNL     1       7.337   6.560  17.615  0.00  0.00    +0.000 A 
ATOM      9  N   UNL     1       7.758   6.576  16.341  0.00  0.00    +0.000 NA
ATOM     10  C   UNL     1       7.202   5.577  15.642  0.00  0.00    +0.000 A 
ATOM     11  N   UNL     1       7.414   5.367  14.307  0.00  0.00    +0.000 N 
ATOM     12  C   UNL     1       6.698   4.276  13.891  0.00  0.00    +0.000 A 
ATOM     13  C   UNL     1       6.013   3.787  14.982  0.00  0.00    +0.000 A 
ATOM     14  C   UNL     1       6.324   4.606  16.108  0.00  0.00    +0.000 A 
ATOM     15  H   UNL     1       8.000   5.956  13.733  0.00  0.00    +0.000 HD
ENDBRANCH   4   6
BRANCH   1  17
ATOM     16  C   UNL     1       1.052   3.345  20.918  0.00  0.00    +0.000 C 
ATOM     17  N   UNL     1       2.102   4.098  20.237  0.00  0.00    +0.000 N 
ATOM     18  C   UNL     1       1.964   5.468  20.081  0.00  0.00    +0.000 A 
ATOM     19  C   UNL     1       1.424   6.245  21.101  0.00  0.00    +0.000 A 
ATOM     20  C   UNL     1       1.240   7.623  20.946  0.00  0.00    +0.000 A 
ATOM     21  C   UNL     1       1.618   8.259  19.767  0.00  0.00    +0.000 A 
ATOM     22  C   UNL     1       2.192   7.415  18.814  0.00  0.00    +0.000 A 
ATOM     23  N   UNL     1       2.373   6.066  18.946  0.00  0.00    +0.000 NA
BRANCH  21  24
ATOM     24  C   UNL     1       1.409   9.707  19.552  0.00  0.00    +0.000 A 
ATOM     25  C   UNL     1       1.912  10.364  18.417  0.00  0.00    +0.000 A 
ATOM     26  C   UNL     1       1.721  11.730  18.268  0.00  0.00    +0.000 A 
ATOM     27  N   UNL     1       1.061  12.494  19.158  0.00  0.00    +0.000 NA
ATOM     28  C   UNL     1       0.576  11.863  20.244  0.00  0.00    +0.000 A 
ATOM     29  C   UNL     1       0.724  10.502  20.481  0.00  0.00    +0.000 A 
ENDBRANCH  21  24
ENDBRANCH   1  17
TORSDOF 3
ENDMDL
MODEL 5
REMARK VINA RESULT:      -7.7      1.786      2.699
REMARK  Name = 
REMARK  4 active torsions:
REMARK  status: ('A' for Active; 'I' for Inactive)
REMARK    1  A    between atoms: C_1  and  N_2
REMARK    2  A    between atoms: N_2  and  C_15
REMARK    3  A    between atoms: C_6  and  C_7
REMARK    4  A    between atoms: N_18  and  C_19
REMARK                            x       y       z     vdW  Elec       q    Type
REMARK                         _______ _______ _______ _____ _____    ______ ____
ROOT
ATOM      1  C   UNL     1      -0.467  11.077  19.373  0.00  0.00    +0.000 C 
ATOM      2  C   UNL     1      -1.407  10.260  18.482  0.00  0.00    +0.000 C 
ATOM      3  C   UNL     1      -2.558  11.206  18.173  0.00  0.00    +0.000 C 
ATOM      4  N   UNL     1      -2.634  12.098  19.326  0.00  0.00    +0.000 N 
ATOM      5  C   UNL     1      -1.422  12.005  20.152  0.00  0.00    +0.000 C 
ENDROOT
BRANCH   4   6
ATOM      6  C   UNL     1      -3.856  12.374  19.913  0.00  0.00    +0.000 A 
ATOM      7  N   UNL     1      -3.910  12.697  21.236  0.00  0.00    +0.000 NA
ATOM      8  C   UNL     1      -5.101  12.943  21.817  0.00  0.00    +0.000 A 
ATOM      9  N   UNL     1      -6.321  12.897  21.261  0.00  0.00    +0.000 NA
ATOM     10  C   UNL     1      -6.243  12.555  19.968  0.00  0.00    +0.000 A 
ATOM     11  N   UNL     1      -7.330  12.390  19.153  0.00  0.00    +0.000 N 
ATOM     12  C   UNL     1      -6.916  12.031  17.898  0.00  0.00    +0.000 A 
ATOM     13  C   UNL     1      -5.540  11.963  17.916  0.00  0.00    +0.000 A 
ATOM     14  C   UNL     1      -5.095  12.295  19.231  0.00  0.00    +0.000 A 
ATOM     15  H   UNL     1      -8.284  12.501  19.463  0.00  0.00    +0.000 HD
ENDBRANCH   4   6
BRANCH   1  17
ATOM     16  C   UNL     1       0.602  10.471  21.607  0.00  0.00    +0.000 C 
ATOM     17  N   UNL     1       0.372  10.181  20.194  0.00  0.00    +0.000 N 
ATOM     18  C   UNL     1       1.151   9.227  19.560  0.00  0.00    +0.000 A 
ATOM     19  C   UNL     1       1.512   8.057  20.219  0.00  0.00    +0.000 A 
ATOM     20  C   UNL     1       2.331   7.101  19.610  0.00  0.00    +0.000 A 
ATOM     21  C   UNL     1       2.789   7.289  18.308  0.00  0.00    +0.000 A 
ATOM     22  C   UNL     1       2.344   8.466  17.704  0.00  0.00    +0.000 A 
ATOM     23  N   UNL     1       1.549   9.414  18.287  0.00  0.00    +0.000 NA
BRANCH  21  24
ATOM     24  C   UNL     1       3.684   6.318  17.641  0.00  0.00    +0.000 A 
ATOM     25  C   UNL     1       4.791   6.736  16.885  0.00  0.00    +0.000 A 
ATOM     26  C   UNL     1       5.588   5.794  16.249  0.00  0.00    +0.000 A 
ATOM     27  N   UNL     1       5.374   4.468  16.313  0.00  0.00    +0.000 NA
ATOM     28  C   UNL     1       4.314   4.068  17.042  0.00  0.00    +0.000 A 
ATOM     29  C   UNL     1       3.458   4.936  17.707  0.00  0.00    +0.000 A 
ENDBRANCH  21  24
ENDBRANCH   1  17
TORSDOF 3
ENDMDL
MODEL 6
REMARK VINA RESULT:      -7.5      4.002     10.431
REMARK  Name = 
REMARK  4 active torsions:
REMARK  status: ('A' for Active; 'I' for Inactive)
REMARK    1  A    between atoms: C_1  and  N_2
REMARK    2  A    between atoms: N_2  and  C_15
REMARK    3  A    between atoms: C_6  and  C_7
REMARK    4  A    between atoms: N_18  and  C_19
REMARK                            x       y       z     vdW  Elec       q    Type
REMARK                         _______ _______ _______ _____ _____    ______ ____
ROOT
ATOM      1  C   UNL     1       3.192   3.009  19.503  0.00  0.00    +0.000 C 
ATOM      2  C   UNL     1       2.592   2.561  18.168  0.00  0.00    +0.000 C 
ATOM      3  C   UNL     1       3.796   2.319  17.270  0.00  0.00    +0.000 C 
ATOM      4  N   UNL     1       4.824   3.230  17.763  0.00  0.00    +0.000 N 
ATOM      5  C   UNL     1       4.477   3.757  19.090  0.00  0.00    +0.000 C 
ENDROOT
BRANCH   4   6
ATOM      6  C   UNL     1       5.552   4.003  16.877  0.00  0.00    +0.000 A 
ATOM      7  N   UNL     1       5.582   3.666  15.556  0.00  0.00    +0.000 NA
ATOM      8  C   UNL     1       6.310   4.402  14.693  0.00  0.00    +0.000 A 
ATOM      9  N   UNL     1       7.074   5.473  14.956  0.00  0.00    +0.000 NA
ATOM     10  C   UNL     1       7.046   5.770  16.262  0.00  0.00    +0.000 A 
ATOM     11  N   UNL     1       7.761   6.790  16.831  0.00  0.00    +0.000 N 
ATOM     12  C   UNL     1       7.524   6.824  18.179  0.00  0.00    +0.000 A 
ATOM     13  C   UNL     1       6.645   5.804  18.474  0.00  0.00    +0.000 A 
ATOM     14  C   UNL     1       6.331   5.122  17.261  0.00  0.00    +0.000 A 
ATOM     15  H   UNL     1       8.379   7.396  16.313  0.00  0.00    +0.000 HD
ENDBRANCH   4   6
BRANCH   1  17
ATOM     16  C   UNL     1       1.185   3.125  21.071  0.00  0.00    +0.000 C 
ATOM     17  N   UNL     1       2.208   3.795  20.273  0.00  0.00    +0.000 N 
ATOM     18  C   UNL     1       2.092   5.153  20.021  0.00  0.00    +0.000 A 
ATOM     19  C   UNL     1       1.634   6.019  21.008  0.00  0.00    +0.000 A 
ATOM     20  C   UNL     1       1.472   7.386  20.759  0.00  0.00    +0.000 A 
ATOM     21  C   UNL     1       1.791   7.921  19.514  0.00  0.00    +0.000 A 
ATOM     22  C   UNL     1       2.285   6.992  18.596  0.00  0.00    +0.000 A 
ATOM     23  N   UNL     1       2.444   5.653  18.820  0.00  0.00    +0.000 NA
BRANCH  21  24
ATOM     24  C   UNL     1       1.602   9.354  19.201  0.00  0.00    +0.000 A 
ATOM     25  C   UNL     1       2.268   9.968  18.128  0.00  0.00    +0.000 A 
ATOM     26  C   UNL     1       2.087  11.323  17.887  0.00  0.00    +0.000 A 
ATOM     27  N   UNL     1       1.289  12.113  18.627  0.00  0.00    +0.000 NA
ATOM     28  C   UNL     1       0.648  11.523  19.653  0.00  0.00    +0.000 A 
ATOM     29  C   UNL     1       0.772  10.177  19.975  0.00  0.00    +0.000 A 
ENDBRANCH  21  24
ENDBRANCH   1  17
TORSDOF 3
ENDMDL
MODEL 7
REMARK VINA RESULT:      -7.4      1.925      3.258
REMARK  Name = 
REMARK  4 active torsions:
REMARK  status: ('A' for Active; 'I' for Inactive)
REMARK    1  A    between atoms: C_1  and  N_2
REMARK    2  A    between atoms: N_2  and  C_15
REMARK    3  A    between atoms: C_6  and  C_7
REMARK    4  A    between atoms: N_18  and  C_19
REMARK                            x       y       z     vdW  Elec       q    Type
REMARK                         _______ _______ _______ _____ _____    ______ ____
ROOT
ATOM      1  C   UNL     1      -0.917  11.194  18.798  0.00  0.00    +0.000 C 
ATOM      2  C   UNL     1      -1.498  10.194  17.794  0.00  0.00    +0.000 C 
ATOM      3  C   UNL     1      -2.763  10.862  17.278  0.00  0.00    +0.000 C 
ATOM      4  N   UNL     1      -3.219  11.708  18.377  0.00  0.00    +0.000 N 
ATOM      5  C   UNL     1      -2.166  11.882  19.387  0.00  0.00    +0.000 C 
ENDROOT
BRANCH   4   6
ATOM      6  C   UNL     1      -4.550  11.701  18.754  0.00  0.00    +0.000 A 
ATOM      7  N   UNL     1      -5.462  11.032  17.994  0.00  0.00    +0.000 NA
ATOM      8  C   UNL     1      -6.764  11.043  18.344  0.00  0.00    +0.000 A 
ATOM      9  N   UNL     1      -7.337  11.669  19.383  0.00  0.00    +0.000 NA
ATOM     10  C   UNL     1      -6.425  12.338  20.100  0.00  0.00    +0.000 A 
ATOM     11  N   UNL     1      -6.722  13.103  21.195  0.00  0.00    +0.000 N 
ATOM     12  C   UNL     1      -5.576  13.661  21.695  0.00  0.00    +0.000 A 
ATOM     13  C   UNL     1      -4.530  13.246  20.900  0.00  0.00    +0.000 A 
ATOM     14  C   UNL     1      -5.055  12.401  19.877  0.00  0.00    +0.000 A 
ATOM     15  H   UNL     1      -7.659  13.236  21.547  0.00  0.00    +0.000 HD
ENDBRANCH   4   6
BRANCH   1  17
ATOM     16  C   UNL     1       0.119  11.027  21.121  0.00  0.00    +0.000 C 
ATOM     17  N   UNL     1      -0.045  10.503  19.768  0.00  0.00    +0.000 N 
ATOM     18  C   UNL     1       0.817   9.520  19.310  0.00  0.00    +0.000 A 
ATOM     19  C   UNL     1       1.237   8.497  20.155  0.00  0.00    +0.000 A 
ATOM     20  C   UNL     1       2.139   7.519  19.722  0.00  0.00    +0.000 A 
ATOM     21  C   UNL     1       2.624   7.533  18.417  0.00  0.00    +0.000 A 
ATOM     22  C   UNL     1       2.119   8.565  17.624  0.00  0.00    +0.000 A 
ATOM     23  N   UNL     1       1.243   9.532  18.032  0.00  0.00    +0.000 NA
BRANCH  21  24
ATOM     24  C   UNL     1       3.605   6.537  17.932  0.00  0.00    +0.000 A 
ATOM     25  C   UNL     1       4.740   6.919  17.198  0.00  0.00    +0.000 A 
ATOM     26  C   UNL     1       5.619   5.950  16.734  0.00  0.00    +0.000 A 
ATOM     27  N   UNL     1       5.461   4.632  16.950  0.00  0.00    +0.000 NA
ATOM     28  C   UNL     1       4.374   4.268  17.657  0.00  0.00    +0.000 A 
ATOM     29  C   UNL     1       3.437   5.164  18.155  0.00  0.00    +0.000 A 
ENDBRANCH  21  24
ENDBRANCH   1  17
TORSDOF 3
ENDMDL
MODEL 8
REMARK VINA RESULT:      -7.4      1.996      2.830
REMARK  Name = 
REMARK  4 active torsions:
REMARK  status: ('A' for Active; 'I' for Inactive)
REMARK    1  A    between atoms: C_1  and  N_2
REMARK    2  A    between atoms: N_2  and  C_15
REMARK    3  A    between atoms: C_6  and  C_7
REMARK    4  A    between atoms: N_18  and  C_19
REMARK                            x       y       z     vdW  Elec       q    Type
REMARK                         _______ _______ _______ _____ _____    ______ ____
ROOT
ATOM      1  C   UNL     1       0.135  10.904  19.555  0.00  0.00    +0.000 C 
ATOM      2  C   UNL     1      -1.333  10.540  19.315  0.00  0.00    +0.000 C 
ATOM      3  C   UNL     1      -2.031  11.878  19.123  0.00  0.00    +0.000 C 
ATOM      4  N   UNL     1      -1.247  12.829  19.904  0.00  0.00    +0.000 N 
ATOM      5  C   UNL     1       0.058  12.266  20.276  0.00  0.00    +0.000 C 
ENDROOT
BRANCH   4   6
ATOM      6  C   UNL     1      -1.879  13.731  20.742  0.00  0.00    +0.000 A 
ATOM      7  N   UNL     1      -1.846  15.061  20.447  0.00  0.00    +0.000 NA
ATOM      8  C   UNL     1      -2.440  15.945  21.274  0.00  0.00    +0.000 A 
ATOM      9  N   UNL     1      -3.084  15.701  22.425  0.00  0.00    +0.000 NA
ATOM     10  C   UNL     1      -3.082  14.391  22.704  0.00  0.00    +0.000 A 
ATOM     11  N   UNL     1      -3.630  13.848  23.834  0.00  0.00    +0.000 N 
ATOM     12  C   UNL     1      -3.456  12.489  23.827  0.00  0.00    +0.000 A 
ATOM     13  C   UNL     1      -2.781  12.163  22.670  0.00  0.00    +0.000 A 
ATOM     14  C   UNL     1      -2.535  13.365  21.943  0.00  0.00    +0.000 A 
ATOM     15  H   UNL     1      -4.071  14.393  24.560  0.00  0.00    +0.000 HD
ENDBRANCH   4   6
BRANCH   1  17
ATOM     16  C   UNL     1       0.978   9.898  21.741  0.00  0.00    +0.000 C 
ATOM     17  N   UNL     1       0.820   9.823  20.291  0.00  0.00    +0.000 N 
ATOM     18  C   UNL     1       1.542   8.881  19.576  0.00  0.00    +0.000 A 
ATOM     19  C   UNL     1       1.737   7.602  20.088  0.00  0.00    +0.000 A 
ATOM     20  C   UNL     1       2.496   6.650  19.400  0.00  0.00    +0.000 A 
ATOM     21  C   UNL     1       3.061   6.955  18.165  0.00  0.00    +0.000 A 
ATOM     22  C   UNL     1       2.781   8.243  17.704  0.00  0.00    +0.000 A 
ATOM     23  N   UNL     1       2.046   9.187  18.365  0.00  0.00    +0.000 NA
BRANCH  21  24
ATOM     24  C   UNL     1       3.899   5.988  17.422  0.00  0.00    +0.000 A 
ATOM     25  C   UNL     1       3.767   4.603  17.611  0.00  0.00    +0.000 A 
ATOM     26  C   UNL     1       4.594   3.730  16.917  0.00  0.00    +0.000 A 
ATOM     27  N   UNL     1       5.537   4.128  16.044  0.00  0.00    +0.000 NA
ATOM     28  C   UNL     1       5.660   5.456  15.861  0.00  0.00    +0.000 A 
ATOM     29  C   UNL     1       4.883   6.405  16.515  0.00  0.00    +0.000 A 
ENDBRANCH  21  24
ENDBRANCH   1  17
TORSDOF 3
ENDMDL
MODEL 9
REMARK VINA RESULT:      -7.3      1.437      2.054
REMARK  Name = 
REMARK  4 active torsions:
REMARK  status: ('A' for Active; 'I' for Inactive)
REMARK    1  A    between atoms: C_1  and  N_2
REMARK    2  A    between atoms: N_2  and  C_15
REMARK    3  A    between atoms: C_6  and  C_7
REMARK    4  A    between atoms: N_18  and  C_19
REMARK                            x       y       z     vdW  Elec       q    Type
REMARK                         _______ _______ _______ _____ _____    ______ ____
ROOT
ATOM      1  C   UNL     1      -0.207  12.041  20.359  0.00  0.00    +0.000 C 
ATOM      2  C   UNL     1      -0.003  13.525  20.041  0.00  0.00    +0.000 C 
ATOM      3  C   UNL     1      -0.623  14.257  21.222  0.00  0.00    +0.000 C 
ATOM      4  N   UNL     1      -1.677  13.371  21.704  0.00  0.00    +0.000 N 
ATOM      5  C   UNL     1      -1.533  12.019  21.147  0.00  0.00    +0.000 C 
ENDROOT
BRANCH   4   6
ATOM      6  C   UNL     1      -2.934  13.875  21.990  0.00  0.00    +0.000 A 
ATOM      7  N   UNL     1      -3.410  14.938  21.281  0.00  0.00    +0.000 NA
ATOM      8  C   UNL     1      -4.623  15.448  21.573  0.00  0.00    +0.000 A 
ATOM      9  N   UNL     1      -5.481  15.055  22.527  0.00  0.00    +0.000 NA
ATOM     10  C   UNL     1      -4.981  14.025  23.223  0.00  0.00    +0.000 A 
ATOM     11  N   UNL     1      -5.615  13.439  24.285  0.00  0.00    +0.000 N 
ATOM     12  C   UNL     1      -4.841  12.425  24.784  0.00  0.00    +0.000 A 
ATOM     13  C   UNL     1      -3.690  12.369  24.027  0.00  0.00    +0.000 A 
ATOM     14  C   UNL     1      -3.764  13.384  23.027  0.00  0.00    +0.000 A 
ATOM     15  H   UNL     1      -6.509  13.742  24.639  0.00  0.00    +0.000 HD
ENDBRANCH   4   6
BRANCH   1  17
ATOM     16  C   UNL     1      -1.171  11.466  18.071  0.00  0.00    +0.000 C 
ATOM     17  N   UNL     1      -0.181  11.240  19.120  0.00  0.00    +0.000 N 
ATOM     18  C   UNL     1       0.611  10.105  19.074  0.00  0.00    +0.000 A 
ATOM     19  C   UNL     1       1.106   9.635  17.862  0.00  0.00    +0.000 A 
ATOM     20  C   UNL     1       1.873   8.468  17.791  0.00  0.00    +0.000 A 
ATOM     21  C   UNL     1       2.182   7.754  18.946  0.00  0.00    +0.000 A 
ATOM     22  C   UNL     1       1.685   8.317  20.123  0.00  0.00    +0.000 A 
ATOM     23  N   UNL     1       0.929   9.453  20.209  0.00  0.00    +0.000 NA
BRANCH  21  24
ATOM     24  C   UNL     1       2.961   6.497  18.909  0.00  0.00    +0.000 A 
ATOM     25  C   UNL     1       2.765   5.481  19.858  0.00  0.00    +0.000 A 
ATOM     26  C   UNL     1       3.539   4.330  19.808  0.00  0.00    +0.000 A 
ATOM     27  N   UNL     1       4.488   4.108  18.881  0.00  0.00    +0.000 NA
ATOM     28  C   UNL     1       4.673   5.081  17.969  0.00  0.00    +0.000 A 
ATOM     29  C   UNL     1       3.952   6.269  17.945  0.00  0.00    +0.000 A 
ENDBRANCH  21  24
ENDBRANCH   1  17
TORSDOF 3
ENDMDL
