MODEL 1
REMARK VINA RESULT:      -9.0      0.000      0.000
REMARK  Name = 
REMARK  7 active torsions:
REMARK  status: ('A' for Active; 'I' for Inactive)
REMARK    1  A    between atoms: C_2  and  C_3
REMARK    2  A    between atoms: C_3  and  C_4
REMARK    3  A    between atoms: C_3  and  N_21
REMARK    4  A    between atoms: C_4  and  C_5
REMARK    5  A    between atoms: C_8  and  C_9
REMARK    6  A    between atoms: C_12  and  C_13
REMARK    7  A    between atoms: C_22  and  C_24
REMARK                            x       y       z     vdW  Elec       q    Type
REMARK                         _______ _______ _______ _____ _____    ______ ____
ROOT
ATOM      1  C   UNL     1       7.358   6.422  17.586  0.00  0.00    +0.000 A 
ATOM      2  C   UNL     1       7.142   7.603  16.881  0.00  0.00    +0.000 A 
ATOM      3  C   UNL     1       7.696   8.790  17.335  0.00  0.00    +0.000 A 
ATOM      4  C   UNL     1       8.462   8.850  18.512  0.00  0.00    +0.000 A 
ATOM      5  C   UNL     1       8.654   7.663  19.230  0.00  0.00    +0.000 A 
ATOM      6  C   UNL     1       8.106   6.473  18.767  0.00  0.00    +0.000 A 
ATOM      7  F   UNL     1       8.312   5.351  19.472  0.00  0.00    +0.000 F 
ENDROOT
BRANCH   4   8
ATOM      8  C   UNL     1       9.067  10.129  18.905  0.00  0.00    +0.000 A 
ATOM      9  C   UNL     1       9.597  10.993  17.930  0.00  0.00    +0.000 A 
ATOM     10  C   UNL     1      10.313  12.136  18.276  0.00  0.00    +0.000 A 
ATOM     11  C   UNL     1      10.476  12.469  19.621  0.00  0.00    +0.000 A 
ATOM     12  C   UNL     1       9.923  11.639  20.605  0.00  0.00    +0.000 A 
ATOM     13  C   UNL     1       9.227  10.482  20.251  0.00  0.00    +0.000 A 
BRANCH  11  14
ATOM     14  C   UNL     1      11.219  13.678  20.067  0.00  0.00    +0.000 C 
ATOM     15  N   UNL     1      10.694  14.424  21.085  0.00  0.00    +0.000 N 
ATOM     16  O   UNL     1      12.278  14.003  19.552  0.00  0.00    +0.000 OA
ATOM     17  H   UNL     1       9.845  14.219  21.586  0.00  0.00    +0.000 HD
ATOM     18  H   UNL     1      11.240  15.221  21.384  0.00  0.00    +0.000 HD
ENDBRANCH  11  14
ENDBRANCH   4   8
BRANCH   1  19
ATOM     19  C   UNL     1       6.776   5.110  17.138  0.00  0.00    +0.000 C 
BRANCH  19  20
ATOM     20  C   UNL     1       5.510   5.177  16.267  0.00  0.00    +0.000 C 
BRANCH  20  21
ATOM     21  N   UNL     1       4.389   4.623  17.025  0.00  0.00    +0.000 N 
ATOM     22  C   UNL     1       3.607   5.436  17.820  0.00  0.00    +0.000 C 
ATOM     23  O   UNL     1       3.798   6.646  17.900  0.00  0.00    +0.000 OA
ATOM     24  H   UNL     1       4.415   3.636  17.266  0.00  0.00    +0.000 HD
BRANCH  22  25
ATOM     25  C   UNL     1       2.457   4.706  18.529  0.00  0.00    +0.000 C 
ATOM     26  N   UNL     1       2.202   3.334  17.938  0.00  0.00    +0.000 NA
ATOM     27  C   UNL     1       2.312   2.421  19.122  0.00  0.00    +0.000 C 
ATOM     28  C   UNL     1       3.488   3.050  19.865  0.00  0.00    +0.000 C 
ATOM     29  C   UNL     1       2.766   4.399  20.011  0.00  0.00    +0.000 C 
ATOM     30  C   UNL     1       1.428   4.032  20.655  0.00  0.00    +0.000 C 
ATOM     31  C   UNL     1       1.202   2.832  21.535  0.00  0.00    +0.000 C 
ATOM     32  C   UNL     1       1.117   2.706  20.026  0.00  0.00    +0.000 C 
ATOM     33  H   UNL     1       2.976   3.097  17.318  0.00  0.00    +0.000 HD
ENDBRANCH  22  25
ENDBRANCH  20  21
BRANCH  20  35
ATOM     34  N   UNL     1       5.844   3.933  13.958  0.00  0.00    +0.000 NA
ATOM     35  C   UNL     1       5.705   4.463  14.975  0.00  0.00    +0.000 C 
ENDBRANCH  20  35
ENDBRANCH  19  20
ENDBRANCH   1  19
TORSDOF 7
ENDMDL
MODEL 2
REMARK VINA RESULT:      -8.7      0.611      1.055
REMARK  Name = 
REMARK  7 active torsions:
REMARK  status: ('A' for Active; 'I' for Inactive)
REMARK    1  A    between atoms: C_2  and  C_3
REMARK    2  A    between atoms: C_3  and  C_4
REMARK    3  A    between atoms: C_3  and  N_21
REMARK    4  A    between atoms: C_4  and  C_5
REMARK    5  A    between atoms: C_8  and  C_9
REMARK    6  A    between atoms: C_12  and  C_13
REMARK    7  A    between atoms: C_22  and  C_24
REMARK                            x       y       z     vdW  Elec       q    Type
REMARK                         _______ _______ _______ _____ _____    ______ ____
ROOT
ATOM      1  C   UNL     1       7.371   6.474  17.628  0.00  0.00    +0.000 A 
ATOM      2  C   UNL     1       7.114   7.645  16.917  0.00  0.00    +0.000 A 
ATOM      3  C   UNL     1       7.650   8.847  17.350  0.00  0.00    +0.000 A 
ATOM      4  C   UNL     1       8.437   8.935  18.512  0.00  0.00    +0.000 A 
ATOM      5  C   UNL     1       8.670   7.758  19.236  0.00  0.00    +0.000 A 
ATOM      6  C   UNL     1       8.140   6.552  18.793  0.00  0.00    +0.000 A 
ATOM      7  F   UNL     1       8.384   5.441  19.503  0.00  0.00    +0.000 F 
ENDROOT
BRANCH   4   8
ATOM      8  C   UNL     1       9.021  10.230  18.883  0.00  0.00    +0.000 A 
ATOM      9  C   UNL     1       9.244  10.546  20.236  0.00  0.00    +0.000 A 
ATOM     10  C   UNL     1       9.650  11.818  20.632  0.00  0.00    +0.000 A 
ATOM     11  C   UNL     1       9.891  12.799  19.670  0.00  0.00    +0.000 A 
ATOM     12  C   UNL     1       9.709  12.490  18.315  0.00  0.00    +0.000 A 
ATOM     13  C   UNL     1       9.279  11.220  17.926  0.00  0.00    +0.000 A 
BRANCH  11  14
ATOM     14  C   UNL     1      10.335  14.175  20.017  0.00  0.00    +0.000 C 
ATOM     15  N   UNL     1      10.016  15.195  19.163  0.00  0.00    +0.000 N 
ATOM     16  O   UNL     1      10.962  14.405  21.039  0.00  0.00    +0.000 OA
ATOM     17  H   UNL     1       9.481  15.105  18.315  0.00  0.00    +0.000 HD
ATOM     18  H   UNL     1      10.306  16.121  19.445  0.00  0.00    +0.000 HD
ENDBRANCH  11  14
ENDBRANCH   4   8
BRANCH   1  19
ATOM     19  C   UNL     1       6.809   5.147  17.202  0.00  0.00    +0.000 C 
BRANCH  19  20
ATOM     20  C   UNL     1       5.574   5.179  16.286  0.00  0.00    +0.000 C 
BRANCH  20  21
ATOM     21  N   UNL     1       4.430   4.643  17.022  0.00  0.00    +0.000 N 
ATOM     22  C   UNL     1       3.567   5.486  17.692  0.00  0.00    +0.000 C 
ATOM     23  O   UNL     1       3.703   6.706  17.674  0.00  0.00    +0.000 OA
ATOM     24  H   UNL     1       4.480   3.683  17.352  0.00  0.00    +0.000 HD
BRANCH  22  25
ATOM     25  C   UNL     1       2.404   4.768  18.393  0.00  0.00    +0.000 C 
ATOM     26  N   UNL     1       2.134   3.402  17.797  0.00  0.00    +0.000 NA
ATOM     27  C   UNL     1       2.226   2.484  18.978  0.00  0.00    +0.000 C 
ATOM     28  C   UNL     1       3.407   3.094  19.728  0.00  0.00    +0.000 C 
ATOM     29  C   UNL     1       2.702   4.452  19.876  0.00  0.00    +0.000 C 
ATOM     30  C   UNL     1       1.356   4.101  20.513  0.00  0.00    +0.000 C 
ATOM     31  C   UNL     1       1.111   2.901  21.387  0.00  0.00    +0.000 C 
ATOM     32  C   UNL     1       1.030   2.781  19.878  0.00  0.00    +0.000 C 
ATOM     33  H   UNL     1       2.907   3.157  17.179  0.00  0.00    +0.000 HD
ENDBRANCH  22  25
ENDBRANCH  20  21
BRANCH  20  35
ATOM     34  N   UNL     1       6.007   3.818  14.061  0.00  0.00    +0.000 NA
ATOM     35  C   UNL     1       5.816   4.427  15.024  0.00  0.00    +0.000 C 
ENDBRANCH  20  35
ENDBRANCH  19  20
ENDBRANCH   1  19
TORSDOF 7
ENDMDL
MODEL 3
REMARK VINA RESULT:      -8.3      7.435     10.489
REMARK  Name = 
REMARK  7 active torsions:
REMARK  status: ('A' for Active; 'I' for Inactive)
REMARK    1  A    between atoms: C_2  and  C_3
REMARK    2  A    between atoms: C_3  and  C_4
REMARK    3  A    between atoms: C_3  and  N_21
REMARK    4  A    between atoms: C_4  and  C_5
REMARK    5  A    between atoms: C_8  and  C_9
REMARK    6  A    between atoms: C_12  and  C_13
REMARK    7  A    between atoms: C_22  and  C_24
REMARK                            x       y       z     vdW  Elec       q    Type
REMARK                         _______ _______ _______ _____ _____    ______ ____
ROOT
ATOM      1  C   UNL     1       0.981   9.632  19.858  0.00  0.00    +0.000 A 
ATOM      2  C   UNL     1       0.889   8.802  20.973  0.00  0.00    +0.000 A 
ATOM      3  C   UNL     1       1.467   7.543  20.946  0.00  0.00    +0.000 A 
ATOM      4  C   UNL     1       2.134   7.055  19.809  0.00  0.00    +0.000 A 
ATOM      5  C   UNL     1       2.200   7.884  18.682  0.00  0.00    +0.000 A 
ATOM      6  C   UNL     1       1.629   9.151  18.716  0.00  0.00    +0.000 A 
ATOM      7  F   UNL     1       1.713   9.925  17.624  0.00  0.00    +0.000 F 
ENDROOT
BRANCH   4   8
ATOM      8  C   UNL     1       2.774   5.734  19.868  0.00  0.00    +0.000 A 
ATOM      9  C   UNL     1       4.057   5.542  19.324  0.00  0.00    +0.000 A 
ATOM     10  C   UNL     1       4.627   4.276  19.224  0.00  0.00    +0.000 A 
ATOM     11  C   UNL     1       3.938   3.166  19.715  0.00  0.00    +0.000 A 
ATOM     12  C   UNL     1       2.675   3.344  20.294  0.00  0.00    +0.000 A 
ATOM     13  C   UNL     1       2.099   4.614  20.369  0.00  0.00    +0.000 A 
BRANCH  11  14
ATOM     14  C   UNL     1       4.487   1.785  19.652  0.00  0.00    +0.000 C 
ATOM     15  N   UNL     1       4.139   0.996  18.591  0.00  0.00    +0.000 N 
ATOM     16  O   UNL     1       5.238   1.356  20.514  0.00  0.00    +0.000 OA
ATOM     17  H   UNL     1       3.550   1.273  17.822  0.00  0.00    +0.000 HD
ATOM     18  H   UNL     1       4.554   0.075  18.563  0.00  0.00    +0.000 HD
ENDBRANCH  11  14
ENDBRANCH   4   8
BRANCH   1  19
ATOM     19  C   UNL     1       0.367  11.004  19.835  0.00  0.00    +0.000 C 
BRANCH  19  20
ATOM     20  C   UNL     1       0.929  12.031  20.831  0.00  0.00    +0.000 C 
BRANCH  20  21
ATOM     21  N   UNL     1      -0.188  12.721  21.474  0.00  0.00    +0.000 N 
ATOM     22  C   UNL     1      -0.778  12.201  22.608  0.00  0.00    +0.000 C 
ATOM     23  O   UNL     1      -0.376  11.167  23.135  0.00  0.00    +0.000 OA
ATOM     24  H   UNL     1      -0.757  13.343  20.907  0.00  0.00    +0.000 HD
BRANCH  22  25
ATOM     25  C   UNL     1      -1.919  13.058  23.174  0.00  0.00    +0.000 C 
ATOM     26  N   UNL     1      -2.222  14.256  22.298  0.00  0.00    +0.000 NA
ATOM     27  C   UNL     1      -3.684  14.110  22.005  0.00  0.00    +0.000 C 
ATOM     28  C   UNL     1      -3.791  12.601  21.804  0.00  0.00    +0.000 C 
ATOM     29  C   UNL     1      -3.268  12.304  23.219  0.00  0.00    +0.000 C 
ATOM     30  C   UNL     1      -4.181  13.127  24.129  0.00  0.00    +0.000 C 
ATOM     31  C   UNL     1      -5.597  13.514  23.796  0.00  0.00    +0.000 C 
ATOM     32  C   UNL     1      -4.435  14.358  23.310  0.00  0.00    +0.000 C 
ATOM     33  H   UNL     1      -1.736  14.141  21.409  0.00  0.00    +0.000 HD
ENDBRANCH  22  25
ENDBRANCH  20  21
BRANCH  20  35
ATOM     34  N   UNL     1       2.591  13.713  19.647  0.00  0.00    +0.000 NA
ATOM     35  C   UNL     1       1.852  12.987  20.160  0.00  0.00    +0.000 C 
ENDBRANCH  20  35
ENDBRANCH  19  20
ENDBRANCH   1  19
TORSDOF 7
ENDMDL
MODEL 4
REMARK VINA RESULT:      -8.2      5.413      8.101
REMARK  Name = 
REMARK  7 active torsions:
REMARK  status: ('A' for Active; 'I' for Inactive)
REMARK    1  A    between atoms: C_2  and  C_3
REMARK    2  A    between atoms: C_3  and  C_4
REMARK    3  A    between atoms: C_3  and  N_21
REMARK    4  A    between atoms: C_4  and  C_5
REMARK    5  A    between atoms: C_8  and  C_9
REMARK    6  A    between atoms: C_12  and  C_13
REMARK    7  A    between atoms: C_22  and  C_24
REMARK                            x       y       z     vdW  Elec       q    Type
REMARK                         _______ _______ _______ _____ _____    ______ ____
ROOT
ATOM      1  C   UNL     1       2.444   5.554  19.356  0.00  0.00    +0.000 A 
ATOM      2  C   UNL     1       1.784   5.538  20.583  0.00  0.00    +0.000 A 
ATOM      3  C   UNL     1       1.291   6.719  21.117  0.00  0.00    +0.000 A 
ATOM      4  C   UNL     1       1.455   7.954  20.467  0.00  0.00    +0.000 A 
ATOM      5  C   UNL     1       2.143   7.966  19.247  0.00  0.00    +0.000 A 
ATOM      6  C   UNL     1       2.627   6.780  18.709  0.00  0.00    +0.000 A 
ATOM      7  F   UNL     1       3.276   6.821  17.536  0.00  0.00    +0.000 F 
ENDROOT
BRANCH   4   8
ATOM      8  C   UNL     1       0.859   9.158  21.060  0.00  0.00    +0.000 A 
ATOM      9  C   UNL     1       0.332   9.120  22.364  0.00  0.00    +0.000 A 
ATOM     10  C   UNL     1      -0.376  10.193  22.899  0.00  0.00    +0.000 A 
ATOM     11  C   UNL     1      -0.533  11.360  22.150  0.00  0.00    +0.000 A 
ATOM     12  C   UNL     1       0.018  11.429  20.863  0.00  0.00    +0.000 A 
ATOM     13  C   UNL     1       0.706  10.339  20.325  0.00  0.00    +0.000 A 
BRANCH  11  14
ATOM     14  C   UNL     1      -1.267  12.550  22.657  0.00  0.00    +0.000 C 
ATOM     15  N   UNL     1      -2.499  12.825  22.131  0.00  0.00    +0.000 N 
ATOM     16  O   UNL     1      -0.799  13.266  23.528  0.00  0.00    +0.000 OA
ATOM     17  H   UNL     1      -2.975  12.278  21.432  0.00  0.00    +0.000 HD
ATOM     18  H   UNL     1      -2.983  13.623  22.520  0.00  0.00    +0.000 HD
ENDBRANCH  11  14
ENDBRANCH   4   8
BRANCH   1  19
ATOM     19  C   UNL     1       3.000   4.302  18.737  0.00  0.00    +0.000 C 
BRANCH  19  20
ATOM     20  C   UNL     1       4.494   4.020  18.971  0.00  0.00    +0.000 C 
BRANCH  20  21
ATOM     21  N   UNL     1       5.151   3.866  17.674  0.00  0.00    +0.000 N 
ATOM     22  C   UNL     1       6.369   4.466  17.427  0.00  0.00    +0.000 C 
ATOM     23  O   UNL     1       6.959   5.118  18.284  0.00  0.00    +0.000 OA
ATOM     24  H   UNL     1       4.572   3.657  16.865  0.00  0.00    +0.000 HD
BRANCH  22  25
ATOM     25  C   UNL     1       6.936   4.187  16.027  0.00  0.00    +0.000 C 
ATOM     26  N   UNL     1       6.101   3.180  15.263  0.00  0.00    +0.000 NA
ATOM     27  C   UNL     1       5.760   3.903  13.996  0.00  0.00    +0.000 C 
ATOM     28  C   UNL     1       5.494   5.309  14.527  0.00  0.00    +0.000 C 
ATOM     29  C   UNL     1       6.910   5.432  15.112  0.00  0.00    +0.000 C 
ATOM     30  C   UNL     1       7.826   5.108  13.931  0.00  0.00    +0.000 C 
ATOM     31  C   UNL     1       7.467   5.325  12.485  0.00  0.00    +0.000 C 
ATOM     32  C   UNL     1       7.051   4.053  13.197  0.00  0.00    +0.000 C 
ATOM     33  H   UNL     1       5.223   3.039  15.762  0.00  0.00    +0.000 HD
ENDBRANCH  22  25
ENDBRANCH  20  21
BRANCH  20  35
ATOM     34  N   UNL     1       4.819   1.875  20.483  0.00  0.00    +0.000 NA
ATOM     35  C   UNL     1       4.689   2.820  19.830  0.00  0.00    +0.000 C 
ENDBRANCH  20  35
ENDBRANCH  19  20
ENDBRANCH   1  19
TORSDOF 7
ENDMDL
MODEL 5
REMARK VINA RESULT:      -8.1      7.510     10.454
REMARK  Name = 
REMARK  7 active torsions:
REMARK  status: ('A' for Active; 'I' for Inactive)
REMARK    1  A    between atoms: C_2  and  C_3
REMARK    2  A    between atoms: C_3  and  C_4
REMARK    3  A    between atoms: C_3  and  N_21
REMARK    4  A    between atoms: C_4  and  C_5
REMARK    5  A    between atoms: C_8  and  C_9
REMARK    6  A    between atoms: C_12  and  C_13
REMARK    7  A    between atoms: C_22  and  C_24
REMARK                            x       y       z     vdW  Elec       q    Type
REMARK                         _______ _______ _______ _____ _____    ______ ____
ROOT
ATOM      1  C   UNL     1       1.148  10.250  18.978  0.00  0.00    +0.000 A 
ATOM      2  C   UNL     1       1.711   9.620  17.870  0.00  0.00    +0.000 A 
ATOM      3  C   UNL     1       2.135   8.303  17.966  0.00  0.00    +0.000 A 
ATOM      4  C   UNL     1       2.037   7.576  19.164  0.00  0.00    +0.000 A 
ATOM      5  C   UNL     1       1.494   8.224  20.281  0.00  0.00    +0.000 A 
ATOM      6  C   UNL     1       1.060   9.540  20.179  0.00  0.00    +0.000 A 
ATOM      7  F   UNL     1       0.539  10.133  21.264  0.00  0.00    +0.000 F 
ENDROOT
BRANCH   4   8
ATOM      8  C   UNL     1       2.453   6.168  19.181  0.00  0.00    +0.000 A 
ATOM      9  C   UNL     1       2.350   5.412  20.363  0.00  0.00    +0.000 A 
ATOM     10  C   UNL     1       2.875   4.126  20.457  0.00  0.00    +0.000 A 
ATOM     11  C   UNL     1       3.480   3.542  19.343  0.00  0.00    +0.000 A 
ATOM     12  C   UNL     1       3.558   4.267  18.147  0.00  0.00    +0.000 A 
ATOM     13  C   UNL     1       3.050   5.566  18.067  0.00  0.00    +0.000 A 
BRANCH  11  14
ATOM     14  C   UNL     1       4.054   2.171  19.365  0.00  0.00    +0.000 C 
ATOM     15  N   UNL     1       3.674   1.292  18.388  0.00  0.00    +0.000 N 
ATOM     16  O   UNL     1       4.854   1.826  20.222  0.00  0.00    +0.000 OA
ATOM     17  H   UNL     1       3.045   1.495  17.629  0.00  0.00    +0.000 HD
ATOM     18  H   UNL     1       4.108   0.379  18.415  0.00  0.00    +0.000 HD
ENDBRANCH  11  14
ENDBRANCH   4   8
BRANCH   1  19
ATOM     19  C   UNL     1       0.678  11.676  18.927  0.00  0.00    +0.000 C 
BRANCH  19  20
ATOM     20  C   UNL     1      -0.840  11.901  18.824  0.00  0.00    +0.000 C 
BRANCH  20  21
ATOM     21  N   UNL     1      -1.368  12.158  20.163  0.00  0.00    +0.000 N 
ATOM     22  C   UNL     1      -1.543  13.450  20.615  0.00  0.00    +0.000 C 
ATOM     23  O   UNL     1      -1.295  14.425  19.911  0.00  0.00    +0.000 OA
ATOM     24  H   UNL     1      -1.250  11.438  20.871  0.00  0.00    +0.000 HD
BRANCH  22  25
ATOM     25  C   UNL     1      -2.129  13.548  22.031  0.00  0.00    +0.000 C 
ATOM     26  N   UNL     1      -2.957  14.803  22.220  0.00  0.00    +0.000 NA
ATOM     27  C   UNL     1      -4.282  14.278  22.681  0.00  0.00    +0.000 C 
ATOM     28  C   UNL     1      -4.427  13.041  21.799  0.00  0.00    +0.000 C 
ATOM     29  C   UNL     1      -3.132  12.415  22.343  0.00  0.00    +0.000 C 
ATOM     30  C   UNL     1      -3.326  12.428  23.860  0.00  0.00    +0.000 C 
ATOM     31  C   UNL     1      -4.662  12.387  24.553  0.00  0.00    +0.000 C 
ATOM     32  C   UNL     1      -4.081  13.706  24.081  0.00  0.00    +0.000 C 
ATOM     33  H   UNL     1      -3.116  15.230  21.308  0.00  0.00    +0.000 HD
ENDBRANCH  22  25
ENDBRANCH  20  21
BRANCH  20  35
ATOM     34  N   UNL     1      -2.062   9.860  17.669  0.00  0.00    +0.000 NA
ATOM     35  C   UNL     1      -1.517  10.742  18.180  0.00  0.00    +0.000 C 
ENDBRANCH  20  35
ENDBRANCH  19  20
ENDBRANCH   1  19
TORSDOF 7
ENDMDL
MODEL 6
REMARK VINA RESULT:      -8.1      7.597     10.037
REMARK  Name = 
REMARK  7 active torsions:
REMARK  status: ('A' for Active; 'I' for Inactive)
REMARK    1  A    between atoms: C_2  and  C_3
REMARK    2  A    between atoms: C_3  and  C_4
REMARK    3  A    between atoms: C_3  and  N_21
REMARK    4  A    between atoms: C_4  and  C_5
REMARK    5  A    between atoms: C_8  and  C_9
REMARK    6  A    between atoms: C_12  and  C_13
REMARK    7  A    between atoms: C_22  and  C_24
REMARK                            x       y       z     vdW  Elec       q    Type
REMARK                         _______ _______ _______ _____ _____    ______ ____
ROOT
ATOM      1  C   UNL     1       0.744   9.645  19.559  0.00  0.00    +0.000 A 
ATOM      2  C   UNL     1       1.173   9.834  18.247  0.00  0.00    +0.000 A 
ATOM      3  C   UNL     1       2.064   8.938  17.676  0.00  0.00    +0.000 A 
ATOM      4  C   UNL     1       2.577   7.842  18.391  0.00  0.00    +0.000 A 
ATOM      5  C   UNL     1       2.162   7.673  19.718  0.00  0.00    +0.000 A 
ATOM      6  C   UNL     1       1.260   8.566  20.284  0.00  0.00    +0.000 A 
ATOM      7  F   UNL     1       0.876   8.376  21.555  0.00  0.00    +0.000 F 
ENDROOT
BRANCH   4   8
ATOM      8  C   UNL     1       3.473   6.900  17.708  0.00  0.00    +0.000 A 
ATOM      9  C   UNL     1       3.328   5.514  17.903  0.00  0.00    +0.000 A 
ATOM     10  C   UNL     1       4.252   4.604  17.397  0.00  0.00    +0.000 A 
ATOM     11  C   UNL     1       5.327   5.061  16.634  0.00  0.00    +0.000 A 
ATOM     12  C   UNL     1       5.466   6.435  16.399  0.00  0.00    +0.000 A 
ATOM     13  C   UNL     1       4.549   7.344  16.930  0.00  0.00    +0.000 A 
BRANCH  11  14
ATOM     14  C   UNL     1       6.347   4.148  16.053  0.00  0.00    +0.000 C 
ATOM     15  N   UNL     1       7.617   4.185  16.561  0.00  0.00    +0.000 N 
ATOM     16  O   UNL     1       6.071   3.372  15.151  0.00  0.00    +0.000 OA
ATOM     17  H   UNL     1       7.929   4.770  17.320  0.00  0.00    +0.000 HD
ATOM     18  H   UNL     1       8.277   3.531  16.165  0.00  0.00    +0.000 HD
ENDBRANCH  11  14
ENDBRANCH   4   8
BRANCH   1  19
ATOM     19  C   UNL     1      -0.217  10.590  20.225  0.00  0.00    +0.000 C 
BRANCH  19  20
ATOM     20  C   UNL     1       0.390  11.646  21.163  0.00  0.00    +0.000 C 
BRANCH  20  21
ATOM     21  N   UNL     1      -0.692  12.458  21.718  0.00  0.00    +0.000 N 
ATOM     22  C   UNL     1      -1.341  12.070  22.873  0.00  0.00    +0.000 C 
ATOM     23  O   UNL     1      -1.021  11.059  23.491  0.00  0.00    +0.000 OA
ATOM     24  H   UNL     1      -1.206  13.067  21.088  0.00  0.00    +0.000 HD
BRANCH  22  25
ATOM     25  C   UNL     1      -2.435  13.043  23.337  0.00  0.00    +0.000 C 
ATOM     26  N   UNL     1      -2.544  14.253  22.433  0.00  0.00    +0.000 NA
ATOM     27  C   UNL     1      -3.984  14.248  22.019  0.00  0.00    +0.000 C 
ATOM     28  C   UNL     1      -4.223  12.754  21.817  0.00  0.00    +0.000 C 
ATOM     29  C   UNL     1      -3.850  12.426  23.272  0.00  0.00    +0.000 C 
ATOM     30  C   UNL     1      -4.751  13.346  24.099  0.00  0.00    +0.000 C 
ATOM     31  C   UNL     1      -6.089  13.866  23.647  0.00  0.00    +0.000 C 
ATOM     32  C   UNL     1      -4.813  14.586  23.255  0.00  0.00    +0.000 C 
ATOM     33  H   UNL     1      -2.000  14.079  21.588  0.00  0.00    +0.000 HD
ENDBRANCH  22  25
ENDBRANCH  20  21
BRANCH  20  35
ATOM     34  N   UNL     1       2.198  13.127  19.925  0.00  0.00    +0.000 NA
ATOM     35  C   UNL     1       1.396  12.485  20.455  0.00  0.00    +0.000 C 
ENDBRANCH  20  35
ENDBRANCH  19  20
ENDBRANCH   1  19
TORSDOF 7
ENDMDL
MODEL 7
REMARK VINA RESULT:      -8.0      7.721     10.748
REMARK  Name = 
REMARK  7 active torsions:
REMARK  status: ('A' for Active; 'I' for Inactive)
REMARK    1  A    between atoms: C_2  and  C_3
REMARK    2  A    between atoms: C_3  and  C_4
REMARK    3  A    between atoms: C_3  and  N_21
REMARK    4  A    between atoms: C_4  and  C_5
REMARK    5  A    between atoms: C_8  and  C_9
REMARK    6  A    between atoms: C_12  and  C_13
REMARK    7  A    between atoms: C_22  and  C_24
REMARK                            x       y       z     vdW  Elec       q    Type
REMARK                         _______ _______ _______ _____ _____    ______ ____
ROOT
ATOM      1  C   UNL     1       1.035  10.031  19.723  0.00  0.00    +0.000 A 
ATOM      2  C   UNL     1       0.965   9.237  20.865  0.00  0.00    +0.000 A 
ATOM      3  C   UNL     1       1.463   7.943  20.838  0.00  0.00    +0.000 A 
ATOM      4  C   UNL     1       2.024   7.387  19.676  0.00  0.00    +0.000 A 
ATOM      5  C   UNL     1       2.068   8.182  18.524  0.00  0.00    +0.000 A 
ATOM      6  C   UNL     1       1.578   9.482  18.557  0.00  0.00    +0.000 A 
ATOM      7  F   UNL     1       1.639  10.223  17.440  0.00  0.00    +0.000 F 
ENDROOT
BRANCH   4   8
ATOM      8  C   UNL     1       2.584   6.030  19.732  0.00  0.00    +0.000 A 
ATOM      9  C   UNL     1       3.918   5.797  19.350  0.00  0.00    +0.000 A 
ATOM     10  C   UNL     1       4.434   4.508  19.243  0.00  0.00    +0.000 A 
ATOM     11  C   UNL     1       3.632   3.413  19.567  0.00  0.00    +0.000 A 
ATOM     12  C   UNL     1       2.312   3.629  19.985  0.00  0.00    +0.000 A 
ATOM     13  C   UNL     1       1.794   4.924  20.066  0.00  0.00    +0.000 A 
BRANCH  11  14
ATOM     14  C   UNL     1       4.115   2.009  19.486  0.00  0.00    +0.000 C 
ATOM     15  N   UNL     1       5.156   1.634  20.291  0.00  0.00    +0.000 N 
ATOM     16  O   UNL     1       3.600   1.198  18.733  0.00  0.00    +0.000 OA
ATOM     17  H   UNL     1       5.623   2.224  20.960  0.00  0.00    +0.000 HD
ATOM     18  H   UNL     1       5.439   0.665  20.234  0.00  0.00    +0.000 HD
ENDBRANCH  11  14
ENDBRANCH   4   8
BRANCH   1  19
ATOM     19  C   UNL     1       0.506  11.438  19.699  0.00  0.00    +0.000 C 
BRANCH  19  20
ATOM     20  C   UNL     1       0.421  12.168  21.050  0.00  0.00    +0.000 C 
BRANCH  20  21
ATOM     21  N   UNL     1      -0.984  12.439  21.350  0.00  0.00    +0.000 N 
ATOM     22  C   UNL     1      -1.576  11.911  22.479  0.00  0.00    +0.000 C 
ATOM     23  O   UNL     1      -0.950  11.228  23.284  0.00  0.00    +0.000 OA
ATOM     24  H   UNL     1      -1.601  12.678  20.579  0.00  0.00    +0.000 HD
BRANCH  22  25
ATOM     25  C   UNL     1      -3.048  12.310  22.663  0.00  0.00    +0.000 C 
ATOM     26  N   UNL     1      -3.614  11.813  23.977  0.00  0.00    +0.000 NA
ATOM     27  C   UNL     1      -4.132  13.061  24.626  0.00  0.00    +0.000 C 
ATOM     28  C   UNL     1      -3.034  14.056  24.258  0.00  0.00    +0.000 C 
ATOM     29  C   UNL     1      -3.246  13.840  22.751  0.00  0.00    +0.000 C 
ATOM     30  C   UNL     1      -4.744  14.084  22.551  0.00  0.00    +0.000 C 
ATOM     31  C   UNL     1      -5.590  14.972  23.424  0.00  0.00    +0.000 C 
ATOM     32  C   UNL     1      -5.335  13.529  23.813  0.00  0.00    +0.000 C 
ATOM     33  H   UNL     1      -2.845  11.482  24.559  0.00  0.00    +0.000 HD
ENDBRANCH  22  25
ENDBRANCH  20  21
BRANCH  20  35
ATOM     34  N   UNL     1       1.875  14.377  21.009  0.00  0.00    +0.000 NA
ATOM     35  C   UNL     1       1.231  13.418  21.040  0.00  0.00    +0.000 C 
ENDBRANCH  20  35
ENDBRANCH  19  20
ENDBRANCH   1  19
TORSDOF 7
ENDMDL
MODEL 8
REMARK VINA RESULT:      -8.0      7.638     10.677
REMARK  Name = 
REMARK  7 active torsions:
REMARK  status: ('A' for Active; 'I' for Inactive)
REMARK    1  A    between atoms: C_2  and  C_3
REMARK    2  A    between atoms: C_3  and  C_4
REMARK    3  A    between atoms: C_3  and  N_21
REMARK    4  A    between atoms: C_4  and  C_5
REMARK    5  A    between atoms: C_8  and  C_9
REMARK    6  A    between atoms: C_12  and  C_13
REMARK    7  A    between atoms: C_22  and  C_24
REMARK                            x       y       z     vdW  Elec       q    Type
REMARK                         _______ _______ _______ _____ _____    ______ ____
ROOT
ATOM      1  C   UNL     1       1.189  10.043  19.521  0.00  0.00    +0.000 A 
ATOM      2  C   UNL     1       0.994   9.184  20.602  0.00  0.00    +0.000 A 
ATOM      3  C   UNL     1       1.450   7.877  20.535  0.00  0.00    +0.000 A 
ATOM      4  C   UNL     1       2.090   7.370  19.391  0.00  0.00    +0.000 A 
ATOM      5  C   UNL     1       2.258   8.230  18.298  0.00  0.00    +0.000 A 
ATOM      6  C   UNL     1       1.810   9.544  18.372  0.00  0.00    +0.000 A 
ATOM      7  F   UNL     1       1.991  10.347  17.313  0.00  0.00    +0.000 F 
ENDROOT
BRANCH   4   8
ATOM      8  C   UNL     1       2.598   5.992  19.408  0.00  0.00    +0.000 A 
ATOM      9  C   UNL     1       2.163   5.088  20.395  0.00  0.00    +0.000 A 
ATOM     10  C   UNL     1       2.737   3.827  20.535  0.00  0.00    +0.000 A 
ATOM     11  C   UNL     1       3.736   3.419  19.651  0.00  0.00    +0.000 A 
ATOM     12  C   UNL     1       4.155   4.293  18.639  0.00  0.00    +0.000 A 
ATOM     13  C   UNL     1       3.592   5.566  18.519  0.00  0.00    +0.000 A 
BRANCH  11  14
ATOM     14  C   UNL     1       4.388   2.085  19.732  0.00  0.00    +0.000 C 
ATOM     15  N   UNL     1       4.229   1.220  18.685  0.00  0.00    +0.000 N 
ATOM     16  O   UNL     1       5.060   1.760  20.699  0.00  0.00    +0.000 OA
ATOM     17  H   UNL     1       3.719   1.410  17.838  0.00  0.00    +0.000 HD
ATOM     18  H   UNL     1       4.711   0.334  18.759  0.00  0.00    +0.000 HD
ENDBRANCH  11  14
ENDBRANCH   4   8
BRANCH   1  19
ATOM     19  C   UNL     1       0.710  11.467  19.542  0.00  0.00    +0.000 C 
BRANCH  19  20
ATOM     20  C   UNL     1       0.592  12.138  20.921  0.00  0.00    +0.000 C 
BRANCH  20  21
ATOM     21  N   UNL     1      -0.820  12.397  21.198  0.00  0.00    +0.000 N 
ATOM     22  C   UNL     1      -1.377  12.037  22.409  0.00  0.00    +0.000 C 
ATOM     23  O   UNL     1      -0.713  11.521  23.303  0.00  0.00    +0.000 OA
ATOM     24  H   UNL     1      -1.456  12.480  20.410  0.00  0.00    +0.000 HD
BRANCH  22  25
ATOM     25  C   UNL     1      -2.862  12.400  22.551  0.00  0.00    +0.000 C 
ATOM     26  N   UNL     1      -3.469  11.834  23.819  0.00  0.00    +0.000 NA
ATOM     27  C   UNL     1      -4.037  13.041  24.501  0.00  0.00    +0.000 C 
ATOM     28  C   UNL     1      -2.946  14.072  24.222  0.00  0.00    +0.000 C 
ATOM     29  C   UNL     1      -3.095  13.921  22.699  0.00  0.00    +0.000 C 
ATOM     30  C   UNL     1      -4.588  14.146  22.451  0.00  0.00    +0.000 C 
ATOM     31  C   UNL     1      -5.485  14.978  23.328  0.00  0.00    +0.000 C 
ATOM     32  C   UNL     1      -5.217  13.523  23.663  0.00  0.00    +0.000 C 
ATOM     33  H   UNL     1      -2.717  11.491  24.416  0.00  0.00    +0.000 HD
ENDBRANCH  22  25
ENDBRANCH  20  21
BRANCH  20  35
ATOM     34  N   UNL     1       2.008  14.367  21.052  0.00  0.00    +0.000 NA
ATOM     35  C   UNL     1       1.401  13.386  20.986  0.00  0.00    +0.000 C 
ENDBRANCH  20  35
ENDBRANCH  19  20
ENDBRANCH   1  19
TORSDOF 7
ENDMDL
MODEL 9
REMARK VINA RESULT:      -8.0      5.418      7.997
REMARK  Name = 
REMARK  7 active torsions:
REMARK  status: ('A' for Active; 'I' for Inactive)
REMARK    1  A    between atoms: C_2  and  C_3
REMARK    2  A    between atoms: C_3  and  C_4
REMARK    3  A    between atoms: C_3  and  N_21
REMARK    4  A    between atoms: C_4  and  C_5
REMARK    5  A    between atoms: C_8  and  C_9
REMARK    6  A    between atoms: C_12  and  C_13
REMARK    7  A    between atoms: C_22  and  C_24
REMARK                            x       y       z     vdW  Elec       q    Type
REMARK                         _______ _______ _______ _____ _____    ______ ____
ROOT
ATOM      1  C   UNL     1       2.488   5.507  19.277  0.00  0.00    +0.000 A 
ATOM      2  C   UNL     1       2.565   6.708  18.575  0.00  0.00    +0.000 A 
ATOM      3  C   UNL     1       2.032   7.864  19.124  0.00  0.00    +0.000 A 
ATOM      4  C   UNL     1       1.385   7.865  20.372  0.00  0.00    +0.000 A 
ATOM      5  C   UNL     1       1.287   6.648  21.060  0.00  0.00    +0.000 A 
ATOM      6  C   UNL     1       1.833   5.493  20.512  0.00  0.00    +0.000 A 
ATOM      7  F   UNL     1       1.729   4.344  21.197  0.00  0.00    +0.000 F 
ENDROOT
BRANCH   4   8
ATOM      8  C   UNL     1       0.893   9.135  20.921  0.00  0.00    +0.000 A 
ATOM      9  C   UNL     1       0.275   9.170  22.185  0.00  0.00    +0.000 A 
ATOM     10  C   UNL     1      -0.339  10.322  22.667  0.00  0.00    +0.000 A 
ATOM     11  C   UNL     1      -0.306  11.493  21.908  0.00  0.00    +0.000 A 
ATOM     12  C   UNL     1       0.338  11.486  20.664  0.00  0.00    +0.000 A 
ATOM     13  C   UNL     1       0.930  10.319  20.176  0.00  0.00    +0.000 A 
BRANCH  11  14
ATOM     14  C   UNL     1      -0.931  12.764  22.362  0.00  0.00    +0.000 C 
ATOM     15  N   UNL     1      -1.391  13.636  21.413  0.00  0.00    +0.000 N 
ATOM     16  O   UNL     1      -1.045  13.032  23.548  0.00  0.00    +0.000 OA
ATOM     17  H   UNL     1      -1.364  13.488  20.418  0.00  0.00    +0.000 HD
ATOM     18  H   UNL     1      -1.837  14.475  21.757  0.00  0.00    +0.000 HD
ENDBRANCH  11  14
ENDBRANCH   4   8
BRANCH   1  19
ATOM     19  C   UNL     1       3.046   4.226  18.723  0.00  0.00    +0.000 C 
BRANCH  19  20
ATOM     20  C   UNL     1       4.534   3.947  18.990  0.00  0.00    +0.000 C 
BRANCH  20  21
ATOM     21  N   UNL     1       5.219   3.783  17.709  0.00  0.00    +0.000 N 
ATOM     22  C   UNL     1       6.285   4.592  17.372  0.00  0.00    +0.000 C 
ATOM     23  O   UNL     1       6.717   5.451  18.136  0.00  0.00    +0.000 OA
ATOM     24  H   UNL     1       4.703   3.363  16.941  0.00  0.00    +0.000 HD
BRANCH  22  25
ATOM     25  C   UNL     1       6.908   4.276  16.005  0.00  0.00    +0.000 C 
ATOM     26  N   UNL     1       6.133   3.211  15.257  0.00  0.00    +0.000 NA
ATOM     27  C   UNL     1       5.812   3.870  13.950  0.00  0.00    +0.000 C 
ATOM     28  C   UNL     1       5.483   5.287  14.412  0.00  0.00    +0.000 C 
ATOM     29  C   UNL     1       6.873   5.481  15.039  0.00  0.00    +0.000 C 
ATOM     30  C   UNL     1       7.840   5.140  13.903  0.00  0.00    +0.000 C 
ATOM     31  C   UNL     1       7.524   5.287  12.438  0.00  0.00    +0.000 C 
ATOM     32  C   UNL     1       7.124   4.031  13.189  0.00  0.00    +0.000 C 
ATOM     33  H   UNL     1       5.243   3.062  15.731  0.00  0.00    +0.000 HD
ENDBRANCH  22  25
ENDBRANCH  20  21
BRANCH  20  35
ATOM     34  N   UNL     1       4.875   1.821  20.526  0.00  0.00    +0.000 NA
ATOM     35  C   UNL     1       4.712   2.754  19.864  0.00  0.00    +0.000 C 
ENDBRANCH  20  35
ENDBRANCH  19  20
ENDBRANCH   1  19
TORSDOF 7
ENDMDL
