MODEL 1
REMARK VINA RESULT:      -8.8      0.000      0.000
REMARK  Name = 
REMARK  8 active torsions:
REMARK  status: ('A' for Active; 'I' for Inactive)
REMARK    1  A    between atoms: C_1  and  C_2
REMARK    2  A    between atoms: C_2  and  O_3
REMARK    3  A    between atoms: O_3  and  C_4
REMARK    4  A    between atoms: C_8  and  C_9
REMARK    5  A    between atoms: C_11  and  C_12
REMARK    6  A    between atoms: C_13  and  C_14
REMARK    7  A    between atoms: C_18  and  N_19
REMARK    8  A    between atoms: C_23  and  O_24
REMARK                            x       y       z     vdW  Elec       q    Type
REMARK                         _______ _______ _______ _____ _____    ______ ____
ROOT
ATOM      1  C   UNL     1       4.261   4.155  19.076  0.00  0.00    +0.000 A 
ATOM      2  C   UNL     1       3.451   5.260  19.434  0.00  0.00    +0.000 A 
ATOM      3  C   UNL     1       2.460   5.178  20.428  0.00  0.00    +0.000 A 
ATOM      4  C   UNL     1       2.293   3.970  21.108  0.00  0.00    +0.000 A 
ATOM      5  C   UNL     1       3.084   2.867  20.794  0.00  0.00    +0.000 A 
ATOM      6  C   UNL     1       4.057   2.966  19.798  0.00  0.00    +0.000 A 
ENDROOT
BRANCH   1  11
ATOM      7  C   UNL     1       5.928   4.390  15.669  0.00  0.00    +0.000 A 
ATOM      8  C   UNL     1       7.247   4.521  16.076  0.00  0.00    +0.000 A 
ATOM      9  C   UNL     1       7.504   4.555  17.434  0.00  0.00    +0.000 A 
ATOM     10  N   UNL     1       6.555   4.451  18.392  0.00  0.00    +0.000 NA
ATOM     11  C   UNL     1       5.266   4.294  17.991  0.00  0.00    +0.000 A 
ATOM     12  C   UNL     1       4.931   4.288  16.637  0.00  0.00    +0.000 A 
BRANCH   7  13
ATOM     13  O   UNL     1       5.483   4.342  14.376  0.00  0.00    +0.000 OA
BRANCH  13  15
ATOM     14  C   UNL     1       5.665   3.278  12.245  0.00  0.00    +0.000 C 
ATOM     15  C   UNL     1       6.423   3.925  13.389  0.00  0.00    +0.000 C 
ENDBRANCH  13  15
ENDBRANCH   7  13
ENDBRANCH   1  11
BRANCH   3  16
ATOM     16  C   UNL     1       1.671   6.377  20.760  0.00  0.00    +0.000 C 
ATOM     17  C   UNL     1       1.833   7.579  20.179  0.00  0.00    +0.000 C 
BRANCH  17  18
ATOM     18  C   UNL     1       1.052   8.783  20.511  0.00  0.00    +0.000 A 
ATOM     19  C   UNL     1       0.898   9.846  19.615  0.00  0.00    +0.000 A 
ATOM     20  C   UNL     1       0.149  10.967  19.971  0.00  0.00    +0.000 A 
ATOM     21  C   UNL     1      -0.478  11.023  21.215  0.00  0.00    +0.000 A 
ATOM     22  C   UNL     1      -0.406   9.943  22.096  0.00  0.00    +0.000 A 
ATOM     23  C   UNL     1       0.397   8.848  21.752  0.00  0.00    +0.000 A 
BRANCH  22  24
ATOM     24  N   UNL     1      -0.933  10.057  23.390  0.00  0.00    +0.000 N 
ATOM     25  H   UNL     1      -1.562  10.844  23.507  0.00  0.00    +0.000 HD
ATOM     26  H   UNL     1      -1.324   9.193  23.752  0.00  0.00    +0.000 HD
ENDBRANCH  22  24
ENDBRANCH  17  18
ENDBRANCH   3  16
BRANCH   6  27
ATOM     27  O   UNL     1       4.843   1.867  19.556  0.00  0.00    +0.000 OA
ATOM     28  H   UNL     1       5.254   1.951  18.682  0.00  0.00    +0.000 HD
ENDBRANCH   6  27
TORSDOF 7
ENDMDL
MODEL 2
REMARK VINA RESULT:      -8.5      1.092      1.455
REMARK  Name = 
REMARK  8 active torsions:
REMARK  status: ('A' for Active; 'I' for Inactive)
REMARK    1  A    between atoms: C_1  and  C_2
REMARK    2  A    between atoms: C_2  and  O_3
REMARK    3  A    between atoms: O_3  and  C_4
REMARK    4  A    between atoms: C_8  and  C_9
REMARK    5  A    between atoms: C_11  and  C_12
REMARK    6  A    between atoms: C_13  and  C_14
REMARK    7  A    between atoms: C_18  and  N_19
REMARK    8  A    between atoms: C_23  and  O_24
REMARK                            x       y       z     vdW  Elec       q    Type
REMARK                         _______ _______ _______ _____ _____    ______ ____
ROOT
ATOM      1  C   UNL     1       4.248   4.086  19.250  0.00  0.00    +0.000 A 
ATOM      2  C   UNL     1       3.434   5.209  19.537  0.00  0.00    +0.000 A 
ATOM      3  C   UNL     1       2.392   5.162  20.481  0.00  0.00    +0.000 A 
ATOM      4  C   UNL     1       2.177   3.974  21.182  0.00  0.00    +0.000 A 
ATOM      5  C   UNL     1       2.971   2.855  20.938  0.00  0.00    +0.000 A 
ATOM      6  C   UNL     1       3.995   2.919  19.991  0.00  0.00    +0.000 A 
ENDROOT
BRANCH   1  11
ATOM      7  C   UNL     1       6.131   4.010  15.949  0.00  0.00    +0.000 A 
ATOM      8  C   UNL     1       7.389   4.373  16.403  0.00  0.00    +0.000 A 
ATOM      9  C   UNL     1       7.536   4.649  17.750  0.00  0.00    +0.000 A 
ATOM     10  N   UNL     1       6.536   4.571  18.657  0.00  0.00    +0.000 NA
ATOM     11  C   UNL     1       5.309   4.187  18.215  0.00  0.00    +0.000 A 
ATOM     12  C   UNL     1       5.082   3.929  16.864  0.00  0.00    +0.000 A 
BRANCH   7  13
ATOM     13  O   UNL     1       5.793   3.707  14.658  0.00  0.00    +0.000 OA
BRANCH  13  15
ATOM     14  C   UNL     1       6.311   3.563  12.330  0.00  0.00    +0.000 C 
ATOM     15  C   UNL     1       6.597   4.287  13.633  0.00  0.00    +0.000 C 
ENDBRANCH  13  15
ENDBRANCH   7  13
ENDBRANCH   1  11
BRANCH   3  16
ATOM     16  C   UNL     1       1.600   6.377  20.740  0.00  0.00    +0.000 C 
ATOM     17  C   UNL     1       1.883   7.591  20.236  0.00  0.00    +0.000 C 
BRANCH  17  18
ATOM     18  C   UNL     1       1.100   8.811  20.497  0.00  0.00    +0.000 A 
ATOM     19  C   UNL     1       0.521   9.076  21.743  0.00  0.00    +0.000 A 
ATOM     20  C   UNL     1      -0.212  10.244  21.948  0.00  0.00    +0.000 A 
ATOM     21  C   UNL     1      -0.351  11.173  20.917  0.00  0.00    +0.000 A 
ATOM     22  C   UNL     1       0.282  10.970  19.689  0.00  0.00    +0.000 A 
ATOM     23  C   UNL     1       0.967   9.766  19.477  0.00  0.00    +0.000 A 
BRANCH  22  24
ATOM     24  N   UNL     1       0.037  11.844  18.620  0.00  0.00    +0.000 N 
ATOM     25  H   UNL     1      -0.606  11.473  17.929  0.00  0.00    +0.000 HD
ATOM     26  H   UNL     1      -0.206  12.786  18.908  0.00  0.00    +0.000 HD
ENDBRANCH  22  24
ENDBRANCH  17  18
ENDBRANCH   3  16
BRANCH   6  27
ATOM     27  O   UNL     1       4.781   1.806  19.819  0.00  0.00    +0.000 OA
ATOM     28  H   UNL     1       4.674   1.474  18.914  0.00  0.00    +0.000 HD
ENDBRANCH   6  27
TORSDOF 7
ENDMDL
MODEL 3
REMARK VINA RESULT:      -8.5      1.496      2.372
REMARK  Name = 
REMARK  8 active torsions:
REMARK  status: ('A' for Active; 'I' for Inactive)
REMARK    1  A    between atoms: C_1  and  C_2
REMARK    2  A    between atoms: C_2  and  O_3
REMARK    3  A    between atoms: O_3  and  C_4
REMARK    4  A    between atoms: C_8  and  C_9
REMARK    5  A    between atoms: C_11  and  C_12
REMARK    6  A    between atoms: C_13  and  C_14
REMARK    7  A    between atoms: C_18  and  N_19
REMARK    8  A    between atoms: C_23  and  O_24
REMARK                            x       y       z     vdW  Elec       q    Type
REMARK                         _______ _______ _______ _____ _____    ______ ____
ROOT
ATOM      1  C   UNL     1       4.089   4.366  18.856  0.00  0.00    +0.000 A 
ATOM      2  C   UNL     1       3.307   5.466  19.287  0.00  0.00    +0.000 A 
ATOM      3  C   UNL     1       2.343   5.351  20.305  0.00  0.00    +0.000 A 
ATOM      4  C   UNL     1       2.178   4.116  20.935  0.00  0.00    +0.000 A 
ATOM      5  C   UNL     1       2.944   3.018  20.548  0.00  0.00    +0.000 A 
ATOM      6  C   UNL     1       3.889   3.150  19.529  0.00  0.00    +0.000 A 
ENDROOT
BRANCH   1  11
ATOM      7  C   UNL     1       6.917   5.655  16.669  0.00  0.00    +0.000 A 
ATOM      8  C   UNL     1       6.789   4.780  15.601  0.00  0.00    +0.000 A 
ATOM      9  C   UNL     1       5.809   3.808  15.677  0.00  0.00    +0.000 A 
ATOM     10  N   UNL     1       4.957   3.665  16.717  0.00  0.00    +0.000 NA
ATOM     11  C   UNL     1       5.065   4.541  17.750  0.00  0.00    +0.000 A 
ATOM     12  C   UNL     1       6.054   5.525  17.755  0.00  0.00    +0.000 A 
BRANCH   7  13
ATOM     13  O   UNL     1       7.826   6.673  16.775  0.00  0.00    +0.000 OA
BRANCH  13  15
ATOM     14  C   UNL     1       7.940   8.850  17.753  0.00  0.00    +0.000 C 
ATOM     15  C   UNL     1       7.878   7.359  18.025  0.00  0.00    +0.000 C 
ENDBRANCH  13  15
ENDBRANCH   7  13
ENDBRANCH   1  11
BRANCH   3  16
ATOM     16  C   UNL     1       1.582   6.545  20.713  0.00  0.00    +0.000 C 
ATOM     17  C   UNL     1       1.740   7.768  20.177  0.00  0.00    +0.000 C 
BRANCH  17  18
ATOM     18  C   UNL     1       0.987   8.966  20.586  0.00  0.00    +0.000 A 
ATOM     19  C   UNL     1       0.896  10.104  19.778  0.00  0.00    +0.000 A 
ATOM     20  C   UNL     1       0.171  11.217  20.204  0.00  0.00    +0.000 A 
ATOM     21  C   UNL     1      -0.495  11.191  21.429  0.00  0.00    +0.000 A 
ATOM     22  C   UNL     1      -0.487  10.039  22.217  0.00  0.00    +0.000 A 
ATOM     23  C   UNL     1       0.293   8.950  21.807  0.00  0.00    +0.000 A 
BRANCH  22  24
ATOM     24  N   UNL     1      -1.052  10.062  23.500  0.00  0.00    +0.000 N 
ATOM     25  H   UNL     1      -1.888  10.634  23.567  0.00  0.00    +0.000 HD
ATOM     26  H   UNL     1      -1.181   9.143  23.908  0.00  0.00    +0.000 HD
ENDBRANCH  22  24
ENDBRANCH  17  18
ENDBRANCH   3  16
BRANCH   6  27
ATOM     27  O   UNL     1       4.652   2.052  19.216  0.00  0.00    +0.000 OA
ATOM     28  H   UNL     1       4.371   1.699  18.357  0.00  0.00    +0.000 HD
ENDBRANCH   6  27
TORSDOF 7
ENDMDL
MODEL 4
REMARK VINA RESULT:      -8.4      1.807      2.767
REMARK  Name = 
REMARK  8 active torsions:
REMARK  status: ('A' for Active; 'I' for Inactive)
REMARK    1  A    between atoms: C_1  and  C_2
REMARK    2  A    between atoms: C_2  and  O_3
REMARK    3  A    between atoms: O_3  and  C_4
REMARK    4  A    between atoms: C_8  and  C_9
REMARK    5  A    between atoms: C_11  and  C_12
REMARK    6  A    between atoms: C_13  and  C_14
REMARK    7  A    between atoms: C_18  and  N_19
REMARK    8  A    between atoms: C_23  and  O_24
REMARK                            x       y       z     vdW  Elec       q    Type
REMARK                         _______ _______ _______ _____ _____    ______ ____
ROOT
ATOM      1  C   UNL     1       3.893   4.443  18.907  0.00  0.00    +0.000 A 
ATOM      2  C   UNL     1       3.117   5.515  19.411  0.00  0.00    +0.000 A 
ATOM      3  C   UNL     1       2.166   5.341  20.433  0.00  0.00    +0.000 A 
ATOM      4  C   UNL     1       2.008   4.071  20.991  0.00  0.00    +0.000 A 
ATOM      5  C   UNL     1       2.768   2.997  20.531  0.00  0.00    +0.000 A 
ATOM      6  C   UNL     1       3.700   3.188  19.510  0.00  0.00    +0.000 A 
ENDROOT
BRANCH   1  11
ATOM      7  C   UNL     1       6.552   5.976  16.666  0.00  0.00    +0.000 A 
ATOM      8  C   UNL     1       6.569   5.024  15.658  0.00  0.00    +0.000 A 
ATOM      9  C   UNL     1       5.735   3.929  15.789  0.00  0.00    +0.000 A 
ATOM     10  N   UNL     1       4.891   3.735  16.827  0.00  0.00    +0.000 NA
ATOM     11  C   UNL     1       4.855   4.683  17.800  0.00  0.00    +0.000 A 
ATOM     12  C   UNL     1       5.696   5.795  17.750  0.00  0.00    +0.000 A 
BRANCH   7  13
ATOM     13  O   UNL     1       7.307   7.116  16.712  0.00  0.00    +0.000 OA
BRANCH  13  15
ATOM     14  C   UNL     1       8.181   8.964  17.950  0.00  0.00    +0.000 C 
ATOM     15  C   UNL     1       7.827   7.489  17.987  0.00  0.00    +0.000 C 
ENDBRANCH  13  15
ENDBRANCH   7  13
ENDBRANCH   1  11
BRANCH   3  16
ATOM     16  C   UNL     1       1.411   6.508  20.920  0.00  0.00    +0.000 C 
ATOM     17  C   UNL     1       1.649   7.778  20.546  0.00  0.00    +0.000 C 
BRANCH  17  18
ATOM     18  C   UNL     1       0.902   8.950  21.035  0.00  0.00    +0.000 A 
ATOM     19  C   UNL     1       0.354   9.005  22.320  0.00  0.00    +0.000 A 
ATOM     20  C   UNL     1      -0.346  10.135  22.743  0.00  0.00    +0.000 A 
ATOM     21  C   UNL     1      -0.478  11.233  21.894  0.00  0.00    +0.000 A 
ATOM     22  C   UNL     1       0.126  11.236  20.636  0.00  0.00    +0.000 A 
ATOM     23  C   UNL     1       0.776  10.073  20.201  0.00  0.00    +0.000 A 
BRANCH  22  24
ATOM     24  N   UNL     1      -0.115  12.289  19.744  0.00  0.00    +0.000 N 
ATOM     25  H   UNL     1       0.157  12.085  18.788  0.00  0.00    +0.000 HD
ATOM     26  H   UNL     1      -1.052  12.673  19.804  0.00  0.00    +0.000 HD
ENDBRANCH  22  24
ENDBRANCH  17  18
ENDBRANCH   3  16
BRANCH   6  27
ATOM     27  O   UNL     1       4.458   2.111  19.122  0.00  0.00    +0.000 OA
ATOM     28  H   UNL     1       4.054   1.696  18.345  0.00  0.00    +0.000 HD
ENDBRANCH   6  27
TORSDOF 7
ENDMDL
MODEL 5
REMARK VINA RESULT:      -8.3      2.476      3.426
REMARK  Name = 
REMARK  8 active torsions:
REMARK  status: ('A' for Active; 'I' for Inactive)
REMARK    1  A    between atoms: C_1  and  C_2
REMARK    2  A    between atoms: C_2  and  O_3
REMARK    3  A    between atoms: O_3  and  C_4
REMARK    4  A    between atoms: C_8  and  C_9
REMARK    5  A    between atoms: C_11  and  C_12
REMARK    6  A    between atoms: C_13  and  C_14
REMARK    7  A    between atoms: C_18  and  N_19
REMARK    8  A    between atoms: C_23  and  O_24
REMARK                            x       y       z     vdW  Elec       q    Type
REMARK                         _______ _______ _______ _____ _____    ______ ____
ROOT
ATOM      1  C   UNL     1       6.175   5.270  15.902  0.00  0.00    +0.000 A 
ATOM      2  C   UNL     1       5.109   6.166  16.160  0.00  0.00    +0.000 A 
ATOM      3  C   UNL     1       4.724   6.524  17.465  0.00  0.00    +0.000 A 
ATOM      4  C   UNL     1       5.442   6.000  18.542  0.00  0.00    +0.000 A 
ATOM      5  C   UNL     1       6.508   5.129  18.324  0.00  0.00    +0.000 A 
ATOM      6  C   UNL     1       6.869   4.780  17.022  0.00  0.00    +0.000 A 
ENDROOT
BRANCH   1  11
ATOM      7  C   UNL     1       6.121   3.710  12.437  0.00  0.00    +0.000 A 
ATOM      8  C   UNL     1       7.279   4.272  11.922  0.00  0.00    +0.000 A 
ATOM      9  C   UNL     1       7.985   5.146  12.727  0.00  0.00    +0.000 A 
ATOM     10  N   UNL     1       7.631   5.476  13.989  0.00  0.00    +0.000 NA
ATOM     11  C   UNL     1       6.511   4.903  14.503  0.00  0.00    +0.000 A 
ATOM     12  C   UNL     1       5.730   4.039  13.734  0.00  0.00    +0.000 A 
BRANCH   7  13
ATOM     13  O   UNL     1       5.292   2.833  11.792  0.00  0.00    +0.000 OA
BRANCH  13  15
ATOM     14  C   UNL     1       3.688   3.764  10.286  0.00  0.00    +0.000 C 
ATOM     15  C   UNL     1       3.921   3.211  11.679  0.00  0.00    +0.000 C 
ENDBRANCH  13  15
ENDBRANCH   7  13
ENDBRANCH   1  11
BRANCH   3  16
ATOM     16  C   UNL     1       3.618   7.478  17.653  0.00  0.00    +0.000 C 
ATOM     17  C   UNL     1       2.824   7.519  18.738  0.00  0.00    +0.000 C 
BRANCH  17  18
ATOM     18  C   UNL     1       1.713   8.466  18.928  0.00  0.00    +0.000 A 
ATOM     19  C   UNL     1       1.116   9.144  17.860  0.00  0.00    +0.000 A 
ATOM     20  C   UNL     1       0.065  10.033  18.086  0.00  0.00    +0.000 A 
ATOM     21  C   UNL     1      -0.420  10.229  19.378  0.00  0.00    +0.000 A 
ATOM     22  C   UNL     1       0.104   9.506  20.451  0.00  0.00    +0.000 A 
ATOM     23  C   UNL     1       1.198   8.661  20.221  0.00  0.00    +0.000 A 
BRANCH  22  24
ATOM     24  N   UNL     1      -0.302   9.799  21.760  0.00  0.00    +0.000 N 
ATOM     25  H   UNL     1       0.441   9.712  22.447  0.00  0.00    +0.000 HD
ATOM     26  H   UNL     1      -0.807  10.674  21.847  0.00  0.00    +0.000 HD
ENDBRANCH  22  24
ENDBRANCH  17  18
ENDBRANCH   3  16
BRANCH   6  27
ATOM     27  O   UNL     1       7.956   3.957  16.856  0.00  0.00    +0.000 OA
ATOM     28  H   UNL     1       7.788   3.347  16.121  0.00  0.00    +0.000 HD
ENDBRANCH   6  27
TORSDOF 7
ENDMDL
MODEL 6
REMARK VINA RESULT:      -8.2      1.271      1.729
REMARK  Name = 
REMARK  8 active torsions:
REMARK  status: ('A' for Active; 'I' for Inactive)
REMARK    1  A    between atoms: C_1  and  C_2
REMARK    2  A    between atoms: C_2  and  O_3
REMARK    3  A    between atoms: O_3  and  C_4
REMARK    4  A    between atoms: C_8  and  C_9
REMARK    5  A    between atoms: C_11  and  C_12
REMARK    6  A    between atoms: C_13  and  C_14
REMARK    7  A    between atoms: C_18  and  N_19
REMARK    8  A    between atoms: C_23  and  O_24
REMARK                            x       y       z     vdW  Elec       q    Type
REMARK                         _______ _______ _______ _____ _____    ______ ____
ROOT
ATOM      1  C   UNL     1       3.969   4.434  19.461  0.00  0.00    +0.000 A 
ATOM      2  C   UNL     1       3.153   5.504  19.901  0.00  0.00    +0.000 A 
ATOM      3  C   UNL     1       1.874   5.300  20.450  0.00  0.00    +0.000 A 
ATOM      4  C   UNL     1       1.409   3.991  20.595  0.00  0.00    +0.000 A 
ATOM      5  C   UNL     1       2.194   2.913  20.189  0.00  0.00    +0.000 A 
ATOM      6  C   UNL     1       3.457   3.138  19.638  0.00  0.00    +0.000 A 
ENDROOT
BRANCH   1  11
ATOM      7  C   UNL     1       6.872   4.708  17.024  0.00  0.00    +0.000 A 
ATOM      8  C   UNL     1       7.823   5.254  17.871  0.00  0.00    +0.000 A 
ATOM      9  C   UNL     1       7.448   5.527  19.173  0.00  0.00    +0.000 A 
ATOM     10  N   UNL     1       6.219   5.279  19.680  0.00  0.00    +0.000 NA
ATOM     11  C   UNL     1       5.296   4.716  18.855  0.00  0.00    +0.000 A 
ATOM     12  C   UNL     1       5.596   4.449  17.520  0.00  0.00    +0.000 A 
BRANCH   7  13
ATOM     13  O   UNL     1       7.057   4.377  15.708  0.00  0.00    +0.000 OA
BRANCH  13  15
ATOM     14  C   UNL     1       6.011   3.876  13.619  0.00  0.00    +0.000 C 
ATOM     15  C   UNL     1       6.073   4.844  14.786  0.00  0.00    +0.000 C 
ENDBRANCH  13  15
ENDBRANCH   7  13
ENDBRANCH   1  11
BRANCH   3  16
ATOM     16  C   UNL     1       1.092   6.462  20.905  0.00  0.00    +0.000 C 
ATOM     17  C   UNL     1       1.489   7.741  20.784  0.00  0.00    +0.000 C 
BRANCH  17  18
ATOM     18  C   UNL     1       0.714   8.906  21.243  0.00  0.00    +0.000 A 
ATOM     19  C   UNL     1       0.284   9.045  22.567  0.00  0.00    +0.000 A 
ATOM     20  C   UNL     1      -0.447  10.166  22.959  0.00  0.00    +0.000 A 
ATOM     21  C   UNL     1      -0.730  11.174  22.038  0.00  0.00    +0.000 A 
ATOM     22  C   UNL     1      -0.245  11.099  20.732  0.00  0.00    +0.000 A 
ATOM     23  C   UNL     1       0.437   9.941  20.334  0.00  0.00    +0.000 A 
BRANCH  22  24
ATOM     24  N   UNL     1      -0.636  12.052  19.781  0.00  0.00    +0.000 N 
ATOM     25  H   UNL     1      -1.642  12.129  19.671  0.00  0.00    +0.000 HD
ATOM     26  H   UNL     1      -0.191  12.956  19.899  0.00  0.00    +0.000 HD
ENDBRANCH  22  24
ENDBRANCH  17  18
ENDBRANCH   3  16
BRANCH   6  27
ATOM     27  O   UNL     1       4.212   2.043  19.296  0.00  0.00    +0.000 OA
ATOM     28  H   UNL     1       3.694   1.463  18.717  0.00  0.00    +0.000 HD
ENDBRANCH   6  27
TORSDOF 7
ENDMDL
MODEL 7
REMARK VINA RESULT:      -8.1      5.438      6.662
REMARK  Name = 
REMARK  8 active torsions:
REMARK  status: ('A' for Active; 'I' for Inactive)
REMARK    1  A    between atoms: C_1  and  C_2
REMARK    2  A    between atoms: C_2  and  O_3
REMARK    3  A    between atoms: O_3  and  C_4
REMARK    4  A    between atoms: C_8  and  C_9
REMARK    5  A    between atoms: C_11  and  C_12
REMARK    6  A    between atoms: C_13  and  C_14
REMARK    7  A    between atoms: C_18  and  N_19
REMARK    8  A    between atoms: C_23  and  O_24
REMARK                            x       y       z     vdW  Elec       q    Type
REMARK                         _______ _______ _______ _____ _____    ______ ____
ROOT
ATOM      1  C   UNL     1       6.885   5.134  16.042  0.00  0.00    +0.000 A 
ATOM      2  C   UNL     1       7.555   6.253  16.596  0.00  0.00    +0.000 A 
ATOM      3  C   UNL     1       7.470   6.582  17.961  0.00  0.00    +0.000 A 
ATOM      4  C   UNL     1       6.726   5.755  18.804  0.00  0.00    +0.000 A 
ATOM      5  C   UNL     1       6.068   4.636  18.296  0.00  0.00    +0.000 A 
ATOM      6  C   UNL     1       6.157   4.331  16.936  0.00  0.00    +0.000 A 
ENDROOT
BRANCH   1  11
ATOM      7  C   UNL     1       6.301   3.741  12.555  0.00  0.00    +0.000 A 
ATOM      8  C   UNL     1       7.305   4.413  11.876  0.00  0.00    +0.000 A 
ATOM      9  C   UNL     1       8.087   5.300  12.592  0.00  0.00    +0.000 A 
ATOM     10  N   UNL     1       7.948   5.541  13.915  0.00  0.00    +0.000 NA
ATOM     11  C   UNL     1       6.982   4.860  14.585  0.00  0.00    +0.000 A 
ATOM     12  C   UNL     1       6.133   3.977  13.918  0.00  0.00    +0.000 A 
BRANCH   7  13
ATOM     13  O   UNL     1       5.428   2.834  12.017  0.00  0.00    +0.000 OA
BRANCH  13  15
ATOM     14  C   UNL     1       3.808   3.618  10.445  0.00  0.00    +0.000 C 
ATOM     15  C   UNL     1       4.069   3.248  11.893  0.00  0.00    +0.000 C 
ENDBRANCH  13  15
ENDBRANCH   7  13
ENDBRANCH   1  11
BRANCH   3  16
ATOM     16  C   UNL     1       8.212   7.749  18.467  0.00  0.00    +0.000 C 
ATOM     17  C   UNL     1       8.070   9.002  18.000  0.00  0.00    +0.000 C 
BRANCH  17  18
ATOM     18  C   UNL     1       8.814  10.172  18.498  0.00  0.00    +0.000 A 
ATOM     19  C   UNL     1       9.415  10.194  19.760  0.00  0.00    +0.000 A 
ATOM     20  C   UNL     1      10.112  11.323  20.192  0.00  0.00    +0.000 A 
ATOM     21  C   UNL     1      10.238  12.430  19.353  0.00  0.00    +0.000 A 
ATOM     22  C   UNL     1       9.716  12.404  18.059  0.00  0.00    +0.000 A 
ATOM     23  C   UNL     1       8.968  11.288  17.659  0.00  0.00    +0.000 A 
BRANCH  22  24
ATOM     24  N   UNL     1       9.738  13.561  17.269  0.00  0.00    +0.000 N 
ATOM     25  H   UNL     1      10.478  14.210  17.517  0.00  0.00    +0.000 HD
ATOM     26  H   UNL     1       9.704  13.379  16.272  0.00  0.00    +0.000 HD
ENDBRANCH  22  24
ENDBRANCH  17  18
ENDBRANCH   3  16
BRANCH   6  27
ATOM     27  O   UNL     1       5.531   3.193  16.491  0.00  0.00    +0.000 OA
ATOM     28  H   UNL     1       5.983   2.866  15.698  0.00  0.00    +0.000 HD
ENDBRANCH   6  27
TORSDOF 7
ENDMDL
MODEL 8
REMARK VINA RESULT:      -8.0      5.229      6.463
REMARK  Name = 
REMARK  8 active torsions:
REMARK  status: ('A' for Active; 'I' for Inactive)
REMARK    1  A    between atoms: C_1  and  C_2
REMARK    2  A    between atoms: C_2  and  O_3
REMARK    3  A    between atoms: O_3  and  C_4
REMARK    4  A    between atoms: C_8  and  C_9
REMARK    5  A    between atoms: C_11  and  C_12
REMARK    6  A    between atoms: C_13  and  C_14
REMARK    7  A    between atoms: C_18  and  N_19
REMARK    8  A    between atoms: C_23  and  O_24
REMARK                            x       y       z     vdW  Elec       q    Type
REMARK                         _______ _______ _______ _____ _____    ______ ____
ROOT
ATOM      1  C   UNL     1       6.823   5.087  16.112  0.00  0.00    +0.000 A 
ATOM      2  C   UNL     1       7.517   6.183  16.682  0.00  0.00    +0.000 A 
ATOM      3  C   UNL     1       7.429   6.501  18.049  0.00  0.00    +0.000 A 
ATOM      4  C   UNL     1       6.656   5.685  18.878  0.00  0.00    +0.000 A 
ATOM      5  C   UNL     1       5.975   4.588  18.354  0.00  0.00    +0.000 A 
ATOM      6  C   UNL     1       6.067   4.295  16.992  0.00  0.00    +0.000 A 
ENDROOT
BRANCH   1  11
ATOM      7  C   UNL     1       6.258   3.714  12.614  0.00  0.00    +0.000 A 
ATOM      8  C   UNL     1       7.258   4.400  11.942  0.00  0.00    +0.000 A 
ATOM      9  C   UNL     1       8.031   5.289  12.666  0.00  0.00    +0.000 A 
ATOM     10  N   UNL     1       7.887   5.519  13.990  0.00  0.00    +0.000 NA
ATOM     11  C   UNL     1       6.926   4.825  14.653  0.00  0.00    +0.000 A 
ATOM     12  C   UNL     1       6.086   3.939  13.978  0.00  0.00    +0.000 A 
BRANCH   7  13
ATOM     13  O   UNL     1       5.395   2.804  12.067  0.00  0.00    +0.000 OA
BRANCH  13  15
ATOM     14  C   UNL     1       3.826   3.644  10.473  0.00  0.00    +0.000 C 
ATOM     15  C   UNL     1       4.039   3.218  11.913  0.00  0.00    +0.000 C 
ENDBRANCH  13  15
ENDBRANCH   7  13
ENDBRANCH   1  11
BRANCH   3  16
ATOM     16  C   UNL     1       8.196   7.644  18.573  0.00  0.00    +0.000 C 
ATOM     17  C   UNL     1       8.237   8.860  18.000  0.00  0.00    +0.000 C 
BRANCH  17  18
ATOM     18  C   UNL     1       9.008  10.004  18.515  0.00  0.00    +0.000 A 
ATOM     19  C   UNL     1       9.744  10.848  17.678  0.00  0.00    +0.000 A 
ATOM     20  C   UNL     1      10.460  11.922  18.209  0.00  0.00    +0.000 A 
ATOM     21  C   UNL     1      10.421  12.179  19.579  0.00  0.00    +0.000 A 
ATOM     22  C   UNL     1       9.631  11.400  20.426  0.00  0.00    +0.000 A 
ATOM     23  C   UNL     1       8.964  10.290  19.890  0.00  0.00    +0.000 A 
BRANCH  22  24
ATOM     24  N   UNL     1       9.694  11.587  21.813  0.00  0.00    +0.000 N 
ATOM     25  H   UNL     1      10.286  10.913  22.289  0.00  0.00    +0.000 HD
ATOM     26  H   UNL     1       9.897  12.541  22.091  0.00  0.00    +0.000 HD
ENDBRANCH  22  24
ENDBRANCH  17  18
ENDBRANCH   3  16
BRANCH   6  27
ATOM     27  O   UNL     1       5.416   3.177  16.531  0.00  0.00    +0.000 OA
ATOM     28  H   UNL     1       5.947   2.391  16.728  0.00  0.00    +0.000 HD
ENDBRANCH   6  27
TORSDOF 7
ENDMDL
MODEL 9
REMARK VINA RESULT:      -7.9      4.440      7.394
REMARK  Name = 
REMARK  8 active torsions:
REMARK  status: ('A' for Active; 'I' for Inactive)
REMARK    1  A    between atoms: C_1  and  C_2
REMARK    2  A    between atoms: C_2  and  O_3
REMARK    3  A    between atoms: O_3  and  C_4
REMARK    4  A    between atoms: C_8  and  C_9
REMARK    5  A    between atoms: C_11  and  C_12
REMARK    6  A    between atoms: C_13  and  C_14
REMARK    7  A    between atoms: C_18  and  N_19
REMARK    8  A    between atoms: C_23  and  O_24
REMARK                            x       y       z     vdW  Elec       q    Type
REMARK                         _______ _______ _______ _____ _____    ______ ____
ROOT
ATOM      1  C   UNL     1       5.344   5.160  18.079  0.00  0.00    +0.000 A 
ATOM      2  C   UNL     1       5.935   6.443  18.190  0.00  0.00    +0.000 A 
ATOM      3  C   UNL     1       6.978   6.868  17.348  0.00  0.00    +0.000 A 
ATOM      4  C   UNL     1       7.422   6.005  16.345  0.00  0.00    +0.000 A 
ATOM      5  C   UNL     1       6.851   4.742  16.195  0.00  0.00    +0.000 A 
ATOM      6  C   UNL     1       5.823   4.335  17.047  0.00  0.00    +0.000 A 
ENDROOT
BRANCH   1  11
ATOM      7  C   UNL     1       2.342   5.200  20.408  0.00  0.00    +0.000 A 
ATOM      8  C   UNL     1       2.355   3.874  20.811  0.00  0.00    +0.000 A 
ATOM      9  C   UNL     1       3.323   3.045  20.274  0.00  0.00    +0.000 A 
ATOM     10  N   UNL     1       4.268   3.448  19.395  0.00  0.00    +0.000 NA
ATOM     11  C   UNL     1       4.271   4.755  19.023  0.00  0.00    +0.000 A 
ATOM     12  C   UNL     1       3.301   5.638  19.497  0.00  0.00    +0.000 A 
BRANCH   7  13
ATOM     13  O   UNL     1       1.462   6.162  20.824  0.00  0.00    +0.000 OA
BRANCH  13  15
ATOM     14  C   UNL     1       1.065   8.442  21.418  0.00  0.00    +0.000 C 
ATOM     15  C   UNL     1       1.753   7.505  20.443  0.00  0.00    +0.000 C 
ENDBRANCH  13  15
ENDBRANCH   7  13
ENDBRANCH   1  11
BRANCH   3  16
ATOM     16  C   UNL     1       7.528   8.224  17.512  0.00  0.00    +0.000 C 
ATOM     17  C   UNL     1       8.351   8.596  18.508  0.00  0.00    +0.000 C 
BRANCH  17  18
ATOM     18  C   UNL     1       8.899   9.953  18.680  0.00  0.00    +0.000 A 
ATOM     19  C   UNL     1       9.851  10.257  19.659  0.00  0.00    +0.000 A 
ATOM     20  C   UNL     1      10.343  11.556  19.787  0.00  0.00    +0.000 A 
ATOM     21  C   UNL     1       9.911  12.557  18.917  0.00  0.00    +0.000 A 
ATOM     22  C   UNL     1       9.022  12.263  17.882  0.00  0.00    +0.000 A 
ATOM     23  C   UNL     1       8.490  10.969  17.801  0.00  0.00    +0.000 A 
BRANCH  22  24
ATOM     24  N   UNL     1       8.498  13.295  17.092  0.00  0.00    +0.000 N 
ATOM     25  H   UNL     1       8.267  14.133  17.616  0.00  0.00    +0.000 HD
ATOM     26  H   UNL     1       9.048  13.498  16.264  0.00  0.00    +0.000 HD
ENDBRANCH  22  24
ENDBRANCH  17  18
ENDBRANCH   3  16
BRANCH   6  27
ATOM     27  O   UNL     1       5.260   3.101  16.831  0.00  0.00    +0.000 OA
ATOM     28  H   UNL     1       5.502   2.506  17.557  0.00  0.00    +0.000 HD
ENDBRANCH   6  27
TORSDOF 7
ENDMDL
