MODEL 1
REMARK VINA RESULT:      -8.7      0.000      0.000
REMARK  Name = 
REMARK  9 active torsions:
REMARK  status: ('A' for Active; 'I' for Inactive)
REMARK    1  A    between atoms: C_1  and  C_2
REMARK    2  A    between atoms: C_8  and  C_9
REMARK    3  A    between atoms: N_11  and  CA_12
REMARK    4  A    between atoms: CA_12  and  CB_13
REMARK    5  A    between atoms: CA_12  and  C_14
REMARK    6  A    between atoms: CA_20  and  C_21
REMARK    7  A    between atoms: N_23  and  CA_24
REMARK    8  A    between atoms: CA_24  and  CB_25
REMARK    9  A    between atoms: CA_24  and  C_26
REMARK                            x       y       z     vdW  Elec       q    Type
REMARK                         _______ _______ _______ _____ _____    ______ ____
ROOT
ATOM      1  C   ALA A   1       4.260   6.536  17.225  0.00  0.00    +0.000 C 
ATOM      2  O   ALA A   1       4.422   7.148  16.170  0.00  0.00    +0.000 OA
ATOM      3  N   PRO A   2       5.338   5.926  17.861  0.00  0.00    +0.000 N 
ATOM      4  CD  PRO A   2       5.351   5.216  19.129  0.00  0.00    +0.000 C 
ATOM      5  CG  PRO A   2       6.650   5.664  19.775  0.00  0.00    +0.000 C 
ATOM      6  CB  PRO A   2       7.616   5.706  18.601  0.00  0.00    +0.000 C 
ATOM      7  CA  PRO A   2       6.730   6.028  17.369  0.00  0.00    +0.000 C 
ENDROOT
BRANCH   7   8
ATOM      8  C   PRO A   2       7.063   5.000  16.259  0.00  0.00    +0.000 C 
ATOM      9  O   PRO A   2       7.824   4.051  16.451  0.00  0.00    +0.000 OA
ATOM     10  N   ALA A   3       6.561   5.259  15.006  0.00  0.00    +0.000 N 
ATOM     11  H   ALA A   3       6.076   6.138  14.829  0.00  0.00    +0.000 HD
BRANCH  10  12
ATOM     12  CA  ALA A   3       6.837   4.363  13.897  0.00  0.00    +0.000 C 
ATOM     13  CB  ALA A   3       5.553   3.912  13.215  0.00  0.00    +0.000 C 
BRANCH  12  14
ATOM     14  C   ALA A   3       7.744   5.014  12.871  0.00  0.00    +0.000 C 
ATOM     15  O   ALA A   3       8.571   5.884  13.133  0.00  0.00    +0.000 OA
ENDBRANCH  12  14
ENDBRANCH  10  12
ENDBRANCH   7   8
BRANCH   1  16
ATOM     16  CA  ALA A   1       2.840   6.442  17.889  0.00  0.00    +0.000 C 
ATOM     17  CB  ALA A   1       2.556   7.628  18.812  0.00  0.00    +0.000 C 
BRANCH  16  20
ATOM     18  C   UNK A   0       1.803   4.223  18.231  0.00  0.00    +0.000 C 
ATOM     19  O   UNK A   0       1.040   4.388  17.283  0.00  0.00    +0.000 OA
ATOM     20  N   ALA A   1       2.679   5.206  18.648  0.00  0.00    +0.000 N 
ATOM     21  H   ALA A   1       3.344   4.988  19.386  0.00  0.00    +0.000 HD
BRANCH  18  29
ATOM     22  C   UNK A   0       4.049   1.942  17.741  0.00  0.00    +0.000 C 
ATOM     23  C   UNK A   0       4.091   2.158  19.240  0.00  0.00    +0.000 C 
ATOM     24  O   UNK A   0       5.098   1.885  19.893  0.00  0.00    +0.000 OA
ATOM     25  N   UNK A   0       2.965   2.697  19.816  0.00  0.00    +0.000 N 
ATOM     26  C   UNK A   0       2.848   2.986  21.234  0.00  0.00    +0.000 C 
ATOM     27  C   UNK A   0       1.384   2.704  21.527  0.00  0.00    +0.000 C 
ATOM     28  C   UNK A   0       0.676   3.154  20.249  0.00  0.00    +0.000 C 
ATOM     29  C   UNK A   0       1.704   2.965  19.125  0.00  0.00    +0.000 C 
ENDBRANCH  18  29
ENDBRANCH  16  20
ENDBRANCH   1  16
TORSDOF 6
ENDMDL
MODEL 2
REMARK VINA RESULT:      -7.7      4.177      6.896
REMARK  Name = 
REMARK  9 active torsions:
REMARK  status: ('A' for Active; 'I' for Inactive)
REMARK    1  A    between atoms: C_1  and  C_2
REMARK    2  A    between atoms: C_8  and  C_9
REMARK    3  A    between atoms: N_11  and  CA_12
REMARK    4  A    between atoms: CA_12  and  CB_13
REMARK    5  A    between atoms: CA_12  and  C_14
REMARK    6  A    between atoms: CA_20  and  C_21
REMARK    7  A    between atoms: N_23  and  CA_24
REMARK    8  A    between atoms: CA_24  and  CB_25
REMARK    9  A    between atoms: CA_24  and  C_26
REMARK                            x       y       z     vdW  Elec       q    Type
REMARK                         _______ _______ _______ _____ _____    ______ ____
ROOT
ATOM      1  C   ALA A   1       2.026   8.865  18.453  0.00  0.00    +0.000 C 
ATOM      2  O   ALA A   1       1.859   9.581  17.466  0.00  0.00    +0.000 OA
ATOM      3  N   PRO A   2       1.381   9.152  19.652  0.00  0.00    +0.000 N 
ATOM      4  CD  PRO A   2       1.410   8.398  20.894  0.00  0.00    +0.000 C 
ATOM      5  CG  PRO A   2      -0.024   8.466  21.388  0.00  0.00    +0.000 C 
ATOM      6  CB  PRO A   2      -0.430   9.893  21.052  0.00  0.00    +0.000 C 
ATOM      7  CA  PRO A   2       0.415  10.264  19.805  0.00  0.00    +0.000 C 
ENDROOT
BRANCH   7   8
ATOM      8  C   PRO A   2       1.094  11.630  20.077  0.00  0.00    +0.000 C 
ATOM      9  O   PRO A   2       1.267  12.061  21.217  0.00  0.00    +0.000 OA
ATOM     10  N   ALA A   3       1.393  12.401  18.979  0.00  0.00    +0.000 N 
ATOM     11  H   ALA A   3       1.086  12.102  18.054  0.00  0.00    +0.000 HD
BRANCH  10  12
ATOM     12  CA  ALA A   3       2.011  13.706  19.136  0.00  0.00    +0.000 C 
ATOM     13  CB  ALA A   3       3.234  13.852  18.240  0.00  0.00    +0.000 C 
BRANCH  12  14
ATOM     14  C   ALA A   3       1.033  14.823  18.829  0.00  0.00    +0.000 C 
ATOM     15  O   ALA A   3      -0.158  14.800  19.127  0.00  0.00    +0.000 OA
ENDBRANCH  12  14
ENDBRANCH  10  12
ENDBRANCH   7   8
BRANCH   1  16
ATOM     16  CA  ALA A   1       2.956   7.602  18.379  0.00  0.00    +0.000 C 
ATOM     17  CB  ALA A   1       3.696   7.509  17.044  0.00  0.00    +0.000 C 
BRANCH  16  20
ATOM     18  C   UNK A   0       2.713   5.354  19.381  0.00  0.00    +0.000 C 
ATOM     19  O   UNK A   0       3.850   5.391  19.842  0.00  0.00    +0.000 OA
ATOM     20  N   ALA A   1       2.208   6.367  18.589  0.00  0.00    +0.000 N 
ATOM     21  H   ALA A   1       1.234   6.322  18.302  0.00  0.00    +0.000 HD
BRANCH  18  29
ATOM     22  C   UNK A   0       3.061   3.125  17.058  0.00  0.00    +0.000 C 
ATOM     23  C   UNK A   0       3.205   2.324  18.335  0.00  0.00    +0.000 C 
ATOM     24  O   UNK A   0       3.813   1.254  18.349  0.00  0.00    +0.000 OA
ATOM     25  N   UNK A   0       2.649   2.869  19.468  0.00  0.00    +0.000 N 
ATOM     26  C   UNK A   0       2.714   2.241  20.776  0.00  0.00    +0.000 C 
ATOM     27  C   UNK A   0       1.388   2.622  21.411  0.00  0.00    +0.000 C 
ATOM     28  C   UNK A   0       1.133   4.032  20.878  0.00  0.00    +0.000 C 
ATOM     29  C   UNK A   0       1.839   4.085  19.516  0.00  0.00    +0.000 C 
ENDBRANCH  18  29
ENDBRANCH  16  20
ENDBRANCH   1  16
TORSDOF 6
ENDMDL
MODEL 3
REMARK VINA RESULT:      -7.6      2.864      4.896
REMARK  Name = 
REMARK  9 active torsions:
REMARK  status: ('A' for Active; 'I' for Inactive)
REMARK    1  A    between atoms: C_1  and  C_2
REMARK    2  A    between atoms: C_8  and  C_9
REMARK    3  A    between atoms: N_11  and  CA_12
REMARK    4  A    between atoms: CA_12  and  CB_13
REMARK    5  A    between atoms: CA_12  and  C_14
REMARK    6  A    between atoms: CA_20  and  C_21
REMARK    7  A    between atoms: N_23  and  CA_24
REMARK    8  A    between atoms: CA_24  and  CB_25
REMARK    9  A    between atoms: CA_24  and  C_26
REMARK                            x       y       z     vdW  Elec       q    Type
REMARK                         _______ _______ _______ _____ _____    ______ ____
ROOT
ATOM      1  C   ALA A   1       4.406   6.467  17.597  0.00  0.00    +0.000 C 
ATOM      2  O   ALA A   1       4.388   7.065  16.521  0.00  0.00    +0.000 OA
ATOM      3  N   PRO A   2       5.592   5.929  18.087  0.00  0.00    +0.000 N 
ATOM      4  CD  PRO A   2       5.818   5.247  19.350  0.00  0.00    +0.000 C 
ATOM      5  CG  PRO A   2       7.165   5.777  19.807  0.00  0.00    +0.000 C 
ATOM      6  CB  PRO A   2       7.958   5.847  18.511  0.00  0.00    +0.000 C 
ATOM      7  CA  PRO A   2       6.897   6.096  17.408  0.00  0.00    +0.000 C 
ENDROOT
BRANCH   7   8
ATOM      8  C   PRO A   2       7.133   5.065  16.276  0.00  0.00    +0.000 C 
ATOM      9  O   PRO A   2       7.841   4.069  16.433  0.00  0.00    +0.000 OA
ATOM     10  N   ALA A   3       6.611   5.371  15.043  0.00  0.00    +0.000 N 
ATOM     11  H   ALA A   3       6.176   6.280  14.890  0.00  0.00    +0.000 HD
BRANCH  10  12
ATOM     12  CA  ALA A   3       6.799   4.475  13.915  0.00  0.00    +0.000 C 
ATOM     13  CB  ALA A   3       5.469   4.104  13.272  0.00  0.00    +0.000 C 
BRANCH  12  14
ATOM     14  C   ALA A   3       7.706   5.088  12.866  0.00  0.00    +0.000 C 
ATOM     15  O   ALA A   3       8.567   5.930  13.103  0.00  0.00    +0.000 OA
ENDBRANCH  12  14
ENDBRANCH  10  12
ENDBRANCH   7   8
BRANCH   1  16
ATOM     16  CA  ALA A   1       3.096   6.310  18.449  0.00  0.00    +0.000 C 
ATOM     17  CB  ALA A   1       2.266   5.102  18.013  0.00  0.00    +0.000 C 
BRANCH  16  20
ATOM     18  C   UNK A   0       1.803   8.122  19.527  0.00  0.00    +0.000 C 
ATOM     19  O   UNK A   0       1.972   7.635  20.642  0.00  0.00    +0.000 OA
ATOM     20  N   ALA A   1       2.261   7.505  18.379  0.00  0.00    +0.000 N 
ATOM     21  H   ALA A   1       2.164   7.991  17.492  0.00  0.00    +0.000 HD
BRANCH  18  29
ATOM     22  C   UNK A   0      -0.488   8.610  21.763  0.00  0.00    +0.000 C 
ATOM     23  C   UNK A   0       0.213   9.951  21.683  0.00  0.00    +0.000 C 
ATOM     24  O   UNK A   0       0.182  10.741  22.625  0.00  0.00    +0.000 OA
ATOM     25  N   UNK A   0       0.900  10.216  20.522  0.00  0.00    +0.000 N 
ATOM     26  C   UNK A   0       1.641  11.443  20.290  0.00  0.00    +0.000 C 
ATOM     27  C   UNK A   0       1.457  11.685  18.802  0.00  0.00    +0.000 C 
ATOM     28  C   UNK A   0       1.451  10.274  18.213  0.00  0.00    +0.000 C 
ATOM     29  C   UNK A   0       0.911   9.370  19.329  0.00  0.00    +0.000 C 
ENDBRANCH  18  29
ENDBRANCH  16  20
ENDBRANCH   1  16
TORSDOF 6
ENDMDL
MODEL 4
REMARK VINA RESULT:      -7.3      4.268      7.239
REMARK  Name = 
REMARK  9 active torsions:
REMARK  status: ('A' for Active; 'I' for Inactive)
REMARK    1  A    between atoms: C_1  and  C_2
REMARK    2  A    between atoms: C_8  and  C_9
REMARK    3  A    between atoms: N_11  and  CA_12
REMARK    4  A    between atoms: CA_12  and  CB_13
REMARK    5  A    between atoms: CA_12  and  C_14
REMARK    6  A    between atoms: CA_20  and  C_21
REMARK    7  A    between atoms: N_23  and  CA_24
REMARK    8  A    between atoms: CA_24  and  CB_25
REMARK    9  A    between atoms: CA_24  and  C_26
REMARK                            x       y       z     vdW  Elec       q    Type
REMARK                         _______ _______ _______ _____ _____    ______ ____
ROOT
ATOM      1  C   ALA A   1       2.083   8.708  18.233  0.00  0.00    +0.000 C 
ATOM      2  O   ALA A   1       1.903   9.219  17.128  0.00  0.00    +0.000 OA
ATOM      3  N   PRO A   2       1.436   9.210  19.358  0.00  0.00    +0.000 N 
ATOM      4  CD  PRO A   2       1.480   8.708  20.722  0.00  0.00    +0.000 C 
ATOM      5  CG  PRO A   2       0.046   8.848  21.200  0.00  0.00    +0.000 C 
ATOM      6  CB  PRO A   2      -0.383  10.178  20.599  0.00  0.00    +0.000 C 
ATOM      7  CA  PRO A   2       0.453  10.316  19.300  0.00  0.00    +0.000 C 
ENDROOT
BRANCH   7   8
ATOM      8  C   PRO A   2       1.110  11.718  19.301  0.00  0.00    +0.000 C 
ATOM      9  O   PRO A   2       2.090  11.984  18.603  0.00  0.00    +0.000 OA
ATOM     10  N   ALA A   3       0.624  12.629  20.208  0.00  0.00    +0.000 N 
ATOM     11  H   ALA A   3      -0.072  12.335  20.893  0.00  0.00    +0.000 HD
BRANCH  10  12
ATOM     12  CA  ALA A   3       1.191  13.963  20.298  0.00  0.00    +0.000 C 
ATOM     13  CB  ALA A   3       0.560  14.904  19.282  0.00  0.00    +0.000 C 
BRANCH  12  14
ATOM     14  C   ALA A   3       1.023  14.544  21.688  0.00  0.00    +0.000 C 
ATOM     15  O   ALA A   3       0.378  14.011  22.587  0.00  0.00    +0.000 OA
ENDBRANCH  12  14
ENDBRANCH  10  12
ENDBRANCH   7   8
BRANCH   1  16
ATOM     16  CA  ALA A   1       3.034   7.469  18.399  0.00  0.00    +0.000 C 
ATOM     17  CB  ALA A   1       3.931   7.265  17.177  0.00  0.00    +0.000 C 
BRANCH  16  20
ATOM     18  C   UNK A   0       2.778   5.257  19.475  0.00  0.00    +0.000 C 
ATOM     19  O   UNK A   0       3.908   5.312  19.952  0.00  0.00    +0.000 OA
ATOM     20  N   ALA A   1       2.283   6.241  18.641  0.00  0.00    +0.000 N 
ATOM     21  H   ALA A   1       1.314   6.185  18.342  0.00  0.00    +0.000 HD
BRANCH  18  29
ATOM     22  C   UNK A   0       3.061   3.008  17.164  0.00  0.00    +0.000 C 
ATOM     23  C   UNK A   0       3.233   2.217  18.444  0.00  0.00    +0.000 C 
ATOM     24  O   UNK A   0       3.838   1.145  18.452  0.00  0.00    +0.000 OA
ATOM     25  N   UNK A   0       2.707   2.773  19.586  0.00  0.00    +0.000 N 
ATOM     26  C   UNK A   0       2.802   2.156  20.897  0.00  0.00    +0.000 C 
ATOM     27  C   UNK A   0       1.493   2.547  21.561  0.00  0.00    +0.000 C 
ATOM     28  C   UNK A   0       1.230   3.954  21.022  0.00  0.00    +0.000 C 
ATOM     29  C   UNK A   0       1.903   3.993  19.643  0.00  0.00    +0.000 C 
ENDBRANCH  18  29
ENDBRANCH  16  20
ENDBRANCH   1  16
TORSDOF 6
ENDMDL
MODEL 5
REMARK VINA RESULT:      -7.1      4.253      7.216
REMARK  Name = 
REMARK  9 active torsions:
REMARK  status: ('A' for Active; 'I' for Inactive)
REMARK    1  A    between atoms: C_1  and  C_2
REMARK    2  A    between atoms: C_8  and  C_9
REMARK    3  A    between atoms: N_11  and  CA_12
REMARK    4  A    between atoms: CA_12  and  CB_13
REMARK    5  A    between atoms: CA_12  and  C_14
REMARK    6  A    between atoms: CA_20  and  C_21
REMARK    7  A    between atoms: N_23  and  CA_24
REMARK    8  A    between atoms: CA_24  and  CB_25
REMARK    9  A    between atoms: CA_24  and  C_26
REMARK                            x       y       z     vdW  Elec       q    Type
REMARK                         _______ _______ _______ _____ _____    ______ ____
ROOT
ATOM      1  C   ALA A   1       1.488   8.846  18.645  0.00  0.00    +0.000 C 
ATOM      2  O   ALA A   1       0.984   9.258  17.600  0.00  0.00    +0.000 OA
ATOM      3  N   PRO A   2       1.035   9.307  19.877  0.00  0.00    +0.000 N 
ATOM      4  CD  PRO A   2       1.464   8.897  21.205  0.00  0.00    +0.000 C 
ATOM      5  CG  PRO A   2       0.170   8.842  21.997  0.00  0.00    +0.000 C 
ATOM      6  CB  PRO A   2      -0.594  10.052  21.482  0.00  0.00    +0.000 C 
ATOM      7  CA  PRO A   2      -0.103  10.242  20.023  0.00  0.00    +0.000 C 
ENDROOT
BRANCH   7   8
ATOM      8  C   PRO A   2       0.300  11.727  19.844  0.00  0.00    +0.000 C 
ATOM      9  O   PRO A   2       0.041  12.357  18.818  0.00  0.00    +0.000 OA
ATOM     10  N   ALA A   3       1.069  12.283  20.838  0.00  0.00    +0.000 N 
ATOM     11  H   ALA A   3       1.416  11.696  21.595  0.00  0.00    +0.000 HD
BRANCH  10  12
ATOM     12  CA  ALA A   3       1.514  13.663  20.747  0.00  0.00    +0.000 C 
ATOM     13  CB  ALA A   3       0.873  14.525  21.826  0.00  0.00    +0.000 C 
BRANCH  12  14
ATOM     14  C   ALA A   3       3.022  13.767  20.856  0.00  0.00    +0.000 C 
ATOM     15  O   ALA A   3       3.643  13.745  21.915  0.00  0.00    +0.000 OA
ENDBRANCH  12  14
ENDBRANCH  10  12
ENDBRANCH   7   8
BRANCH   1  16
ATOM     16  CA  ALA A   1       2.640   7.780  18.613  0.00  0.00    +0.000 C 
ATOM     17  CB  ALA A   1       3.456   7.853  17.321  0.00  0.00    +0.000 C 
BRANCH  16  20
ATOM     18  C   UNK A   0       2.826   5.473  19.486  0.00  0.00    +0.000 C 
ATOM     19  O   UNK A   0       3.955   5.685  19.920  0.00  0.00    +0.000 OA
ATOM     20  N   ALA A   1       2.125   6.423  18.768  0.00  0.00    +0.000 N 
ATOM     21  H   ALA A   1       1.165   6.224  18.503  0.00  0.00    +0.000 HD
BRANCH  18  29
ATOM     22  C   UNK A   0       4.485   3.074  18.081  0.00  0.00    +0.000 C 
ATOM     23  C   UNK A   0       4.190   2.531  19.465  0.00  0.00    +0.000 C 
ATOM     24  O   UNK A   0       4.894   1.656  19.967  0.00  0.00    +0.000 OA
ATOM     25  N   UNK A   0       3.124   3.089  20.129  0.00  0.00    +0.000 N 
ATOM     26  C   UNK A   0       2.718   2.698  21.467  0.00  0.00    +0.000 C 
ATOM     27  C   UNK A   0       1.206   2.837  21.427  0.00  0.00    +0.000 C 
ATOM     28  C   UNK A   0       0.986   4.048  20.519  0.00  0.00    +0.000 C 
ATOM     29  C   UNK A   0       2.191   4.066  19.568  0.00  0.00    +0.000 C 
ENDBRANCH  18  29
ENDBRANCH  16  20
ENDBRANCH   1  16
TORSDOF 6
ENDMDL
MODEL 6
REMARK VINA RESULT:      -7.1      4.039      6.734
REMARK  Name = 
REMARK  9 active torsions:
REMARK  status: ('A' for Active; 'I' for Inactive)
REMARK    1  A    between atoms: C_1  and  C_2
REMARK    2  A    between atoms: C_8  and  C_9
REMARK    3  A    between atoms: N_11  and  CA_12
REMARK    4  A    between atoms: CA_12  and  CB_13
REMARK    5  A    between atoms: CA_12  and  C_14
REMARK    6  A    between atoms: CA_20  and  C_21
REMARK    7  A    between atoms: N_23  and  CA_24
REMARK    8  A    between atoms: CA_24  and  CB_25
REMARK    9  A    between atoms: CA_24  and  C_26
REMARK                            x       y       z     vdW  Elec       q    Type
REMARK                         _______ _______ _______ _____ _____    ______ ____
ROOT
ATOM      1  C   ALA A   1       1.985   8.743  18.325  0.00  0.00    +0.000 C 
ATOM      2  O   ALA A   1       1.778   9.310  17.253  0.00  0.00    +0.000 OA
ATOM      3  N   PRO A   2       1.353   9.175  19.487  0.00  0.00    +0.000 N 
ATOM      4  CD  PRO A   2       1.427   8.601  20.820  0.00  0.00    +0.000 C 
ATOM      5  CG  PRO A   2       0.000   8.696  21.331  0.00  0.00    +0.000 C 
ATOM      6  CB  PRO A   2      -0.456  10.050  20.810  0.00  0.00    +0.000 C 
ATOM      7  CA  PRO A   2       0.355  10.269  19.506  0.00  0.00    +0.000 C 
ENDROOT
BRANCH   7   8
ATOM      8  C   PRO A   2       0.995  11.678  19.571  0.00  0.00    +0.000 C 
ATOM      9  O   PRO A   2       1.270  12.224  20.640  0.00  0.00    +0.000 OA
ATOM     10  N   ALA A   3       1.138  12.348  18.380  0.00  0.00    +0.000 N 
ATOM     11  H   ALA A   3       0.748  11.949  17.527  0.00  0.00    +0.000 HD
BRANCH  10  12
ATOM     12  CA  ALA A   3       1.709  13.684  18.344  0.00  0.00    +0.000 C 
ATOM     13  CB  ALA A   3       0.835  14.681  19.091  0.00  0.00    +0.000 C 
BRANCH  12  14
ATOM     14  C   ALA A   3       3.106  13.705  18.933  0.00  0.00    +0.000 C 
ATOM     15  O   ALA A   3       3.523  14.575  19.692  0.00  0.00    +0.000 OA
ENDBRANCH  12  14
ENDBRANCH  10  12
ENDBRANCH   7   8
BRANCH   1  16
ATOM     16  CA  ALA A   1       2.954   7.509  18.406  0.00  0.00    +0.000 C 
ATOM     17  CB  ALA A   1       3.783   7.344  17.132  0.00  0.00    +0.000 C 
BRANCH  16  20
ATOM     18  C   UNK A   0       2.763   5.282  19.465  0.00  0.00    +0.000 C 
ATOM     19  O   UNK A   0       3.909   5.347  19.902  0.00  0.00    +0.000 OA
ATOM     20  N   ALA A   1       2.228   6.269  18.660  0.00  0.00    +0.000 N 
ATOM     21  H   ALA A   1       1.249   6.204  18.393  0.00  0.00    +0.000 HD
BRANCH  18  29
ATOM     22  C   UNK A   0       3.024   3.047  17.136  0.00  0.00    +0.000 C 
ATOM     23  C   UNK A   0       3.238   2.253  18.408  0.00  0.00    +0.000 C 
ATOM     24  O   UNK A   0       3.859   1.191  18.396  0.00  0.00    +0.000 OA
ATOM     25  N   UNK A   0       2.732   2.797  19.565  0.00  0.00    +0.000 N 
ATOM     26  C   UNK A   0       2.867   2.175  20.870  0.00  0.00    +0.000 C 
ATOM     27  C   UNK A   0       1.569   2.544  21.567  0.00  0.00    +0.000 C 
ATOM     28  C   UNK A   0       1.273   3.949  21.042  0.00  0.00    +0.000 C 
ATOM     29  C   UNK A   0       1.911   4.004  19.647  0.00  0.00    +0.000 C 
ENDBRANCH  18  29
ENDBRANCH  16  20
ENDBRANCH   1  16
TORSDOF 6
ENDMDL
MODEL 7
REMARK VINA RESULT:      -7.1      4.808      7.645
REMARK  Name = 
REMARK  9 active torsions:
REMARK  status: ('A' for Active; 'I' for Inactive)
REMARK    1  A    between atoms: C_1  and  C_2
REMARK    2  A    between atoms: C_8  and  C_9
REMARK    3  A    between atoms: N_11  and  CA_12
REMARK    4  A    between atoms: CA_12  and  CB_13
REMARK    5  A    between atoms: CA_12  and  C_14
REMARK    6  A    between atoms: CA_20  and  C_21
REMARK    7  A    between atoms: N_23  and  CA_24
REMARK    8  A    between atoms: CA_24  and  CB_25
REMARK    9  A    between atoms: CA_24  and  C_26
REMARK                            x       y       z     vdW  Elec       q    Type
REMARK                         _______ _______ _______ _____ _____    ______ ____
ROOT
ATOM      1  C   ALA A   1       1.182   9.332  19.401  0.00  0.00    +0.000 C 
ATOM      2  O   ALA A   1       0.643   9.886  18.443  0.00  0.00    +0.000 OA
ATOM      3  N   PRO A   2       0.854   9.695  20.704  0.00  0.00    +0.000 N 
ATOM      4  CD  PRO A   2       1.338   9.120  21.948  0.00  0.00    +0.000 C 
ATOM      5  CG  PRO A   2       0.101   9.079  22.827  0.00  0.00    +0.000 C 
ATOM      6  CB  PRO A   2      -0.595  10.389  22.493  0.00  0.00    +0.000 C 
ATOM      7  CA  PRO A   2      -0.192  10.692  21.027  0.00  0.00    +0.000 C 
ENDROOT
BRANCH   7   8
ATOM      8  C   PRO A   2       0.317  12.153  20.963  0.00  0.00    +0.000 C 
ATOM      9  O   PRO A   2       0.572  12.804  21.977  0.00  0.00    +0.000 OA
ATOM     10  N   ALA A   3       0.361  12.738  19.720  0.00  0.00    +0.000 N 
ATOM     11  H   ALA A   3      -0.015  12.241  18.914  0.00  0.00    +0.000 HD
BRANCH  10  12
ATOM     12  CA  ALA A   3       0.805  14.113  19.563  0.00  0.00    +0.000 C 
ATOM     13  CB  ALA A   3       1.861  14.234  18.473  0.00  0.00    +0.000 C 
BRANCH  12  14
ATOM     14  C   ALA A   3      -0.354  15.035  19.239  0.00  0.00    +0.000 C 
ATOM     15  O   ALA A   3      -0.327  15.901  18.370  0.00  0.00    +0.000 OA
ENDBRANCH  12  14
ENDBRANCH  10  12
ENDBRANCH   7   8
BRANCH   1  16
ATOM     16  CA  ALA A   1       2.240   8.193  19.177  0.00  0.00    +0.000 C 
ATOM     17  CB  ALA A   1       2.731   8.139  17.730  0.00  0.00    +0.000 C 
BRANCH  16  20
ATOM     18  C   UNK A   0       2.550   5.825  19.820  0.00  0.00    +0.000 C 
ATOM     19  O   UNK A   0       3.766   5.898  19.660  0.00  0.00    +0.000 OA
ATOM     20  N   ALA A   1       1.708   6.883  19.542  0.00  0.00    +0.000 N 
ATOM     21  H   ALA A   1       0.721   6.794  19.769  0.00  0.00    +0.000 HD
BRANCH  18  29
ATOM     22  C   UNK A   0       1.264   4.172  17.350  0.00  0.00    +0.000 C 
ATOM     23  C   UNK A   0       2.117   3.138  18.056  0.00  0.00    +0.000 C 
ATOM     24  O   UNK A   0       2.542   2.149  17.458  0.00  0.00    +0.000 OA
ATOM     25  N   UNK A   0       2.410   3.381  19.377  0.00  0.00    +0.000 N 
ATOM     26  C   UNK A   0       3.229   2.502  20.193  0.00  0.00    +0.000 C 
ATOM     27  C   UNK A   0       2.600   2.619  21.570  0.00  0.00    +0.000 C 
ATOM     28  C   UNK A   0       2.154   4.080  21.632  0.00  0.00    +0.000 C 
ATOM     29  C   UNK A   0       1.873   4.481  20.177  0.00  0.00    +0.000 C 
ENDBRANCH  18  29
ENDBRANCH  16  20
ENDBRANCH   1  16
TORSDOF 6
ENDMDL
MODEL 8
REMARK VINA RESULT:      -7.0      4.022      6.784
REMARK  Name = 
REMARK  9 active torsions:
REMARK  status: ('A' for Active; 'I' for Inactive)
REMARK    1  A    between atoms: C_1  and  C_2
REMARK    2  A    between atoms: C_8  and  C_9
REMARK    3  A    between atoms: N_11  and  CA_12
REMARK    4  A    between atoms: CA_12  and  CB_13
REMARK    5  A    between atoms: CA_12  and  C_14
REMARK    6  A    between atoms: CA_20  and  C_21
REMARK    7  A    between atoms: N_23  and  CA_24
REMARK    8  A    between atoms: CA_24  and  CB_25
REMARK    9  A    between atoms: CA_24  and  C_26
REMARK                            x       y       z     vdW  Elec       q    Type
REMARK                         _______ _______ _______ _____ _____    ______ ____
ROOT
ATOM      1  C   ALA A   1       1.454   8.849  18.595  0.00  0.00    +0.000 C 
ATOM      2  O   ALA A   1       0.934   9.310  17.579  0.00  0.00    +0.000 OA
ATOM      3  N   PRO A   2       1.008   9.237  19.855  0.00  0.00    +0.000 N 
ATOM      4  CD  PRO A   2       1.456   8.763  21.154  0.00  0.00    +0.000 C 
ATOM      5  CG  PRO A   2       0.171   8.648  21.954  0.00  0.00    +0.000 C 
ATOM      6  CB  PRO A   2      -0.615   9.873  21.512  0.00  0.00    +0.000 C 
ATOM      7  CA  PRO A   2      -0.141  10.147  20.061  0.00  0.00    +0.000 C 
ENDROOT
BRANCH   7   8
ATOM      8  C   PRO A   2       0.240  11.645  19.958  0.00  0.00    +0.000 C 
ATOM      9  O   PRO A   2      -0.596  12.543  20.064  0.00  0.00    +0.000 OA
ATOM     10  N   ALA A   3       1.542  11.930  19.623  0.00  0.00    +0.000 N 
ATOM     11  H   ALA A   3       2.175  11.172  19.372  0.00  0.00    +0.000 HD
BRANCH  10  12
ATOM     12  CA  ALA A   3       1.988  13.305  19.482  0.00  0.00    +0.000 C 
ATOM     13  CB  ALA A   3       2.737  13.776  20.720  0.00  0.00    +0.000 C 
BRANCH  12  14
ATOM     14  C   ALA A   3       2.877  13.477  18.265  0.00  0.00    +0.000 C 
ATOM     15  O   ALA A   3       3.910  14.139  18.252  0.00  0.00    +0.000 OA
ENDBRANCH  12  14
ENDBRANCH  10  12
ENDBRANCH   7   8
BRANCH   1  16
ATOM     16  CA  ALA A   1       2.621   7.803  18.495  0.00  0.00    +0.000 C 
ATOM     17  CB  ALA A   1       3.396   7.928  17.183  0.00  0.00    +0.000 C 
BRANCH  16  20
ATOM     18  C   UNK A   0       2.744   5.534  19.473  0.00  0.00    +0.000 C 
ATOM     19  O   UNK A   0       3.789   5.801  20.062  0.00  0.00    +0.000 OA
ATOM     20  N   ALA A   1       2.131   6.434  18.623  0.00  0.00    +0.000 N 
ATOM     21  H   ALA A   1       1.227   6.192  18.226  0.00  0.00    +0.000 HD
BRANCH  18  29
ATOM     22  C   UNK A   0       4.478   3.220  18.015  0.00  0.00    +0.000 C 
ATOM     23  C   UNK A   0       4.190   2.633  19.381  0.00  0.00    +0.000 C 
ATOM     24  O   UNK A   0       4.915   1.764  19.864  0.00  0.00    +0.000 OA
ATOM     25  N   UNK A   0       3.104   3.142  20.053  0.00  0.00    +0.000 N 
ATOM     26  C   UNK A   0       2.702   2.704  21.377  0.00  0.00    +0.000 C 
ATOM     27  C   UNK A   0       1.187   2.802  21.331  0.00  0.00    +0.000 C 
ATOM     28  C   UNK A   0       0.939   4.031  20.455  0.00  0.00    +0.000 C 
ATOM     29  C   UNK A   0       2.148   4.108  19.512  0.00  0.00    +0.000 C 
ENDBRANCH  18  29
ENDBRANCH  16  20
ENDBRANCH   1  16
TORSDOF 6
ENDMDL
MODEL 9
REMARK VINA RESULT:      -7.0      2.638      4.467
REMARK  Name = 
REMARK  9 active torsions:
REMARK  status: ('A' for Active; 'I' for Inactive)
REMARK    1  A    between atoms: C_1  and  C_2
REMARK    2  A    between atoms: C_8  and  C_9
REMARK    3  A    between atoms: N_11  and  CA_12
REMARK    4  A    between atoms: CA_12  and  CB_13
REMARK    5  A    between atoms: CA_12  and  C_14
REMARK    6  A    between atoms: CA_20  and  C_21
REMARK    7  A    between atoms: N_23  and  CA_24
REMARK    8  A    between atoms: CA_24  and  CB_25
REMARK    9  A    between atoms: CA_24  and  C_26
REMARK                            x       y       z     vdW  Elec       q    Type
REMARK                         _______ _______ _______ _____ _____    ______ ____
ROOT
ATOM      1  C   ALA A   1       4.397   6.396  17.679  0.00  0.00    +0.000 C 
ATOM      2  O   ALA A   1       4.328   6.972  16.594  0.00  0.00    +0.000 OA
ATOM      3  N   PRO A   2       5.610   5.889  18.134  0.00  0.00    +0.000 N 
ATOM      4  CD  PRO A   2       5.896   5.235  19.401  0.00  0.00    +0.000 C 
ATOM      5  CG  PRO A   2       7.249   5.799  19.797  0.00  0.00    +0.000 C 
ATOM      6  CB  PRO A   2       7.992   5.858  18.471  0.00  0.00    +0.000 C 
ATOM      7  CA  PRO A   2       6.886   6.066  17.404  0.00  0.00    +0.000 C 
ENDROOT
BRANCH   7   8
ATOM      8  C   PRO A   2       7.099   5.018  16.283  0.00  0.00    +0.000 C 
ATOM      9  O   PRO A   2       7.832   4.040  16.432  0.00  0.00    +0.000 OA
ATOM     10  N   ALA A   3       6.523   5.289  15.066  0.00  0.00    +0.000 N 
ATOM     11  H   ALA A   3       6.063   6.186  14.913  0.00  0.00    +0.000 HD
BRANCH  10  12
ATOM     12  CA  ALA A   3       6.685   4.375  13.948  0.00  0.00    +0.000 C 
ATOM     13  CB  ALA A   3       5.339   3.934  13.391  0.00  0.00    +0.000 C 
BRANCH  12  14
ATOM     14  C   ALA A   3       7.505   4.999  12.836  0.00  0.00    +0.000 C 
ATOM     15  O   ALA A   3       7.485   4.624  11.668  0.00  0.00    +0.000 OA
ENDBRANCH  12  14
ENDBRANCH  10  12
ENDBRANCH   7   8
BRANCH   1  16
ATOM     16  CA  ALA A   1       3.123   6.232  18.583  0.00  0.00    +0.000 C 
ATOM     17  CB  ALA A   1       1.946   5.630  17.815  0.00  0.00    +0.000 C 
BRANCH  16  20
ATOM     18  C   UNK A   0       1.928   7.547  20.303  0.00  0.00    +0.000 C 
ATOM     19  O   UNK A   0       1.458   6.532  20.811  0.00  0.00    +0.000 OA
ATOM     20  N   ALA A   1       2.705   7.505  19.162  0.00  0.00    +0.000 N 
ATOM     21  H   ALA A   1       3.135   8.364  18.832  0.00  0.00    +0.000 HD
BRANCH  18  29
ATOM     22  C   UNK A   0       0.955   9.664  18.055  0.00  0.00    +0.000 C 
ATOM     23  C   UNK A   0      -0.142   9.733  19.097  0.00  0.00    +0.000 C 
ATOM     24  O   UNK A   0      -1.276  10.109  18.803  0.00  0.00    +0.000 OA
ATOM     25  N   UNK A   0       0.191   9.326  20.368  0.00  0.00    +0.000 N 
ATOM     26  C   UNK A   0      -0.746   9.311  21.477  0.00  0.00    +0.000 C 
ATOM     27  C   UNK A   0       0.124   9.663  22.672  0.00  0.00    +0.000 C 
ATOM     28  C   UNK A   0       1.458   8.991  22.348  0.00  0.00    +0.000 C 
ATOM     29  C   UNK A   0       1.532   8.952  20.815  0.00  0.00    +0.000 C 
ENDBRANCH  18  29
ENDBRANCH  16  20
ENDBRANCH   1  16
TORSDOF 6
ENDMDL
