MODEL 1
REMARK VINA RESULT:      -7.6      0.000      0.000
REMARK  Name = 
REMARK  12 active torsions:
REMARK  status: ('A' for Active; 'I' for Inactive)
REMARK    1  A    between atoms: C_1  and  C_2
REMARK    2  A    between atoms: C_2  and  O_3
REMARK    3  A    between atoms: O_3  and  C_4
REMARK    4  A    between atoms: C_7  and  C_8
REMARK    5  A    between atoms: C_11  and  C_12
REMARK    6  A    between atoms: C_12  and  C_13
REMARK    7  A    between atoms: C_13  and  C_14
REMARK    8  A    between atoms: N_16  and  C_17
REMARK    9  A    between atoms: C_17  and  C_18
REMARK   10  A    between atoms: C_18  and  C_19
REMARK   11  A    between atoms: C_27  and  O_28
REMARK   12  A    between atoms: O_28  and  C_29
REMARK                            x       y       z     vdW  Elec       q    Type
REMARK                         _______ _______ _______ _____ _____    ______ ____
ROOT
ATOM      1  C   UNL     1       8.555   9.195  18.339  0.00  0.00    +0.000 A 
ATOM      2  N   UNL     1       7.690   9.198  17.312  0.00  0.00    +0.000 NA
ATOM      3  O   UNL     1       7.250   7.882  17.240  0.00  0.00    +0.000 OA
ATOM      4  C   UNL     1       7.885   7.208  18.239  0.00  0.00    +0.000 A 
ATOM      5  N   UNL     1       8.698   7.963  18.944  0.00  0.00    +0.000 NA
ENDROOT
BRANCH   1   9
ATOM      6  C   UNL     1      10.578  12.756  19.589  0.00  0.00    +0.000 A 
ATOM      7  C   UNL     1      10.672  12.301  18.261  0.00  0.00    +0.000 A 
ATOM      8  C   UNL     1      10.019  11.136  17.847  0.00  0.00    +0.000 A 
ATOM      9  C   UNL     1       9.305  10.369  18.764  0.00  0.00    +0.000 A 
ATOM     10  C   UNL     1       9.303  10.769  20.106  0.00  0.00    +0.000 A 
ATOM     11  C   UNL     1       9.930  11.949  20.534  0.00  0.00    +0.000 A 
BRANCH  11  12
ATOM     12  O   UNL     1       9.762  12.135  21.878  0.00  0.00    +0.000 OA
ATOM     13  C   UNL     1       8.475  12.410  22.399  0.00  0.00    +0.000 C 
ENDBRANCH  11  12
BRANCH   6  14
ATOM     14  O   UNL     1      11.102  13.968  19.965  0.00  0.00    +0.000 OA
BRANCH  14  16
ATOM     15  C   UNL     1      10.278  15.886  18.763  0.00  0.00    +0.000 C 
ATOM     16  C   UNL     1      10.154  15.042  20.017  0.00  0.00    +0.000 C 
ENDBRANCH  14  16
ENDBRANCH   6  14
ENDBRANCH   1   9
BRANCH   4  17
ATOM     17  C   UNL     1       7.569   5.769  18.361  0.00  0.00    +0.000 C 
BRANCH  17  18
ATOM     18  C   UNL     1       6.856   5.246  17.121  0.00  0.00    +0.000 C 
BRANCH  18  19
ATOM     19  C   UNL     1       5.398   4.992  17.405  0.00  0.00    +0.000 C 
ATOM     20  O   UNL     1       4.936   3.871  17.588  0.00  0.00    +0.000 OA
ATOM     21  N   UNL     1       4.628   6.133  17.441  0.00  0.00    +0.000 N 
ATOM     22  H   UNL     1       5.049   7.025  17.200  0.00  0.00    +0.000 HD
BRANCH  21  23
ATOM     23  C   UNL     1       3.196   6.043  17.657  0.00  0.00    +0.000 C 
BRANCH  23  24
ATOM     24  C   UNL     1       2.797   6.226  19.128  0.00  0.00    +0.000 C 
BRANCH  24  25
ATOM     25  C   UNL     1       2.268   4.939  19.713  0.00  0.00    +0.000 A 
ATOM     26  C   UNL     1       1.508   4.063  18.927  0.00  0.00    +0.000 A 
ATOM     27  C   UNL     1       0.982   2.893  19.478  0.00  0.00    +0.000 A 
ATOM     28  C   UNL     1       1.209   2.588  20.818  0.00  0.00    +0.000 A 
ATOM     29  C   UNL     1       1.967   3.450  21.609  0.00  0.00    +0.000 A 
ATOM     30  C   UNL     1       2.495   4.620  21.060  0.00  0.00    +0.000 A 
ENDBRANCH  24  25
ENDBRANCH  23  24
ENDBRANCH  21  23
ENDBRANCH  18  19
ENDBRANCH  17  18
ENDBRANCH   4  17
TORSDOF 10
ENDMDL
MODEL 2
REMARK VINA RESULT:      -7.3      1.066      1.698
REMARK  Name = 
REMARK  12 active torsions:
REMARK  status: ('A' for Active; 'I' for Inactive)
REMARK    1  A    between atoms: C_1  and  C_2
REMARK    2  A    between atoms: C_2  and  O_3
REMARK    3  A    between atoms: O_3  and  C_4
REMARK    4  A    between atoms: C_7  and  C_8
REMARK    5  A    between atoms: C_11  and  C_12
REMARK    6  A    between atoms: C_12  and  C_13
REMARK    7  A    between atoms: C_13  and  C_14
REMARK    8  A    between atoms: N_16  and  C_17
REMARK    9  A    between atoms: C_17  and  C_18
REMARK   10  A    between atoms: C_18  and  C_19
REMARK   11  A    between atoms: C_27  and  O_28
REMARK   12  A    between atoms: O_28  and  C_29
REMARK                            x       y       z     vdW  Elec       q    Type
REMARK                         _______ _______ _______ _____ _____    ______ ____
ROOT
ATOM      1  C   UNL     1       8.446   9.068  18.272  0.00  0.00    +0.000 A 
ATOM      2  N   UNL     1       7.630   9.049  17.206  0.00  0.00    +0.000 NA
ATOM      3  O   UNL     1       7.219   7.725  17.122  0.00  0.00    +0.000 OA
ATOM      4  C   UNL     1       7.821   7.068  18.153  0.00  0.00    +0.000 A 
ATOM      5  N   UNL     1       8.585   7.842  18.890  0.00  0.00    +0.000 NA
ENDROOT
BRANCH   1   9
ATOM      6  C   UNL     1      10.338  12.669  19.610  0.00  0.00    +0.000 A 
ATOM      7  C   UNL     1      10.424  12.266  18.265  0.00  0.00    +0.000 A 
ATOM      8  C   UNL     1       9.814  11.088  17.822  0.00  0.00    +0.000 A 
ATOM      9  C   UNL     1       9.153  10.259  18.725  0.00  0.00    +0.000 A 
ATOM     10  C   UNL     1       9.163  10.611  20.080  0.00  0.00    +0.000 A 
ATOM     11  C   UNL     1       9.746  11.802  20.538  0.00  0.00    +0.000 A 
BRANCH  11  12
ATOM     12  O   UNL     1       9.598  11.933  21.891  0.00  0.00    +0.000 OA
ATOM     13  C   UNL     1       8.309  12.110  22.447  0.00  0.00    +0.000 C 
ENDBRANCH  11  12
BRANCH   6  14
ATOM     14  O   UNL     1      10.817  13.889  20.019  0.00  0.00    +0.000 OA
BRANCH  14  16
ATOM     15  C   UNL     1       8.936  15.376  19.787  0.00  0.00    +0.000 C 
ATOM     16  C   UNL     1      10.316  15.010  19.279  0.00  0.00    +0.000 C 
ENDBRANCH  14  16
ENDBRANCH   6  14
ENDBRANCH   1   9
BRANCH   4  17
ATOM     17  C   UNL     1       7.527   5.624  18.269  0.00  0.00    +0.000 C 
BRANCH  17  18
ATOM     18  C   UNL     1       6.540   5.342  19.394  0.00  0.00    +0.000 C 
BRANCH  18  19
ATOM     19  C   UNL     1       5.563   4.266  18.996  0.00  0.00    +0.000 C 
ATOM     20  O   UNL     1       5.277   3.319  19.720  0.00  0.00    +0.000 OA
ATOM     21  N   UNL     1       5.018   4.440  17.743  0.00  0.00    +0.000 N 
ATOM     22  H   UNL     1       5.355   5.197  17.155  0.00  0.00    +0.000 HD
BRANCH  21  23
ATOM     23  C   UNL     1       4.097   3.459  17.203  0.00  0.00    +0.000 C 
BRANCH  23  24
ATOM     24  C   UNL     1       2.653   3.974  17.112  0.00  0.00    +0.000 C 
BRANCH  24  25
ATOM     25  C   UNL     1       2.285   4.781  18.333  0.00  0.00    +0.000 A 
ATOM     26  C   UNL     1       2.519   6.163  18.367  0.00  0.00    +0.000 A 
ATOM     27  C   UNL     1       2.219   6.903  19.512  0.00  0.00    +0.000 A 
ATOM     28  C   UNL     1       1.685   6.271  20.632  0.00  0.00    +0.000 A 
ATOM     29  C   UNL     1       1.445   4.899  20.609  0.00  0.00    +0.000 A 
ATOM     30  C   UNL     1       1.743   4.156  19.465  0.00  0.00    +0.000 A 
ENDBRANCH  24  25
ENDBRANCH  23  24
ENDBRANCH  21  23
ENDBRANCH  18  19
ENDBRANCH  17  18
ENDBRANCH   4  17
TORSDOF 10
ENDMDL
MODEL 3
REMARK VINA RESULT:      -7.3      6.051      7.972
REMARK  Name = 
REMARK  12 active torsions:
REMARK  status: ('A' for Active; 'I' for Inactive)
REMARK    1  A    between atoms: C_1  and  C_2
REMARK    2  A    between atoms: C_2  and  O_3
REMARK    3  A    between atoms: O_3  and  C_4
REMARK    4  A    between atoms: C_7  and  C_8
REMARK    5  A    between atoms: C_11  and  C_12
REMARK    6  A    between atoms: C_12  and  C_13
REMARK    7  A    between atoms: C_13  and  C_14
REMARK    8  A    between atoms: N_16  and  C_17
REMARK    9  A    between atoms: C_17  and  C_18
REMARK   10  A    between atoms: C_18  and  C_19
REMARK   11  A    between atoms: C_27  and  O_28
REMARK   12  A    between atoms: O_28  and  C_29
REMARK                            x       y       z     vdW  Elec       q    Type
REMARK                         _______ _______ _______ _____ _____    ______ ____
ROOT
ATOM      1  C   UNL     1       2.008   6.998  20.025  0.00  0.00    +0.000 A 
ATOM      2  N   UNL     1       3.118   6.535  19.427  0.00  0.00    +0.000 NA
ATOM      3  O   UNL     1       3.290   5.270  19.975  0.00  0.00    +0.000 OA
ATOM      4  C   UNL     1       2.261   5.083  20.848  0.00  0.00    +0.000 A 
ATOM      5  N   UNL     1       1.445   6.111  20.920  0.00  0.00    +0.000 NA
ENDROOT
BRANCH   1   9
ATOM      6  C   UNL     1       0.208  10.809  19.269  0.00  0.00    +0.000 A 
ATOM      7  C   UNL     1       1.114  10.245  18.353  0.00  0.00    +0.000 A 
ATOM      8  C   UNL     1       1.711   9.004  18.595  0.00  0.00    +0.000 A 
ATOM      9  C   UNL     1       1.458   8.326  19.785  0.00  0.00    +0.000 A 
ATOM     10  C   UNL     1       0.639   8.941  20.740  0.00  0.00    +0.000 A 
ATOM     11  C   UNL     1       0.011  10.172  20.502  0.00  0.00    +0.000 A 
BRANCH  11  12
ATOM     12  O   UNL     1      -0.758  10.547  21.569  0.00  0.00    +0.000 OA
ATOM     13  C   UNL     1      -0.533  11.794  22.199  0.00  0.00    +0.000 C 
ENDBRANCH  11  12
BRANCH   6  14
ATOM     14  O   UNL     1      -0.483  11.958  18.972  0.00  0.00    +0.000 OA
BRANCH  14  16
ATOM     15  C   UNL     1      -2.880  11.811  18.786  0.00  0.00    +0.000 C 
ATOM     16  C   UNL     1      -1.559  11.788  18.041  0.00  0.00    +0.000 C 
ENDBRANCH  14  16
ENDBRANCH   6  14
ENDBRANCH   1   9
BRANCH   4  17
ATOM     17  C   UNL     1       2.234   3.789  21.560  0.00  0.00    +0.000 C 
BRANCH  17  18
ATOM     18  C   UNL     1       1.120   2.888  21.041  0.00  0.00    +0.000 C 
BRANCH  18  19
ATOM     19  C   UNL     1       1.337   2.547  19.589  0.00  0.00    +0.000 C 
ATOM     20  O   UNL     1       0.420   2.274  18.822  0.00  0.00    +0.000 OA
ATOM     21  N   UNL     1       2.657   2.567  19.200  0.00  0.00    +0.000 N 
ATOM     22  H   UNL     1       3.379   2.718  19.898  0.00  0.00    +0.000 HD
BRANCH  21  23
ATOM     23  C   UNL     1       3.025   2.214  17.842  0.00  0.00    +0.000 C 
BRANCH  23  24
ATOM     24  C   UNL     1       3.174   3.433  16.921  0.00  0.00    +0.000 C 
BRANCH  24  25
ATOM     25  C   UNL     1       4.621   3.844  16.791  0.00  0.00    +0.000 A 
ATOM     26  C   UNL     1       5.380   4.135  17.932  0.00  0.00    +0.000 A 
ATOM     27  C   UNL     1       6.705   4.557  17.811  0.00  0.00    +0.000 A 
ATOM     28  C   UNL     1       7.283   4.694  16.551  0.00  0.00    +0.000 A 
ATOM     29  C   UNL     1       6.538   4.404  15.410  0.00  0.00    +0.000 A 
ATOM     30  C   UNL     1       5.213   3.980  15.527  0.00  0.00    +0.000 A 
ENDBRANCH  24  25
ENDBRANCH  23  24
ENDBRANCH  21  23
ENDBRANCH  18  19
ENDBRANCH  17  18
ENDBRANCH   4  17
TORSDOF 10
ENDMDL
MODEL 4
REMARK VINA RESULT:      -7.3      5.606      7.630
REMARK  Name = 
REMARK  12 active torsions:
REMARK  status: ('A' for Active; 'I' for Inactive)
REMARK    1  A    between atoms: C_1  and  C_2
REMARK    2  A    between atoms: C_2  and  O_3
REMARK    3  A    between atoms: O_3  and  C_4
REMARK    4  A    between atoms: C_7  and  C_8
REMARK    5  A    between atoms: C_11  and  C_12
REMARK    6  A    between atoms: C_12  and  C_13
REMARK    7  A    between atoms: C_13  and  C_14
REMARK    8  A    between atoms: N_16  and  C_17
REMARK    9  A    between atoms: C_17  and  C_18
REMARK   10  A    between atoms: C_18  and  C_19
REMARK   11  A    between atoms: C_27  and  O_28
REMARK   12  A    between atoms: O_28  and  C_29
REMARK                            x       y       z     vdW  Elec       q    Type
REMARK                         _______ _______ _______ _____ _____    ______ ____
ROOT
ATOM      1  C   UNL     1       1.873   8.545  18.701  0.00  0.00    +0.000 A 
ATOM      2  N   UNL     1       2.148   7.502  19.500  0.00  0.00    +0.000 NA
ATOM      3  O   UNL     1       3.154   6.820  18.827  0.00  0.00    +0.000 OA
ATOM      4  C   UNL     1       3.398   7.522  17.685  0.00  0.00    +0.000 A 
ATOM      5  N   UNL     1       2.641   8.588  17.555  0.00  0.00    +0.000 NA
ENDROOT
BRANCH   1   9
ATOM      6  C   UNL     1      -1.281  11.284  19.642  0.00  0.00    +0.000 A 
ATOM      7  C   UNL     1      -1.134  10.773  18.340  0.00  0.00    +0.000 A 
ATOM      8  C   UNL     1      -0.103   9.884  18.023  0.00  0.00    +0.000 A 
ATOM      9  C   UNL     1       0.837   9.529  18.988  0.00  0.00    +0.000 A 
ATOM     10  C   UNL     1       0.748  10.123  20.253  0.00  0.00    +0.000 A 
ATOM     11  C   UNL     1      -0.295  10.996  20.596  0.00  0.00    +0.000 A 
BRANCH  11  12
ATOM     12  O   UNL     1      -0.178  11.417  21.891  0.00  0.00    +0.000 OA
ATOM     13  C   UNL     1      -0.905  10.764  22.915  0.00  0.00    +0.000 C 
ENDBRANCH  11  12
BRANCH   6  14
ATOM     14  O   UNL     1      -2.369  12.047  19.990  0.00  0.00    +0.000 OA
BRANCH  14  16
ATOM     15  C   UNL     1      -4.723  12.480  19.723  0.00  0.00    +0.000 C 
ATOM     16  C   UNL     1      -3.447  12.022  19.045  0.00  0.00    +0.000 C 
ENDBRANCH  14  16
ENDBRANCH   6  14
ENDBRANCH   1   9
BRANCH   4  17
ATOM     17  C   UNL     1       4.447   6.979  16.796  0.00  0.00    +0.000 C 
BRANCH  17  18
ATOM     18  C   UNL     1       5.598   6.376  17.590  0.00  0.00    +0.000 C 
BRANCH  18  19
ATOM     19  C   UNL     1       5.369   4.907  17.837  0.00  0.00    +0.000 C 
ATOM     20  O   UNL     1       5.977   4.268  18.689  0.00  0.00    +0.000 OA
ATOM     21  N   UNL     1       4.414   4.343  17.020  0.00  0.00    +0.000 N 
ATOM     22  H   UNL     1       4.004   4.901  16.277  0.00  0.00    +0.000 HD
BRANCH  21  23
ATOM     23  C   UNL     1       4.119   2.926  17.109  0.00  0.00    +0.000 C 
BRANCH  23  24
ATOM     24  C   UNL     1       2.648   2.637  17.437  0.00  0.00    +0.000 C 
BRANCH  24  25
ATOM     25  C   UNL     1       2.336   2.968  18.876  0.00  0.00    +0.000 A 
ATOM     26  C   UNL     1       3.095   2.408  19.913  0.00  0.00    +0.000 A 
ATOM     27  C   UNL     1       2.780   2.679  21.246  0.00  0.00    +0.000 A 
ATOM     28  C   UNL     1       1.705   3.509  21.555  0.00  0.00    +0.000 A 
ATOM     29  C   UNL     1       0.945   4.074  20.532  0.00  0.00    +0.000 A 
ATOM     30  C   UNL     1       1.259   3.806  19.198  0.00  0.00    +0.000 A 
ENDBRANCH  24  25
ENDBRANCH  23  24
ENDBRANCH  21  23
ENDBRANCH  18  19
ENDBRANCH  17  18
ENDBRANCH   4  17
TORSDOF 10
ENDMDL
MODEL 5
REMARK VINA RESULT:      -7.1      5.353      7.725
REMARK  Name = 
REMARK  12 active torsions:
REMARK  status: ('A' for Active; 'I' for Inactive)
REMARK    1  A    between atoms: C_1  and  C_2
REMARK    2  A    between atoms: C_2  and  O_3
REMARK    3  A    between atoms: O_3  and  C_4
REMARK    4  A    between atoms: C_7  and  C_8
REMARK    5  A    between atoms: C_11  and  C_12
REMARK    6  A    between atoms: C_12  and  C_13
REMARK    7  A    between atoms: C_13  and  C_14
REMARK    8  A    between atoms: N_16  and  C_17
REMARK    9  A    between atoms: C_17  and  C_18
REMARK   10  A    between atoms: C_18  and  C_19
REMARK   11  A    between atoms: C_27  and  O_28
REMARK   12  A    between atoms: O_28  and  C_29
REMARK                            x       y       z     vdW  Elec       q    Type
REMARK                         _______ _______ _______ _____ _____    ______ ____
ROOT
ATOM      1  C   UNL     1       3.459   3.514  17.297  0.00  0.00    +0.000 A 
ATOM      2  N   UNL     1       2.213   3.883  16.959  0.00  0.00    +0.000 NA
ATOM      3  O   UNL     1       1.406   3.220  17.876  0.00  0.00    +0.000 OA
ATOM      4  C   UNL     1       2.244   2.517  18.689  0.00  0.00    +0.000 A 
ATOM      5  N   UNL     1       3.513   2.659  18.379  0.00  0.00    +0.000 NA
ENDROOT
BRANCH   1   9
ATOM      6  C   UNL     1       6.868   4.960  15.147  0.00  0.00    +0.000 A 
ATOM      7  C   UNL     1       5.951   4.084  14.540  0.00  0.00    +0.000 A 
ATOM      8  C   UNL     1       4.838   3.602  15.237  0.00  0.00    +0.000 A 
ATOM      9  C   UNL     1       4.649   3.941  16.575  0.00  0.00    +0.000 A 
ATOM     10  C   UNL     1       5.623   4.727  17.205  0.00  0.00    +0.000 A 
ATOM     11  C   UNL     1       6.730   5.241  16.514  0.00  0.00    +0.000 A 
BRANCH  11  12
ATOM     12  O   UNL     1       7.515   5.999  17.337  0.00  0.00    +0.000 OA
ATOM     13  C   UNL     1       7.575   5.709  18.721  0.00  0.00    +0.000 C 
ENDBRANCH  11  12
BRANCH   6  14
ATOM     14  O   UNL     1       7.882   5.541  14.427  0.00  0.00    +0.000 OA
BRANCH  14  16
ATOM     15  C   UNL     1       8.622   6.228  12.240  0.00  0.00    +0.000 C 
ATOM     16  C   UNL     1       7.950   5.139  13.053  0.00  0.00    +0.000 C 
ENDBRANCH  14  16
ENDBRANCH   6  14
ENDBRANCH   1   9
BRANCH   4  17
ATOM     17  C   UNL     1       1.603   1.722  19.758  0.00  0.00    +0.000 C 
BRANCH  17  18
ATOM     18  C   UNL     1       0.894   2.614  20.770  0.00  0.00    +0.000 C 
BRANCH  18  19
ATOM     19  C   UNL     1       1.726   3.829  21.092  0.00  0.00    +0.000 C 
ATOM     20  O   UNL     1       2.483   3.885  22.055  0.00  0.00    +0.000 OA
ATOM     21  N   UNL     1       1.559   4.872  20.209  0.00  0.00    +0.000 N 
ATOM     22  H   UNL     1       0.856   4.798  19.479  0.00  0.00    +0.000 HD
BRANCH  21  23
ATOM     23  C   UNL     1       2.258   6.125  20.417  0.00  0.00    +0.000 C 
BRANCH  23  24
ATOM     24  C   UNL     1       2.607   6.846  19.107  0.00  0.00    +0.000 C 
BRANCH  24  25
ATOM     25  C   UNL     1       1.986   8.221  19.060  0.00  0.00    +0.000 A 
ATOM     26  C   UNL     1       1.250   8.704  20.151  0.00  0.00    +0.000 A 
ATOM     27  C   UNL     1       0.639   9.958  20.092  0.00  0.00    +0.000 A 
ATOM     28  C   UNL     1       0.755  10.739  18.945  0.00  0.00    +0.000 A 
ATOM     29  C   UNL     1       1.487  10.270  17.855  0.00  0.00    +0.000 A 
ATOM     30  C   UNL     1       2.101   9.017  17.911  0.00  0.00    +0.000 A 
ENDBRANCH  24  25
ENDBRANCH  23  24
ENDBRANCH  21  23
ENDBRANCH  18  19
ENDBRANCH  17  18
ENDBRANCH   4  17
TORSDOF 10
ENDMDL
MODEL 6
REMARK VINA RESULT:      -7.1      1.018      1.357
REMARK  Name = 
REMARK  12 active torsions:
REMARK  status: ('A' for Active; 'I' for Inactive)
REMARK    1  A    between atoms: C_1  and  C_2
REMARK    2  A    between atoms: C_2  and  O_3
REMARK    3  A    between atoms: O_3  and  C_4
REMARK    4  A    between atoms: C_7  and  C_8
REMARK    5  A    between atoms: C_11  and  C_12
REMARK    6  A    between atoms: C_12  and  C_13
REMARK    7  A    between atoms: C_13  and  C_14
REMARK    8  A    between atoms: N_16  and  C_17
REMARK    9  A    between atoms: C_17  and  C_18
REMARK   10  A    between atoms: C_18  and  C_19
REMARK   11  A    between atoms: C_27  and  O_28
REMARK   12  A    between atoms: O_28  and  C_29
REMARK                            x       y       z     vdW  Elec       q    Type
REMARK                         _______ _______ _______ _____ _____    ______ ____
ROOT
ATOM      1  C   UNL     1       8.181   8.982  18.154  0.00  0.00    +0.000 A 
ATOM      2  N   UNL     1       7.245   8.760  17.217  0.00  0.00    +0.000 NA
ATOM      3  O   UNL     1       7.044   7.386  17.261  0.00  0.00    +0.000 OA
ATOM      4  C   UNL     1       7.874   6.906  18.230  0.00  0.00    +0.000 A 
ATOM      5  N   UNL     1       8.595   7.840  18.809  0.00  0.00    +0.000 NA
ENDROOT
BRANCH   1   9
ATOM      6  C   UNL     1       9.647  12.895  19.089  0.00  0.00    +0.000 A 
ATOM      7  C   UNL     1       9.218  12.577  17.788  0.00  0.00    +0.000 A 
ATOM      8  C   UNL     1       8.744  11.300  17.473  0.00  0.00    +0.000 A 
ATOM      9  C   UNL     1       8.741  10.296  18.438  0.00  0.00    +0.000 A 
ATOM     10  C   UNL     1       9.268  10.588  19.703  0.00  0.00    +0.000 A 
ATOM     11  C   UNL     1       9.723  11.870  20.044  0.00  0.00    +0.000 A 
BRANCH  11  12
ATOM     12  O   UNL     1      10.160  11.909  21.339  0.00  0.00    +0.000 OA
ATOM     13  C   UNL     1       9.579  12.819  22.253  0.00  0.00    +0.000 C 
ENDBRANCH  11  12
BRANCH   6  14
ATOM     14  O   UNL     1       9.983  14.180  19.435  0.00  0.00    +0.000 OA
BRANCH  14  16
ATOM     15  C   UNL     1      12.332  14.655  19.195  0.00  0.00    +0.000 C 
ATOM     16  C   UNL     1      10.953  14.798  18.580  0.00  0.00    +0.000 C 
ENDBRANCH  14  16
ENDBRANCH   6  14
ENDBRANCH   1   9
BRANCH   4  17
ATOM     17  C   UNL     1       7.833   5.447  18.461  0.00  0.00    +0.000 C 
BRANCH  17  18
ATOM     18  C   UNL     1       7.148   4.717  17.313  0.00  0.00    +0.000 C 
BRANCH  18  19
ATOM     19  C   UNL     1       5.739   4.332  17.684  0.00  0.00    +0.000 C 
ATOM     20  O   UNL     1       5.461   3.711  18.704  0.00  0.00    +0.000 OA
ATOM     21  N   UNL     1       4.789   4.741  16.775  0.00  0.00    +0.000 N 
ATOM     22  H   UNL     1       5.086   5.178  15.908  0.00  0.00    +0.000 HD
BRANCH  21  23
ATOM     23  C   UNL     1       3.393   4.401  16.974  0.00  0.00    +0.000 C 
BRANCH  23  24
ATOM     24  C   UNL     1       2.716   5.248  18.061  0.00  0.00    +0.000 C 
BRANCH  24  25
ATOM     25  C   UNL     1       2.220   4.384  19.195  0.00  0.00    +0.000 A 
ATOM     26  C   UNL     1       2.490   4.735  20.525  0.00  0.00    +0.000 A 
ATOM     27  C   UNL     1       2.070   3.914  21.573  0.00  0.00    +0.000 A 
ATOM     28  C   UNL     1       1.379   2.736  21.303  0.00  0.00    +0.000 A 
ATOM     29  C   UNL     1       1.101   2.378  19.985  0.00  0.00    +0.000 A 
ATOM     30  C   UNL     1       1.519   3.198  18.934  0.00  0.00    +0.000 A 
ENDBRANCH  24  25
ENDBRANCH  23  24
ENDBRANCH  21  23
ENDBRANCH  18  19
ENDBRANCH  17  18
ENDBRANCH   4  17
TORSDOF 10
ENDMDL
MODEL 7
REMARK VINA RESULT:      -7.1      3.804      8.513
REMARK  Name = 
REMARK  12 active torsions:
REMARK  status: ('A' for Active; 'I' for Inactive)
REMARK    1  A    between atoms: C_1  and  C_2
REMARK    2  A    between atoms: C_2  and  O_3
REMARK    3  A    between atoms: O_3  and  C_4
REMARK    4  A    between atoms: C_7  and  C_8
REMARK    5  A    between atoms: C_11  and  C_12
REMARK    6  A    between atoms: C_12  and  C_13
REMARK    7  A    between atoms: C_13  and  C_14
REMARK    8  A    between atoms: N_16  and  C_17
REMARK    9  A    between atoms: C_17  and  C_18
REMARK   10  A    between atoms: C_18  and  C_19
REMARK   11  A    between atoms: C_27  and  O_28
REMARK   12  A    between atoms: O_28  and  C_29
REMARK                            x       y       z     vdW  Elec       q    Type
REMARK                         _______ _______ _______ _____ _____    ______ ____
ROOT
ATOM      1  C   UNL     1       2.626   7.078  18.287  0.00  0.00    +0.000 A 
ATOM      2  N   UNL     1       1.973   5.908  18.200  0.00  0.00    +0.000 NA
ATOM      3  O   UNL     1       2.939   5.017  17.749  0.00  0.00    +0.000 OA
ATOM      4  C   UNL     1       4.091   5.733  17.613  0.00  0.00    +0.000 A 
ATOM      5  N   UNL     1       3.956   7.002  17.928  0.00  0.00    +0.000 NA
ENDROOT
BRANCH   1   9
ATOM      6  C   UNL     1       0.576  10.669  19.400  0.00  0.00    +0.000 A 
ATOM      7  C   UNL     1       1.359  10.617  18.233  0.00  0.00    +0.000 A 
ATOM      8  C   UNL     1       2.037   9.451  17.866  0.00  0.00    +0.000 A 
ATOM      9  C   UNL     1       1.992   8.327  18.687  0.00  0.00    +0.000 A 
ATOM     10  C   UNL     1       1.298   8.418  19.901  0.00  0.00    +0.000 A 
ATOM     11  C   UNL     1       0.591   9.571  20.272  0.00  0.00    +0.000 A 
BRANCH  11  12
ATOM     12  O   UNL     1      -0.026   9.402  21.480  0.00  0.00    +0.000 OA
ATOM     13  C   UNL     1       0.723   9.506  22.676  0.00  0.00    +0.000 C 
ENDBRANCH  11  12
BRANCH   6  14
ATOM     14  O   UNL     1      -0.198  11.765  19.691  0.00  0.00    +0.000 OA
BRANCH  14  16
ATOM     15  C   UNL     1      -0.206  14.120  20.195  0.00  0.00    +0.000 C 
ATOM     16  C   UNL     1       0.465  12.785  20.449  0.00  0.00    +0.000 C 
ENDBRANCH  14  16
ENDBRANCH   6  14
ENDBRANCH   1   9
BRANCH   4  17
ATOM     17  C   UNL     1       5.274   4.985  17.140  0.00  0.00    +0.000 C 
BRANCH  17  18
ATOM     18  C   UNL     1       6.221   5.878  16.348  0.00  0.00    +0.000 C 
BRANCH  18  19
ATOM     19  C   UNL     1       7.274   6.475  17.245  0.00  0.00    +0.000 C 
ATOM     20  O   UNL     1       7.991   5.801  17.977  0.00  0.00    +0.000 OA
ATOM     21  N   UNL     1       7.359   7.848  17.173  0.00  0.00    +0.000 N 
ATOM     22  H   UNL     1       6.683   8.359  16.613  0.00  0.00    +0.000 HD
BRANCH  21  23
ATOM     23  C   UNL     1       8.295   8.568  18.015  0.00  0.00    +0.000 C 
BRANCH  23  24
ATOM     24  C   UNL     1       8.247  10.088  17.804  0.00  0.00    +0.000 C 
BRANCH  24  25
ATOM     25  C   UNL     1       9.375  10.775  18.535  0.00  0.00    +0.000 A 
ATOM     26  C   UNL     1      10.506  11.219  17.837  0.00  0.00    +0.000 A 
ATOM     27  C   UNL     1      11.569  11.815  18.517  0.00  0.00    +0.000 A 
ATOM     28  C   UNL     1      11.514  11.971  19.900  0.00  0.00    +0.000 A 
ATOM     29  C   UNL     1      10.393  11.536  20.605  0.00  0.00    +0.000 A 
ATOM     30  C   UNL     1       9.327  10.942  19.927  0.00  0.00    +0.000 A 
ENDBRANCH  24  25
ENDBRANCH  23  24
ENDBRANCH  21  23
ENDBRANCH  18  19
ENDBRANCH  17  18
ENDBRANCH   4  17
TORSDOF 10
ENDMDL
MODEL 8
REMARK VINA RESULT:      -7.0      5.042      8.151
REMARK  Name = 
REMARK  12 active torsions:
REMARK  status: ('A' for Active; 'I' for Inactive)
REMARK    1  A    between atoms: C_1  and  C_2
REMARK    2  A    between atoms: C_2  and  O_3
REMARK    3  A    between atoms: O_3  and  C_4
REMARK    4  A    between atoms: C_7  and  C_8
REMARK    5  A    between atoms: C_11  and  C_12
REMARK    6  A    between atoms: C_12  and  C_13
REMARK    7  A    between atoms: C_13  and  C_14
REMARK    8  A    between atoms: N_16  and  C_17
REMARK    9  A    between atoms: C_17  and  C_18
REMARK   10  A    between atoms: C_18  and  C_19
REMARK   11  A    between atoms: C_27  and  O_28
REMARK   12  A    between atoms: O_28  and  C_29
REMARK                            x       y       z     vdW  Elec       q    Type
REMARK                         _______ _______ _______ _____ _____    ______ ____
ROOT
ATOM      1  C   UNL     1       1.542   9.002  18.740  0.00  0.00    +0.000 A 
ATOM      2  N   UNL     1       2.188   8.949  17.564  0.00  0.00    +0.000 NA
ATOM      3  O   UNL     1       2.946   7.788  17.650  0.00  0.00    +0.000 OA
ATOM      4  C   UNL     1       2.681   7.243  18.870  0.00  0.00    +0.000 A 
ATOM      5  N   UNL     1       1.827   7.946  19.581  0.00  0.00    +0.000 NA
ENDROOT
BRANCH   1   9
ATOM      6  C   UNL     1      -1.134  12.085  20.034  0.00  0.00    +0.000 A 
ATOM      7  C   UNL     1      -1.510  11.180  19.025  0.00  0.00    +0.000 A 
ATOM      8  C   UNL     1      -0.640  10.175  18.592  0.00  0.00    +0.000 A 
ATOM      9  C   UNL     1       0.647  10.087  19.120  0.00  0.00    +0.000 A 
ATOM     10  C   UNL     1       1.052  11.055  20.047  0.00  0.00    +0.000 A 
ATOM     11  C   UNL     1       0.184  12.054  20.512  0.00  0.00    +0.000 A 
BRANCH  11  12
ATOM     12  O   UNL     1       0.803  12.855  21.431  0.00  0.00    +0.000 OA
ATOM     13  C   UNL     1       1.769  13.798  21.009  0.00  0.00    +0.000 C 
ENDBRANCH  11  12
BRANCH   6  14
ATOM     14  O   UNL     1      -2.032  12.983  20.557  0.00  0.00    +0.000 OA
BRANCH  14  16
ATOM     15  C   UNL     1      -4.307  13.470  21.179  0.00  0.00    +0.000 C 
ATOM     16  C   UNL     1      -3.401  12.733  20.213  0.00  0.00    +0.000 C 
ENDBRANCH  14  16
ENDBRANCH   6  14
ENDBRANCH   1   9
BRANCH   4  17
ATOM     17  C   UNL     1       3.383   5.983  19.191  0.00  0.00    +0.000 C 
BRANCH  17  18
ATOM     18  C   UNL     1       2.558   4.766  18.794  0.00  0.00    +0.000 C 
BRANCH  18  19
ATOM     19  C   UNL     1       3.046   4.187  17.491  0.00  0.00    +0.000 C 
ATOM     20  O   UNL     1       2.448   3.305  16.884  0.00  0.00    +0.000 OA
ATOM     21  N   UNL     1       4.226   4.735  17.041  0.00  0.00    +0.000 N 
ATOM     22  H   UNL     1       4.720   5.402  17.627  0.00  0.00    +0.000 HD
BRANCH  21  23
ATOM     23  C   UNL     1       4.844   4.245  15.824  0.00  0.00    +0.000 C 
BRANCH  23  24
ATOM     24  C   UNL     1       6.360   4.044  15.957  0.00  0.00    +0.000 C 
BRANCH  24  25
ATOM     25  C   UNL     1       6.968   5.073  16.879  0.00  0.00    +0.000 A 
ATOM     26  C   UNL     1       7.493   4.691  18.120  0.00  0.00    +0.000 A 
ATOM     27  C   UNL     1       8.016   5.647  18.993  0.00  0.00    +0.000 A 
ATOM     28  C   UNL     1       8.017   6.993  18.634  0.00  0.00    +0.000 A 
ATOM     29  C   UNL     1       7.500   7.385  17.400  0.00  0.00    +0.000 A 
ATOM     30  C   UNL     1       6.978   6.430  16.525  0.00  0.00    +0.000 A 
ENDBRANCH  24  25
ENDBRANCH  23  24
ENDBRANCH  21  23
ENDBRANCH  18  19
ENDBRANCH  17  18
ENDBRANCH   4  17
TORSDOF 10
ENDMDL
MODEL 9
REMARK VINA RESULT:      -7.0      3.347      8.456
REMARK  Name = 
REMARK  12 active torsions:
REMARK  status: ('A' for Active; 'I' for Inactive)
REMARK    1  A    between atoms: C_1  and  C_2
REMARK    2  A    between atoms: C_2  and  O_3
REMARK    3  A    between atoms: O_3  and  C_4
REMARK    4  A    between atoms: C_7  and  C_8
REMARK    5  A    between atoms: C_11  and  C_12
REMARK    6  A    between atoms: C_12  and  C_13
REMARK    7  A    between atoms: C_13  and  C_14
REMARK    8  A    between atoms: N_16  and  C_17
REMARK    9  A    between atoms: C_17  and  C_18
REMARK   10  A    between atoms: C_18  and  C_19
REMARK   11  A    between atoms: C_27  and  O_28
REMARK   12  A    between atoms: O_28  and  C_29
REMARK                            x       y       z     vdW  Elec       q    Type
REMARK                         _______ _______ _______ _____ _____    ______ ____
ROOT
ATOM      1  C   UNL     1       3.414   6.562  18.236  0.00  0.00    +0.000 A 
ATOM      2  N   UNL     1       3.419   5.360  18.834  0.00  0.00    +0.000 NA
ATOM      3  O   UNL     1       4.377   4.640  18.131  0.00  0.00    +0.000 OA
ATOM      4  C   UNL     1       4.867   5.479  17.177  0.00  0.00    +0.000 A 
ATOM      5  N   UNL     1       4.312   6.670  17.194  0.00  0.00    +0.000 NA
ENDROOT
BRANCH   1   9
ATOM      6  C   UNL     1       0.629   9.625  19.331  0.00  0.00    +0.000 A 
ATOM      7  C   UNL     1       1.252   9.634  18.070  0.00  0.00    +0.000 A 
ATOM      8  C   UNL     1       2.167   8.641  17.707  0.00  0.00    +0.000 A 
ATOM      9  C   UNL     1       2.522   7.649  18.618  0.00  0.00    +0.000 A 
ATOM     10  C   UNL     1       1.980   7.707  19.909  0.00  0.00    +0.000 A 
ATOM     11  C   UNL     1       1.040   8.679  20.281  0.00  0.00    +0.000 A 
BRANCH  11  12
ATOM     12  O   UNL     1       0.640   8.506  21.577  0.00  0.00    +0.000 OA
ATOM     13  C   UNL     1       0.986   9.467  22.557  0.00  0.00    +0.000 C 
ENDBRANCH  11  12
BRANCH   6  14
ATOM     14  O   UNL     1      -0.369  10.517  19.639  0.00  0.00    +0.000 OA
BRANCH  14  16
ATOM     15  C   UNL     1      -2.325  11.263  18.449  0.00  0.00    +0.000 C 
ATOM     16  C   UNL     1      -0.813  11.324  18.541  0.00  0.00    +0.000 C 
ENDBRANCH  14  16
ENDBRANCH   6  14
ENDBRANCH   1   9
BRANCH   4  17
ATOM     17  C   UNL     1       5.915   4.925  16.295  0.00  0.00    +0.000 C 
BRANCH  17  18
ATOM     18  C   UNL     1       7.289   4.983  16.951  0.00  0.00    +0.000 C 
BRANCH  18  19
ATOM     19  C   UNL     1       7.430   6.224  17.795  0.00  0.00    +0.000 C 
ATOM     20  O   UNL     1       7.450   6.202  19.020  0.00  0.00    +0.000 OA
ATOM     21  N   UNL     1       7.533   7.388  17.066  0.00  0.00    +0.000 N 
ATOM     22  H   UNL     1       7.425   7.353  16.056  0.00  0.00    +0.000 HD
BRANCH  21  23
ATOM     23  C   UNL     1       7.626   8.668  17.741  0.00  0.00    +0.000 C 
BRANCH  23  24
ATOM     24  C   UNL     1       8.993   8.904  18.399  0.00  0.00    +0.000 C 
BRANCH  24  25
ATOM     25  C   UNL     1       9.108  10.313  18.926  0.00  0.00    +0.000 A 
ATOM     26  C   UNL     1       9.034  11.406  18.050  0.00  0.00    +0.000 A 
ATOM     27  C   UNL     1       9.184  12.708  18.530  0.00  0.00    +0.000 A 
ATOM     28  C   UNL     1       9.411  12.932  19.886  0.00  0.00    +0.000 A 
ATOM     29  C   UNL     1       9.483  11.854  20.766  0.00  0.00    +0.000 A 
ATOM     30  C   UNL     1       9.332  10.550  20.290  0.00  0.00    +0.000 A 
ENDBRANCH  24  25
ENDBRANCH  23  24
ENDBRANCH  21  23
ENDBRANCH  18  19
ENDBRANCH  17  18
ENDBRANCH   4  17
TORSDOF 10
ENDMDL
