MODEL 1
REMARK VINA RESULT:      -7.4      0.000      0.000
REMARK  Name = 
REMARK  10 active torsions:
REMARK  status: ('A' for Active; 'I' for Inactive)
REMARK    1  A    between atoms: C_2  and  C_3
REMARK    2  A    between atoms: C_3  and  C_4
REMARK    3  A    between atoms: C_3  and  O_8
REMARK    4  A    between atoms: C_4  and  C_5
REMARK    5  A    between atoms: C_5  and  C_6
REMARK    6  A    between atoms: C_6  and  C_7
REMARK    7  A    between atoms: O_8  and  C_9
REMARK    8  A    between atoms: N_11  and  C_12
REMARK    9  A    between atoms: C_12  and  C_13
REMARK   10  A    between atoms: C_12  and  C_14
REMARK                            x       y       z     vdW  Elec       q    Type
REMARK                         _______ _______ _______ _____ _____    ______ ____
ROOT
ATOM      1  C   UNL     1       5.517   4.784  19.068  0.00  0.00    +0.000 C 
ATOM      2  O   UNL     1       5.212   3.608  18.983  0.00  0.00    +0.000 OA
ATOM      3  N   UNL     1       4.712   5.852  18.801  0.00  0.00    +0.000 N 
ATOM      4  H   UNL     1       5.062   6.745  19.120  0.00  0.00    +0.000 HD
ENDROOT
BRANCH   3   5
ATOM      5  C   UNL     1       3.464   5.795  18.066  0.00  0.00    +0.000 C 
ATOM      6  C   UNL     1       2.854   7.201  17.951  0.00  0.00    +0.000 C 
BRANCH   5   7
ATOM      7  C   UNL     1       2.452   4.873  18.732  0.00  0.00    +0.000 A 
ATOM      8  C   UNL     1       2.127   5.051  20.085  0.00  0.00    +0.000 A 
ATOM      9  C   UNL     1       1.301   4.138  20.747  0.00  0.00    +0.000 A 
ATOM     10  C   UNL     1       0.777   3.044  20.063  0.00  0.00    +0.000 A 
ATOM     11  C   UNL     1       1.063   2.868  18.712  0.00  0.00    +0.000 A 
ATOM     12  C   UNL     1       1.891   3.777  18.050  0.00  0.00    +0.000 A 
ENDBRANCH   5   7
ENDBRANCH   3   5
BRANCH   1  13
ATOM     13  O   UNL     1       6.725   5.242  19.479  0.00  0.00    +0.000 OA
BRANCH  13  14
ATOM     14  C   UNL     1       7.727   5.380  18.460  0.00  0.00    +0.000 C 
BRANCH  14  16
ATOM     15  C   UNL     1       7.820   7.986  17.862  0.00  0.00    +0.000 C 
ATOM     16  C   UNL     1       7.764   6.816  18.108  0.00  0.00    +0.000 C 
ENDBRANCH  14  16
BRANCH  14  17
ATOM     17  C   UNL     1       7.403   4.534  17.216  0.00  0.00    +0.000 C 
BRANCH  17  18
ATOM     18  C   UNL     1       7.020   5.392  15.994  0.00  0.00    +0.000 C 
BRANCH  18  19
ATOM     19  C   UNL     1       5.771   4.850  15.303  0.00  0.00    +0.000 C 
ATOM     20  C   UNL     1       6.119   3.926  14.148  0.00  0.00    +0.000 C 
ENDBRANCH  18  19
ENDBRANCH  17  18
ENDBRANCH  14  17
ENDBRANCH  13  14
ENDBRANCH   1  13
TORSDOF 8
ENDMDL
MODEL 2
REMARK VINA RESULT:      -7.4      0.214      1.125
REMARK  Name = 
REMARK  10 active torsions:
REMARK  status: ('A' for Active; 'I' for Inactive)
REMARK    1  A    between atoms: C_2  and  C_3
REMARK    2  A    between atoms: C_3  and  C_4
REMARK    3  A    between atoms: C_3  and  O_8
REMARK    4  A    between atoms: C_4  and  C_5
REMARK    5  A    between atoms: C_5  and  C_6
REMARK    6  A    between atoms: C_6  and  C_7
REMARK    7  A    between atoms: O_8  and  C_9
REMARK    8  A    between atoms: N_11  and  C_12
REMARK    9  A    between atoms: C_12  and  C_13
REMARK   10  A    between atoms: C_12  and  C_14
REMARK                            x       y       z     vdW  Elec       q    Type
REMARK                         _______ _______ _______ _____ _____    ______ ____
ROOT
ATOM      1  C   UNL     1       5.576   4.879  19.228  0.00  0.00    +0.000 C 
ATOM      2  O   UNL     1       5.333   3.686  19.202  0.00  0.00    +0.000 OA
ATOM      3  N   UNL     1       4.721   5.889  18.896  0.00  0.00    +0.000 N 
ATOM      4  H   UNL     1       5.021   6.813  19.171  0.00  0.00    +0.000 HD
ENDROOT
BRANCH   3   5
ATOM      5  C   UNL     1       3.489   5.730  18.150  0.00  0.00    +0.000 C 
ATOM      6  C   UNL     1       2.761   7.079  18.038  0.00  0.00    +0.000 C 
BRANCH   5   7
ATOM      7  C   UNL     1       2.555   4.720  18.803  0.00  0.00    +0.000 A 
ATOM      8  C   UNL     1       2.061   3.639  18.058  0.00  0.00    +0.000 A 
ATOM      9  C   UNL     1       1.104   2.776  18.599  0.00  0.00    +0.000 A 
ATOM     10  C   UNL     1       0.638   2.972  19.898  0.00  0.00    +0.000 A 
ATOM     11  C   UNL     1       1.140   4.022  20.663  0.00  0.00    +0.000 A 
ATOM     12  C   UNL     1       2.093   4.886  20.122  0.00  0.00    +0.000 A 
ENDBRANCH   5   7
ENDBRANCH   3   5
BRANCH   1  13
ATOM     13  O   UNL     1       6.754   5.419  19.628  0.00  0.00    +0.000 OA
BRANCH  13  14
ATOM     14  C   UNL     1       7.781   5.503  18.628  0.00  0.00    +0.000 C 
BRANCH  14  16
ATOM     15  C   UNL     1       7.732   8.034  17.765  0.00  0.00    +0.000 C 
ATOM     16  C   UNL     1       7.757   6.894  18.126  0.00  0.00    +0.000 C 
ENDBRANCH  14  16
BRANCH  14  17
ATOM     17  C   UNL     1       7.542   4.515  17.473  0.00  0.00    +0.000 C 
BRANCH  17  18
ATOM     18  C   UNL     1       7.102   5.213  16.172  0.00  0.00    +0.000 C 
BRANCH  18  19
ATOM     19  C   UNL     1       5.882   4.529  15.558  0.00  0.00    +0.000 C 
ATOM     20  C   UNL     1       6.185   3.963  14.181  0.00  0.00    +0.000 C 
ENDBRANCH  18  19
ENDBRANCH  17  18
ENDBRANCH  14  17
ENDBRANCH  13  14
ENDBRANCH   1  13
TORSDOF 8
ENDMDL
MODEL 3
REMARK VINA RESULT:      -7.3      1.362      6.193
REMARK  Name = 
REMARK  10 active torsions:
REMARK  status: ('A' for Active; 'I' for Inactive)
REMARK    1  A    between atoms: C_2  and  C_3
REMARK    2  A    between atoms: C_3  and  C_4
REMARK    3  A    between atoms: C_3  and  O_8
REMARK    4  A    between atoms: C_4  and  C_5
REMARK    5  A    between atoms: C_5  and  C_6
REMARK    6  A    between atoms: C_6  and  C_7
REMARK    7  A    between atoms: O_8  and  C_9
REMARK    8  A    between atoms: N_11  and  C_12
REMARK    9  A    between atoms: C_12  and  C_13
REMARK   10  A    between atoms: C_12  and  C_14
REMARK                            x       y       z     vdW  Elec       q    Type
REMARK                         _______ _______ _______ _____ _____    ______ ____
ROOT
ATOM      1  C   UNL     1       5.335   4.071  18.333  0.00  0.00    +0.000 C 
ATOM      2  O   UNL     1       6.141   4.224  19.234  0.00  0.00    +0.000 OA
ATOM      3  N   UNL     1       5.590   4.141  16.995  0.00  0.00    +0.000 N 
ATOM      4  H   UNL     1       4.856   3.787  16.398  0.00  0.00    +0.000 HD
ENDROOT
BRANCH   3   5
ATOM      5  C   UNL     1       6.776   4.724  16.399  0.00  0.00    +0.000 C 
ATOM      6  C   UNL     1       6.882   6.209  16.777  0.00  0.00    +0.000 C 
BRANCH   5   7
ATOM      7  C   UNL     1       6.771   4.600  14.882  0.00  0.00    +0.000 A 
ATOM      8  C   UNL     1       5.890   3.704  14.256  0.00  0.00    +0.000 A 
ATOM      9  C   UNL     1       5.959   3.482  12.877  0.00  0.00    +0.000 A 
ATOM     10  C   UNL     1       6.896   4.163  12.104  0.00  0.00    +0.000 A 
ATOM     11  C   UNL     1       7.756   5.079  12.703  0.00  0.00    +0.000 A 
ATOM     12  C   UNL     1       7.692   5.299  14.080  0.00  0.00    +0.000 A 
ENDBRANCH   5   7
ENDBRANCH   3   5
BRANCH   1  13
ATOM     13  O   UNL     1       4.025   3.767  18.511  0.00  0.00    +0.000 OA
BRANCH  13  14
ATOM     14  C   UNL     1       3.102   4.418  17.624  0.00  0.00    +0.000 C 
BRANCH  14  16
ATOM     15  C   UNL     1       2.924   6.950  18.466  0.00  0.00    +0.000 C 
ATOM     16  C   UNL     1       2.981   5.812  18.103  0.00  0.00    +0.000 C 
ENDBRANCH  14  16
BRANCH  14  17
ATOM     17  C   UNL     1       1.724   3.733  17.623  0.00  0.00    +0.000 C 
BRANCH  17  18
ATOM     18  C   UNL     1       1.599   2.645  18.707  0.00  0.00    +0.000 C 
BRANCH  18  19
ATOM     19  C   UNL     1       0.780   3.137  19.898  0.00  0.00    +0.000 C 
ATOM     20  C   UNL     1       1.630   3.276  21.151  0.00  0.00    +0.000 C 
ENDBRANCH  18  19
ENDBRANCH  17  18
ENDBRANCH  14  17
ENDBRANCH  13  14
ENDBRANCH   1  13
TORSDOF 8
ENDMDL
MODEL 4
REMARK VINA RESULT:      -7.1      3.595      5.722
REMARK  Name = 
REMARK  10 active torsions:
REMARK  status: ('A' for Active; 'I' for Inactive)
REMARK    1  A    between atoms: C_2  and  C_3
REMARK    2  A    between atoms: C_3  and  C_4
REMARK    3  A    between atoms: C_3  and  O_8
REMARK    4  A    between atoms: C_4  and  C_5
REMARK    5  A    between atoms: C_5  and  C_6
REMARK    6  A    between atoms: C_6  and  C_7
REMARK    7  A    between atoms: O_8  and  C_9
REMARK    8  A    between atoms: N_11  and  C_12
REMARK    9  A    between atoms: C_12  and  C_13
REMARK   10  A    between atoms: C_12  and  C_14
REMARK                            x       y       z     vdW  Elec       q    Type
REMARK                         _______ _______ _______ _____ _____    ______ ____
ROOT
ATOM      1  C   UNL     1       6.805   4.552  13.622  0.00  0.00    +0.000 C 
ATOM      2  O   UNL     1       7.299   5.634  13.358  0.00  0.00    +0.000 OA
ATOM      3  N   UNL     1       6.105   4.233  14.749  0.00  0.00    +0.000 N 
ATOM      4  H   UNL     1       5.598   3.360  14.707  0.00  0.00    +0.000 HD
ENDROOT
BRANCH   3   5
ATOM      5  C   UNL     1       6.091   5.009  15.973  0.00  0.00    +0.000 C 
ATOM      6  C   UNL     1       7.164   4.488  16.941  0.00  0.00    +0.000 C 
BRANCH   5   7
ATOM      7  C   UNL     1       4.736   4.957  16.665  0.00  0.00    +0.000 A 
ATOM      8  C   UNL     1       4.191   6.122  17.226  0.00  0.00    +0.000 A 
ATOM      9  C   UNL     1       3.013   6.068  17.976  0.00  0.00    +0.000 A 
ATOM     10  C   UNL     1       2.355   4.854  18.163  0.00  0.00    +0.000 A 
ATOM     11  C   UNL     1       2.865   3.694  17.588  0.00  0.00    +0.000 A 
ATOM     12  C   UNL     1       4.044   3.744  16.841  0.00  0.00    +0.000 A 
ENDBRANCH   5   7
ENDBRANCH   3   5
BRANCH   1  13
ATOM     13  O   UNL     1       6.843   3.466  12.811  0.00  0.00    +0.000 OA
BRANCH  13  14
ATOM     14  C   UNL     1       5.572   2.970  12.363  0.00  0.00    +0.000 C 
BRANCH  14  16
ATOM     15  C   UNL     1       6.085   0.778  10.919  0.00  0.00    +0.000 C 
ATOM     16  C   UNL     1       5.861   1.773  11.543  0.00  0.00    +0.000 C 
ENDBRANCH  14  16
BRANCH  14  17
ATOM     17  C   UNL     1       4.808   4.014  11.531  0.00  0.00    +0.000 C 
BRANCH  17  18
ATOM     18  C   UNL     1       3.494   3.464  10.944  0.00  0.00    +0.000 C 
BRANCH  18  19
ATOM     19  C   UNL     1       3.354   3.817   9.465  0.00  0.00    +0.000 C 
ATOM     20  C   UNL     1       2.233   4.815   9.225  0.00  0.00    +0.000 C 
ENDBRANCH  18  19
ENDBRANCH  17  18
ENDBRANCH  14  17
ENDBRANCH  13  14
ENDBRANCH   1  13
TORSDOF 8
ENDMDL
MODEL 5
REMARK VINA RESULT:      -7.0      2.200      3.386
REMARK  Name = 
REMARK  10 active torsions:
REMARK  status: ('A' for Active; 'I' for Inactive)
REMARK    1  A    between atoms: C_2  and  C_3
REMARK    2  A    between atoms: C_3  and  C_4
REMARK    3  A    between atoms: C_3  and  O_8
REMARK    4  A    between atoms: C_4  and  C_5
REMARK    5  A    between atoms: C_5  and  C_6
REMARK    6  A    between atoms: C_6  and  C_7
REMARK    7  A    between atoms: O_8  and  C_9
REMARK    8  A    between atoms: N_11  and  C_12
REMARK    9  A    between atoms: C_12  and  C_13
REMARK   10  A    between atoms: C_12  and  C_14
REMARK                            x       y       z     vdW  Elec       q    Type
REMARK                         _______ _______ _______ _____ _____    ______ ____
ROOT
ATOM      1  C   UNL     1       5.597   6.268  16.116  0.00  0.00    +0.000 C 
ATOM      2  O   UNL     1       6.328   7.141  16.550  0.00  0.00    +0.000 OA
ATOM      3  N   UNL     1       4.652   5.579  16.817  0.00  0.00    +0.000 N 
ATOM      4  H   UNL     1       4.005   5.044  16.255  0.00  0.00    +0.000 HD
ENDROOT
BRANCH   3   5
ATOM      5  C   UNL     1       4.559   5.521  18.262  0.00  0.00    +0.000 C 
ATOM      6  C   UNL     1       5.704   4.670  18.832  0.00  0.00    +0.000 C 
BRANCH   5   7
ATOM      7  C   UNL     1       3.232   4.934  18.724  0.00  0.00    +0.000 A 
ATOM      8  C   UNL     1       2.788   5.156  20.037  0.00  0.00    +0.000 A 
ATOM      9  C   UNL     1       1.640   4.520  20.519  0.00  0.00    +0.000 A 
ATOM     10  C   UNL     1       0.912   3.668  19.692  0.00  0.00    +0.000 A 
ATOM     11  C   UNL     1       1.320   3.461  18.377  0.00  0.00    +0.000 A 
ATOM     12  C   UNL     1       2.469   4.092  17.895  0.00  0.00    +0.000 A 
ENDBRANCH   5   7
ENDBRANCH   3   5
BRANCH   1  13
ATOM     13  O   UNL     1       5.578   5.846  14.827  0.00  0.00    +0.000 OA
BRANCH  13  14
ATOM     14  C   UNL     1       6.420   4.723  14.520  0.00  0.00    +0.000 C 
BRANCH  14  16
ATOM     15  C   UNL     1       8.375   5.699  12.977  0.00  0.00    +0.000 C 
ATOM     16  C   UNL     1       7.499   5.241  13.651  0.00  0.00    +0.000 C 
ENDBRANCH  14  16
BRANCH  14  17
ATOM     17  C   UNL     1       5.647   3.604  13.801  0.00  0.00    +0.000 C 
BRANCH  17  18
ATOM     18  C   UNL     1       5.658   3.761  12.268  0.00  0.00    +0.000 C 
BRANCH  18  19
ATOM     19  C   UNL     1       4.723   2.756  11.599  0.00  0.00    +0.000 C 
ATOM     20  C   UNL     1       3.655   3.445  10.765  0.00  0.00    +0.000 C 
ENDBRANCH  18  19
ENDBRANCH  17  18
ENDBRANCH  14  17
ENDBRANCH  13  14
ENDBRANCH   1  13
TORSDOF 8
ENDMDL
MODEL 6
REMARK VINA RESULT:      -6.9      1.412      1.888
REMARK  Name = 
REMARK  10 active torsions:
REMARK  status: ('A' for Active; 'I' for Inactive)
REMARK    1  A    between atoms: C_2  and  C_3
REMARK    2  A    between atoms: C_3  and  C_4
REMARK    3  A    between atoms: C_3  and  O_8
REMARK    4  A    between atoms: C_4  and  C_5
REMARK    5  A    between atoms: C_5  and  C_6
REMARK    6  A    between atoms: C_6  and  C_7
REMARK    7  A    between atoms: O_8  and  C_9
REMARK    8  A    between atoms: N_11  and  C_12
REMARK    9  A    between atoms: C_12  and  C_13
REMARK   10  A    between atoms: C_12  and  C_14
REMARK                            x       y       z     vdW  Elec       q    Type
REMARK                         _______ _______ _______ _____ _____    ______ ____
ROOT
ATOM      1  C   UNL     1       5.311   4.819  18.725  0.00  0.00    +0.000 C 
ATOM      2  O   UNL     1       4.492   5.711  18.592  0.00  0.00    +0.000 OA
ATOM      3  N   UNL     1       5.152   3.512  18.371  0.00  0.00    +0.000 N 
ATOM      4  H   UNL     1       6.000   2.962  18.364  0.00  0.00    +0.000 HD
ENDROOT
BRANCH   3   5
ATOM      5  C   UNL     1       3.885   2.874  18.074  0.00  0.00    +0.000 C 
ATOM      6  C   UNL     1       3.192   3.593  16.907  0.00  0.00    +0.000 C 
BRANCH   5   7
ATOM      7  C   UNL     1       2.952   2.876  19.277  0.00  0.00    +0.000 A 
ATOM      8  C   UNL     1       1.648   3.379  19.150  0.00  0.00    +0.000 A 
ATOM      9  C   UNL     1       0.821   3.508  20.270  0.00  0.00    +0.000 A 
ATOM     10  C   UNL     1       1.280   3.123  21.528  0.00  0.00    +0.000 A 
ATOM     11  C   UNL     1       2.559   2.592  21.667  0.00  0.00    +0.000 A 
ATOM     12  C   UNL     1       3.388   2.466  20.551  0.00  0.00    +0.000 A 
ENDBRANCH   5   7
ENDBRANCH   3   5
BRANCH   1  13
ATOM     13  O   UNL     1       6.559   4.985  19.231  0.00  0.00    +0.000 OA
BRANCH  13  14
ATOM     14  C   UNL     1       7.605   5.197  18.271  0.00  0.00    +0.000 C 
BRANCH  14  16
ATOM     15  C   UNL     1       7.823   7.842  17.935  0.00  0.00    +0.000 C 
ATOM     16  C   UNL     1       7.729   6.662  18.111  0.00  0.00    +0.000 C 
ENDBRANCH  14  16
BRANCH  14  17
ATOM     17  C   UNL     1       7.286   4.538  16.917  0.00  0.00    +0.000 C 
BRANCH  17  18
ATOM     18  C   UNL     1       7.034   5.567  15.798  0.00  0.00    +0.000 C 
BRANCH  18  19
ATOM     19  C   UNL     1       5.826   5.180  14.948  0.00  0.00    +0.000 C 
ATOM     20  C   UNL     1       6.066   3.891  14.178  0.00  0.00    +0.000 C 
ENDBRANCH  18  19
ENDBRANCH  17  18
ENDBRANCH  14  17
ENDBRANCH  13  14
ENDBRANCH   1  13
TORSDOF 8
ENDMDL
MODEL 7
REMARK VINA RESULT:      -6.9      1.310      2.007
REMARK  Name = 
REMARK  10 active torsions:
REMARK  status: ('A' for Active; 'I' for Inactive)
REMARK    1  A    between atoms: C_2  and  C_3
REMARK    2  A    between atoms: C_3  and  C_4
REMARK    3  A    between atoms: C_3  and  O_8
REMARK    4  A    between atoms: C_4  and  C_5
REMARK    5  A    between atoms: C_5  and  C_6
REMARK    6  A    between atoms: C_6  and  C_7
REMARK    7  A    between atoms: O_8  and  C_9
REMARK    8  A    between atoms: N_11  and  C_12
REMARK    9  A    between atoms: C_12  and  C_13
REMARK   10  A    between atoms: C_12  and  C_14
REMARK                            x       y       z     vdW  Elec       q    Type
REMARK                         _______ _______ _______ _____ _____    ______ ____
ROOT
ATOM      1  C   UNL     1       4.451   5.492  17.777  0.00  0.00    +0.000 C 
ATOM      2  O   UNL     1       4.832   4.980  18.815  0.00  0.00    +0.000 OA
ATOM      3  N   UNL     1       3.312   6.222  17.604  0.00  0.00    +0.000 N 
ATOM      4  H   UNL     1       3.260   6.738  16.736  0.00  0.00    +0.000 HD
ENDROOT
BRANCH   3   5
ATOM      5  C   UNL     1       2.191   6.255  18.523  0.00  0.00    +0.000 C 
ATOM      6  C   UNL     1       2.499   7.195  19.698  0.00  0.00    +0.000 C 
BRANCH   5   7
ATOM      7  C   UNL     1       1.865   4.872  19.071  0.00  0.00    +0.000 A 
ATOM      8  C   UNL     1       1.495   3.841  18.194  0.00  0.00    +0.000 A 
ATOM      9  C   UNL     1       1.068   2.604  18.687  0.00  0.00    +0.000 A 
ATOM     10  C   UNL     1       1.018   2.376  20.061  0.00  0.00    +0.000 A 
ATOM     11  C   UNL     1       1.411   3.378  20.945  0.00  0.00    +0.000 A 
ATOM     12  C   UNL     1       1.835   4.615  20.454  0.00  0.00    +0.000 A 
ENDBRANCH   5   7
ENDBRANCH   3   5
BRANCH   1  13
ATOM     13  O   UNL     1       5.123   5.448  16.601  0.00  0.00    +0.000 OA
BRANCH  13  14
ATOM     14  C   UNL     1       6.535   5.200  16.691  0.00  0.00    +0.000 C 
BRANCH  14  16
ATOM     15  C   UNL     1       7.623   7.495  17.530  0.00  0.00    +0.000 C 
ATOM     16  C   UNL     1       7.151   6.470  17.132  0.00  0.00    +0.000 C 
ENDBRANCH  14  16
BRANCH  14  17
ATOM     17  C   UNL     1       7.130   4.760  15.342  0.00  0.00    +0.000 C 
BRANCH  17  18
ATOM     18  C   UNL     1       6.166   3.878  14.525  0.00  0.00    +0.000 C 
BRANCH  18  19
ATOM     19  C   UNL     1       6.523   3.891  13.040  0.00  0.00    +0.000 C 
ATOM     20  C   UNL     1       5.423   3.278  12.188  0.00  0.00    +0.000 C 
ENDBRANCH  18  19
ENDBRANCH  17  18
ENDBRANCH  14  17
ENDBRANCH  13  14
ENDBRANCH   1  13
TORSDOF 8
ENDMDL
MODEL 8
REMARK VINA RESULT:      -6.9      1.765      2.933
REMARK  Name = 
REMARK  10 active torsions:
REMARK  status: ('A' for Active; 'I' for Inactive)
REMARK    1  A    between atoms: C_2  and  C_3
REMARK    2  A    between atoms: C_3  and  C_4
REMARK    3  A    between atoms: C_3  and  O_8
REMARK    4  A    between atoms: C_4  and  C_5
REMARK    5  A    between atoms: C_5  and  C_6
REMARK    6  A    between atoms: C_6  and  C_7
REMARK    7  A    between atoms: O_8  and  C_9
REMARK    8  A    between atoms: N_11  and  C_12
REMARK    9  A    between atoms: C_12  and  C_13
REMARK   10  A    between atoms: C_12  and  C_14
REMARK                            x       y       z     vdW  Elec       q    Type
REMARK                         _______ _______ _______ _____ _____    ______ ____
ROOT
ATOM      1  C   UNL     1       5.786   3.960  17.004  0.00  0.00    +0.000 C 
ATOM      2  O   UNL     1       5.843   3.390  15.929  0.00  0.00    +0.000 OA
ATOM      3  N   UNL     1       4.923   3.685  18.024  0.00  0.00    +0.000 N 
ATOM      4  H   UNL     1       5.152   4.116  18.909  0.00  0.00    +0.000 HD
ENDROOT
BRANCH   3   5
ATOM      5  C   UNL     1       3.714   2.894  17.906  0.00  0.00    +0.000 C 
ATOM      6  C   UNL     1       2.873   3.388  16.719  0.00  0.00    +0.000 C 
BRANCH   5   7
ATOM      7  C   UNL     1       2.867   2.957  19.170  0.00  0.00    +0.000 A 
ATOM      8  C   UNL     1       3.458   2.720  20.421  0.00  0.00    +0.000 A 
ATOM      9  C   UNL     1       2.675   2.646  21.577  0.00  0.00    +0.000 A 
ATOM     10  C   UNL     1       1.295   2.824  21.501  0.00  0.00    +0.000 A 
ATOM     11  C   UNL     1       0.697   3.091  20.273  0.00  0.00    +0.000 A 
ATOM     12  C   UNL     1       1.476   3.161  19.117  0.00  0.00    +0.000 A 
ENDBRANCH   5   7
ENDBRANCH   3   5
BRANCH   1  13
ATOM     13  O   UNL     1       6.609   4.967  17.389  0.00  0.00    +0.000 OA
BRANCH  13  14
ATOM     14  C   UNL     1       6.560   6.160  16.591  0.00  0.00    +0.000 C 
BRANCH  14  16
ATOM     15  C   UNL     1       7.953   8.040  17.888  0.00  0.00    +0.000 C 
ATOM     16  C   UNL     1       7.333   7.183  17.329  0.00  0.00    +0.000 C 
ENDBRANCH  14  16
BRANCH  14  17
ATOM     17  C   UNL     1       5.116   6.643  16.365  0.00  0.00    +0.000 C 
BRANCH  17  18
ATOM     18  C   UNL     1       4.503   7.297  17.618  0.00  0.00    +0.000 C 
BRANCH  18  19
ATOM     19  C   UNL     1       3.090   6.780  17.880  0.00  0.00    +0.000 C 
ATOM     20  C   UNL     1       2.852   6.508  19.356  0.00  0.00    +0.000 C 
ENDBRANCH  18  19
ENDBRANCH  17  18
ENDBRANCH  14  17
ENDBRANCH  13  14
ENDBRANCH   1  13
TORSDOF 8
ENDMDL
MODEL 9
REMARK VINA RESULT:      -6.9      1.428      3.670
REMARK  Name = 
REMARK  10 active torsions:
REMARK  status: ('A' for Active; 'I' for Inactive)
REMARK    1  A    between atoms: C_2  and  C_3
REMARK    2  A    between atoms: C_3  and  C_4
REMARK    3  A    between atoms: C_3  and  O_8
REMARK    4  A    between atoms: C_4  and  C_5
REMARK    5  A    between atoms: C_5  and  C_6
REMARK    6  A    between atoms: C_6  and  C_7
REMARK    7  A    between atoms: O_8  and  C_9
REMARK    8  A    between atoms: N_11  and  C_12
REMARK    9  A    between atoms: C_12  and  C_13
REMARK   10  A    between atoms: C_12  and  C_14
REMARK                            x       y       z     vdW  Elec       q    Type
REMARK                         _______ _______ _______ _____ _____    ______ ____
ROOT
ATOM      1  C   UNL     1       4.858   3.890  17.764  0.00  0.00    +0.000 C 
ATOM      2  O   UNL     1       5.534   3.835  18.776  0.00  0.00    +0.000 OA
ATOM      3  N   UNL     1       3.553   4.277  17.680  0.00  0.00    +0.000 N 
ATOM      4  H   UNL     1       3.218   4.458  16.744  0.00  0.00    +0.000 HD
ENDROOT
BRANCH   3   5
ATOM      5  C   UNL     1       2.637   4.381  18.799  0.00  0.00    +0.000 C 
ATOM      6  C   UNL     1       1.302   3.703  18.454  0.00  0.00    +0.000 C 
BRANCH   5   7
ATOM      7  C   UNL     1       2.370   5.830  19.182  0.00  0.00    +0.000 A 
ATOM      8  C   UNL     1       1.895   6.138  20.466  0.00  0.00    +0.000 A 
ATOM      9  C   UNL     1       1.521   7.444  20.794  0.00  0.00    +0.000 A 
ATOM     10  C   UNL     1       1.631   8.463  19.850  0.00  0.00    +0.000 A 
ATOM     11  C   UNL     1       2.129   8.181  18.581  0.00  0.00    +0.000 A 
ATOM     12  C   UNL     1       2.500   6.876  18.250  0.00  0.00    +0.000 A 
ENDBRANCH   5   7
ENDBRANCH   3   5
BRANCH   1  13
ATOM     13  O   UNL     1       5.308   3.601  16.518  0.00  0.00    +0.000 OA
BRANCH  13  14
ATOM     14  C   UNL     1       5.610   4.727  15.680  0.00  0.00    +0.000 C 
BRANCH  14  16
ATOM     15  C   UNL     1       5.990   3.736  13.224  0.00  0.00    +0.000 C 
ATOM     16  C   UNL     1       5.846   4.183  14.325  0.00  0.00    +0.000 C 
ENDBRANCH  14  16
BRANCH  14  17
ATOM     17  C   UNL     1       6.851   5.493  16.171  0.00  0.00    +0.000 C 
BRANCH  17  18
ATOM     18  C   UNL     1       6.493   6.791  16.920  0.00  0.00    +0.000 C 
BRANCH  18  19
ATOM     19  C   UNL     1       7.651   7.266  17.794  0.00  0.00    +0.000 C 
ATOM     20  C   UNL     1       7.962   6.279  18.908  0.00  0.00    +0.000 C 
ENDBRANCH  18  19
ENDBRANCH  17  18
ENDBRANCH  14  17
ENDBRANCH  13  14
ENDBRANCH   1  13
TORSDOF 8
ENDMDL
