MODEL 1
REMARK VINA RESULT:      -7.4      0.000      0.000
REMARK  Name = 
REMARK  8 active torsions:
REMARK  status: ('A' for Active; 'I' for Inactive)
REMARK    1  A    between atoms: C_1  and  C_2
REMARK    2  A    between atoms: C_2  and  C_3
REMARK    3  A    between atoms: C_2  and  C_4
REMARK    4  A    between atoms: C_2  and  O_5
REMARK    5  A    between atoms: O_5  and  C_6
REMARK    6  A    between atoms: C_10  and  C_11
REMARK    7  A    between atoms: C_15  and  N_16
REMARK    8  A    between atoms: C_17  and  C_19
REMARK                            x       y       z     vdW  Elec       q    Type
REMARK                         _______ _______ _______ _____ _____    ______ ____
ROOT
ATOM      1  C   UNL     1       0.365   9.542  21.235  0.00  0.00    +0.000 A 
ATOM      2  C   UNL     1      -0.123   9.121  22.475  0.00  0.00    +0.000 A 
ATOM      3  C   UNL     1      -0.833   9.998  23.290  0.00  0.00    +0.000 A 
ATOM      4  C   UNL     1      -1.057  11.312  22.877  0.00  0.00    +0.000 A 
ATOM      5  C   UNL     1      -0.576  11.767  21.647  0.00  0.00    +0.000 A 
ATOM      6  C   UNL     1       0.120  10.869  20.825  0.00  0.00    +0.000 A 
ENDROOT
BRANCH   1  11
ATOM      7  C   UNL     1       3.058   5.764  19.455  0.00  0.00    +0.000 C 
ATOM      8  O   UNL     1       3.706   5.563  18.439  0.00  0.00    +0.000 OA
ATOM      9  N   UNL     1       2.343   6.959  19.619  0.00  0.00    +0.000 N 
ATOM     10  C   UNL     1       1.581   7.378  20.697  0.00  0.00    +0.000 A 
ATOM     11  C   UNL     1       1.149   8.652  20.390  0.00  0.00    +0.000 A 
ATOM     12  N   UNL     1       1.590   9.013  19.142  0.00  0.00    +0.000 NA
ATOM     13  C   UNL     1       2.290   7.999  18.695  0.00  0.00    +0.000 A 
ATOM     14  N   UNL     1       2.904   7.955  17.503  0.00  0.00    +0.000 N 
ATOM     15  H   UNL     1       3.038   8.827  17.002  0.00  0.00    +0.000 HD
ATOM     16  H   UNL     1       3.606   7.237  17.314  0.00  0.00    +0.000 HD
BRANCH   7  17
ATOM     17  O   UNL     1       2.937   4.945  20.542  0.00  0.00    +0.000 OA
BRANCH  17  19
ATOM     18  C   UNL     1       3.427   2.637  19.796  0.00  0.00    +0.000 C 
ATOM     19  C   UNL     1       2.370   3.621  20.324  0.00  0.00    +0.000 C 
ATOM     20  C   UNL     1       1.139   3.703  19.408  0.00  0.00    +0.000 C 
ATOM     21  C   UNL     1       1.903   3.101  21.695  0.00  0.00    +0.000 C 
ENDBRANCH  17  19
ENDBRANCH   7  17
ENDBRANCH   1  11
BRANCH   5  22
ATOM     22  N   UNL     1      -0.780  13.089  21.188  0.00  0.00    +0.000 N 
ATOM     23  C   UNL     1      -0.041  14.204  21.563  0.00  0.00    +0.000 C 
ATOM     24  O   UNL     1       0.990  14.183  22.236  0.00  0.00    +0.000 OA
ATOM     25  H   UNL     1      -1.464  13.208  20.452  0.00  0.00    +0.000 HD
BRANCH  23  26
ATOM     26  C   UNL     1      -0.581  15.541  20.997  0.00  0.00    +0.000 C 
ATOM     27  C   UNL     1       0.497  16.573  20.722  0.00  0.00    +0.000 C 
ATOM     28  C   UNL     1       1.076  16.138  19.387  0.00  0.00    +0.000 C 
ATOM     29  C   UNL     1      -0.056  15.395  18.691  0.00  0.00    +0.000 C 
ATOM     30  N   UNL     1      -1.166  15.332  19.650  0.00  0.00    +0.000 NA
ATOM     31  H   UNL     1      -1.566  14.388  19.624  0.00  0.00    +0.000 HD
ENDBRANCH  23  26
ENDBRANCH   5  22
TORSDOF 5
ENDMDL
MODEL 2
REMARK VINA RESULT:      -7.2      4.409      6.906
REMARK  Name = 
REMARK  8 active torsions:
REMARK  status: ('A' for Active; 'I' for Inactive)
REMARK    1  A    between atoms: C_1  and  C_2
REMARK    2  A    between atoms: C_2  and  C_3
REMARK    3  A    between atoms: C_2  and  C_4
REMARK    4  A    between atoms: C_2  and  O_5
REMARK    5  A    between atoms: O_5  and  C_6
REMARK    6  A    between atoms: C_10  and  C_11
REMARK    7  A    between atoms: C_15  and  N_16
REMARK    8  A    between atoms: C_17  and  C_19
REMARK                            x       y       z     vdW  Elec       q    Type
REMARK                         _______ _______ _______ _____ _____    ______ ____
ROOT
ATOM      1  C   UNL     1       3.501   5.065  18.248  0.00  0.00    +0.000 A 
ATOM      2  C   UNL     1       2.752   3.886  18.299  0.00  0.00    +0.000 A 
ATOM      3  C   UNL     1       1.714   3.746  19.216  0.00  0.00    +0.000 A 
ATOM      4  C   UNL     1       1.417   4.784  20.101  0.00  0.00    +0.000 A 
ATOM      5  C   UNL     1       2.150   5.972  20.081  0.00  0.00    +0.000 A 
ATOM      6  C   UNL     1       3.180   6.111  19.139  0.00  0.00    +0.000 A 
ENDROOT
BRANCH   1  11
ATOM      7  C   UNL     1       6.769   4.485  14.551  0.00  0.00    +0.000 C 
ATOM      8  O   UNL     1       7.853   4.974  14.265  0.00  0.00    +0.000 OA
ATOM      9  N   UNL     1       6.059   4.935  15.673  0.00  0.00    +0.000 N 
ATOM     10  C   UNL     1       4.844   4.493  16.170  0.00  0.00    +0.000 A 
ATOM     11  C   UNL     1       4.619   5.212  17.326  0.00  0.00    +0.000 A 
ATOM     12  N   UNL     1       5.637   6.107  17.534  0.00  0.00    +0.000 NA
ATOM     13  C   UNL     1       6.480   5.937  16.544  0.00  0.00    +0.000 A 
ATOM     14  N   UNL     1       7.623   6.621  16.381  0.00  0.00    +0.000 N 
ATOM     15  H   UNL     1       7.986   7.140  17.173  0.00  0.00    +0.000 HD
ATOM     16  H   UNL     1       8.329   6.288  15.722  0.00  0.00    +0.000 HD
BRANCH   7  17
ATOM     17  O   UNL     1       6.113   3.477  13.903  0.00  0.00    +0.000 OA
BRANCH  17  19
ATOM     18  C   UNL     1       7.097   4.544  11.900  0.00  0.00    +0.000 C 
ATOM     19  C   UNL     1       6.094   3.515  12.447  0.00  0.00    +0.000 C 
ATOM     20  C   UNL     1       4.668   3.759  11.931  0.00  0.00    +0.000 C 
ATOM     21  C   UNL     1       6.544   2.129  11.955  0.00  0.00    +0.000 C 
ENDBRANCH  17  19
ENDBRANCH   7  17
ENDBRANCH   1  11
BRANCH   5  22
ATOM     22  N   UNL     1       1.883   7.050  20.957  0.00  0.00    +0.000 N 
ATOM     23  C   UNL     1       1.602   8.357  20.579  0.00  0.00    +0.000 C 
ATOM     24  O   UNL     1       1.402   8.738  19.425  0.00  0.00    +0.000 OA
ATOM     25  H   UNL     1       1.798   6.820  21.939  0.00  0.00    +0.000 HD
BRANCH  23  26
ATOM     26  C   UNL     1       1.484   9.348  21.764  0.00  0.00    +0.000 C 
ATOM     27  C   UNL     1       0.905  10.698  21.382  0.00  0.00    +0.000 C 
ATOM     28  C   UNL     1      -0.592  10.442  21.329  0.00  0.00    +0.000 C 
ATOM     29  C   UNL     1      -0.826   9.281  22.285  0.00  0.00    +0.000 C 
ATOM     30  N   UNL     1       0.497   8.852  22.754  0.00  0.00    +0.000 NA
ATOM     31  H   UNL     1       0.530   7.827  22.744  0.00  0.00    +0.000 HD
ENDBRANCH  23  26
ENDBRANCH   5  22
TORSDOF 5
ENDMDL
MODEL 3
REMARK VINA RESULT:      -7.1      2.906      8.876
REMARK  Name = 
REMARK  8 active torsions:
REMARK  status: ('A' for Active; 'I' for Inactive)
REMARK    1  A    between atoms: C_1  and  C_2
REMARK    2  A    between atoms: C_2  and  C_3
REMARK    3  A    between atoms: C_2  and  C_4
REMARK    4  A    between atoms: C_2  and  O_5
REMARK    5  A    between atoms: O_5  and  C_6
REMARK    6  A    between atoms: C_10  and  C_11
REMARK    7  A    between atoms: C_15  and  N_16
REMARK    8  A    between atoms: C_17  and  C_19
REMARK                            x       y       z     vdW  Elec       q    Type
REMARK                         _______ _______ _______ _____ _____    ______ ____
ROOT
ATOM      1  C   UNL     1       1.814   7.011  20.380  0.00  0.00    +0.000 A 
ATOM      2  C   UNL     1       1.412   5.780  20.907  0.00  0.00    +0.000 A 
ATOM      3  C   UNL     1       2.010   4.599  20.479  0.00  0.00    +0.000 A 
ATOM      4  C   UNL     1       3.016   4.634  19.511  0.00  0.00    +0.000 A 
ATOM      5  C   UNL     1       3.436   5.846  18.960  0.00  0.00    +0.000 A 
ATOM      6  C   UNL     1       2.840   7.033  19.413  0.00  0.00    +0.000 A 
ENDROOT
BRANCH   1  11
ATOM      7  C   UNL     1       0.129  11.680  20.612  0.00  0.00    +0.000 C 
ATOM      8  O   UNL     1      -0.412  12.367  21.466  0.00  0.00    +0.000 OA
ATOM      9  N   UNL     1       0.427  10.334  20.863  0.00  0.00    +0.000 N 
ATOM     10  C   UNL     1       1.054   9.412  20.042  0.00  0.00    +0.000 A 
ATOM     11  C   UNL     1       1.167   8.253  20.783  0.00  0.00    +0.000 A 
ATOM     12  N   UNL     1       0.595   8.422  22.018  0.00  0.00    +0.000 NA
ATOM     13  C   UNL     1       0.155   9.657  22.050  0.00  0.00    +0.000 A 
ATOM     14  N   UNL     1      -0.468  10.225  23.093  0.00  0.00    +0.000 N 
ATOM     15  H   UNL     1      -0.402   9.766  23.996  0.00  0.00    +0.000 HD
ATOM     16  H   UNL     1      -0.582  11.239  23.132  0.00  0.00    +0.000 HD
BRANCH   7  17
ATOM     17  O   UNL     1       0.536  12.068  19.366  0.00  0.00    +0.000 OA
BRANCH  17  19
ATOM     18  C   UNL     1       2.303  13.296  20.587  0.00  0.00    +0.000 C 
ATOM     19  C   UNL     1       1.500  13.157  19.283  0.00  0.00    +0.000 C 
ATOM     20  C   UNL     1       0.803  14.467  18.885  0.00  0.00    +0.000 C 
ATOM     21  C   UNL     1       2.495  12.793  18.167  0.00  0.00    +0.000 C 
ENDBRANCH  17  19
ENDBRANCH   7  17
ENDBRANCH   1  11
BRANCH   5  22
ATOM     22  N   UNL     1       4.451   5.929  17.978  0.00  0.00    +0.000 N 
ATOM     23  C   UNL     1       5.750   5.454  18.108  0.00  0.00    +0.000 C 
ATOM     24  O   UNL     1       6.167   4.764  19.038  0.00  0.00    +0.000 OA
ATOM     25  H   UNL     1       4.170   6.282  17.072  0.00  0.00    +0.000 HD
BRANCH  23  26
ATOM     26  C   UNL     1       6.675   5.807  16.916  0.00  0.00    +0.000 C 
ATOM     27  C   UNL     1       7.396   4.612  16.322  0.00  0.00    +0.000 C 
ATOM     28  C   UNL     1       6.346   3.966  15.433  0.00  0.00    +0.000 C 
ATOM     29  C   UNL     1       5.415   5.104  15.037  0.00  0.00    +0.000 C 
ATOM     30  N   UNL     1       5.872   6.292  15.767  0.00  0.00    +0.000 NA
ATOM     31  H   UNL     1       5.052   6.782  16.141  0.00  0.00    +0.000 HD
ENDBRANCH  23  26
ENDBRANCH   5  22
TORSDOF 5
ENDMDL
MODEL 4
REMARK VINA RESULT:      -7.1      3.309      9.259
REMARK  Name = 
REMARK  8 active torsions:
REMARK  status: ('A' for Active; 'I' for Inactive)
REMARK    1  A    between atoms: C_1  and  C_2
REMARK    2  A    between atoms: C_2  and  C_3
REMARK    3  A    between atoms: C_2  and  C_4
REMARK    4  A    between atoms: C_2  and  O_5
REMARK    5  A    between atoms: O_5  and  C_6
REMARK    6  A    between atoms: C_10  and  C_11
REMARK    7  A    between atoms: C_15  and  N_16
REMARK    8  A    between atoms: C_17  and  C_19
REMARK                            x       y       z     vdW  Elec       q    Type
REMARK                         _______ _______ _______ _____ _____    ______ ____
ROOT
ATOM      1  C   UNL     1       2.114   8.307  18.384  0.00  0.00    +0.000 A 
ATOM      2  C   UNL     1       3.127   8.719  17.513  0.00  0.00    +0.000 A 
ATOM      3  C   UNL     1       4.154   7.849  17.161  0.00  0.00    +0.000 A 
ATOM      4  C   UNL     1       4.185   6.554  17.684  0.00  0.00    +0.000 A 
ATOM      5  C   UNL     1       3.193   6.114  18.562  0.00  0.00    +0.000 A 
ATOM      6  C   UNL     1       2.151   6.992  18.894  0.00  0.00    +0.000 A 
ENDROOT
BRANCH   1  11
ATOM      7  C   UNL     1      -1.698  11.493  18.487  0.00  0.00    +0.000 C 
ATOM      8  O   UNL     1      -2.222  12.193  19.341  0.00  0.00    +0.000 OA
ATOM      9  N   UNL     1      -0.641  10.634  18.820  0.00  0.00    +0.000 N 
ATOM     10  C   UNL     1       0.090   9.793  17.997  0.00  0.00    +0.000 A 
ATOM     11  C   UNL     1       1.057   9.219  18.799  0.00  0.00    +0.000 A 
ATOM     12  N   UNL     1       0.917   9.652  20.093  0.00  0.00    +0.000 NA
ATOM     13  C   UNL     1      -0.096  10.484  20.092  0.00  0.00    +0.000 A 
ATOM     14  N   UNL     1      -0.556  11.136  21.171  0.00  0.00    +0.000 N 
ATOM     15  H   UNL     1       0.037  11.178  21.992  0.00  0.00    +0.000 HD
ATOM     16  H   UNL     1      -1.194  11.926  21.058  0.00  0.00    +0.000 HD
BRANCH   7  17
ATOM     17  O   UNL     1      -1.998  11.439  17.155  0.00  0.00    +0.000 OA
BRANCH  17  19
ATOM     18  C   UNL     1      -4.431  11.664  16.762  0.00  0.00    +0.000 C 
ATOM     19  C   UNL     1      -3.211  10.729  16.769  0.00  0.00    +0.000 C 
ATOM     20  C   UNL     1      -3.424   9.497  17.663  0.00  0.00    +0.000 C 
ATOM     21  C   UNL     1      -3.002  10.235  15.326  0.00  0.00    +0.000 C 
ENDBRANCH  17  19
ENDBRANCH   7  17
ENDBRANCH   1  11
BRANCH   5  22
ATOM     22  N   UNL     1       3.183   4.812  19.114  0.00  0.00    +0.000 N 
ATOM     23  C   UNL     1       3.292   3.624  18.402  0.00  0.00    +0.000 C 
ATOM     24  O   UNL     1       3.557   3.533  17.203  0.00  0.00    +0.000 OA
ATOM     25  H   UNL     1       3.193   4.753  20.125  0.00  0.00    +0.000 HD
BRANCH  23  26
ATOM     26  C   UNL     1       3.116   2.350  19.265  0.00  0.00    +0.000 C 
ATOM     27  C   UNL     1       2.628   2.625  20.676  0.00  0.00    +0.000 C 
ATOM     28  C   UNL     1       1.131   2.824  20.504  0.00  0.00    +0.000 C 
ATOM     29  C   UNL     1       0.769   2.023  19.261  0.00  0.00    +0.000 C 
ATOM     30  N   UNL     1       2.029   1.502  18.717  0.00  0.00    +0.000 NA
ATOM     31  H   UNL     1       2.020   1.623  17.699  0.00  0.00    +0.000 HD
ENDBRANCH  23  26
ENDBRANCH   5  22
TORSDOF 5
ENDMDL
MODEL 5
REMARK VINA RESULT:      -7.1      3.264      9.221
REMARK  Name = 
REMARK  8 active torsions:
REMARK  status: ('A' for Active; 'I' for Inactive)
REMARK    1  A    between atoms: C_1  and  C_2
REMARK    2  A    between atoms: C_2  and  C_3
REMARK    3  A    between atoms: C_2  and  C_4
REMARK    4  A    between atoms: C_2  and  O_5
REMARK    5  A    between atoms: O_5  and  C_6
REMARK    6  A    between atoms: C_10  and  C_11
REMARK    7  A    between atoms: C_15  and  N_16
REMARK    8  A    between atoms: C_17  and  C_19
REMARK                            x       y       z     vdW  Elec       q    Type
REMARK                         _______ _______ _______ _____ _____    ______ ____
ROOT
ATOM      1  C   UNL     1       2.268   8.087  18.267  0.00  0.00    +0.000 A 
ATOM      2  C   UNL     1       3.243   8.585  17.398  0.00  0.00    +0.000 A 
ATOM      3  C   UNL     1       4.282   7.770  16.959  0.00  0.00    +0.000 A 
ATOM      4  C   UNL     1       4.363   6.445  17.392  0.00  0.00    +0.000 A 
ATOM      5  C   UNL     1       3.409   5.919  18.265  0.00  0.00    +0.000 A 
ATOM      6  C   UNL     1       2.355   6.743  18.686  0.00  0.00    +0.000 A 
ENDROOT
BRANCH   1  11
ATOM      7  C   UNL     1      -1.554  11.233  18.695  0.00  0.00    +0.000 C 
ATOM      8  O   UNL     1      -2.097  11.819  19.620  0.00  0.00    +0.000 OA
ATOM      9  N   UNL     1      -0.502  10.339  18.938  0.00  0.00    +0.000 N 
ATOM     10  C   UNL     1       0.248   9.609  18.031  0.00  0.00    +0.000 A 
ATOM     11  C   UNL     1       1.200   8.940  18.772  0.00  0.00    +0.000 A 
ATOM     12  N   UNL     1       1.034   9.205  20.108  0.00  0.00    +0.000 NA
ATOM     13  C   UNL     1       0.019  10.030  20.192  0.00  0.00    +0.000 A 
ATOM     14  N   UNL     1      -0.465  10.540  21.335  0.00  0.00    +0.000 N 
ATOM     15  H   UNL     1       0.112  10.478  22.167  0.00  0.00    +0.000 HD
ATOM     16  H   UNL     1      -1.103  11.337  21.310  0.00  0.00    +0.000 HD
BRANCH   7  17
ATOM     17  O   UNL     1      -1.828  11.347  17.361  0.00  0.00    +0.000 OA
BRANCH  17  19
ATOM     18  C   UNL     1      -3.375   9.454  17.740  0.00  0.00    +0.000 C 
ATOM     19  C   UNL     1      -3.009  10.658  16.857  0.00  0.00    +0.000 C 
ATOM     20  C   UNL     1      -2.818  10.266  15.384  0.00  0.00    +0.000 C 
ATOM     21  C   UNL     1      -4.178  11.656  16.932  0.00  0.00    +0.000 C 
ENDBRANCH  17  19
ENDBRANCH   7  17
ENDBRANCH   1  11
BRANCH   5  22
ATOM     22  N   UNL     1       3.451   4.583  18.729  0.00  0.00    +0.000 N 
ATOM     23  C   UNL     1       2.745   3.513  18.193  0.00  0.00    +0.000 C 
ATOM     24  O   UNL     1       2.092   3.540  17.149  0.00  0.00    +0.000 OA
ATOM     25  H   UNL     1       4.128   4.380  19.453  0.00  0.00    +0.000 HD
BRANCH  23  26
ATOM     26  C   UNL     1       2.889   2.195  18.994  0.00  0.00    +0.000 C 
ATOM     27  C   UNL     1       3.618   2.354  20.316  0.00  0.00    +0.000 C 
ATOM     28  C   UNL     1       2.553   2.909  21.247  0.00  0.00    +0.000 C 
ATOM     29  C   UNL     1       1.233   2.409  20.675  0.00  0.00    +0.000 C 
ATOM     30  N   UNL     1       1.557   1.707  19.428  0.00  0.00    +0.000 NA
ATOM     31  H   UNL     1       0.875   1.980  18.712  0.00  0.00    +0.000 HD
ENDBRANCH  23  26
ENDBRANCH   5  22
TORSDOF 5
ENDMDL
MODEL 6
REMARK VINA RESULT:      -7.1      2.096      9.339
REMARK  Name = 
REMARK  8 active torsions:
REMARK  status: ('A' for Active; 'I' for Inactive)
REMARK    1  A    between atoms: C_1  and  C_2
REMARK    2  A    between atoms: C_2  and  C_3
REMARK    3  A    between atoms: C_2  and  C_4
REMARK    4  A    between atoms: C_2  and  O_5
REMARK    5  A    between atoms: O_5  and  C_6
REMARK    6  A    between atoms: C_10  and  C_11
REMARK    7  A    between atoms: C_15  and  N_16
REMARK    8  A    between atoms: C_17  and  C_19
REMARK                            x       y       z     vdW  Elec       q    Type
REMARK                         _______ _______ _______ _____ _____    ______ ____
ROOT
ATOM      1  C   UNL     1       1.725   8.492  19.419  0.00  0.00    +0.000 A 
ATOM      2  C   UNL     1       2.213   9.153  18.287  0.00  0.00    +0.000 A 
ATOM      3  C   UNL     1       2.983   8.474  17.349  0.00  0.00    +0.000 A 
ATOM      4  C   UNL     1       3.284   7.123  17.535  0.00  0.00    +0.000 A 
ATOM      5  C   UNL     1       2.818   6.435  18.658  0.00  0.00    +0.000 A 
ATOM      6  C   UNL     1       2.025   7.124  19.587  0.00  0.00    +0.000 A 
ENDROOT
BRANCH   1  11
ATOM      7  C   UNL     1      -0.485  11.966  22.200  0.00  0.00    +0.000 C 
ATOM      8  O   UNL     1      -1.065  11.978  23.276  0.00  0.00    +0.000 OA
ATOM      9  N   UNL     1      -0.020  10.761  21.654  0.00  0.00    +0.000 N 
ATOM     10  C   UNL     1       0.674  10.549  20.475  0.00  0.00    +0.000 A 
ATOM     11  C   UNL     1       0.955   9.199  20.434  0.00  0.00    +0.000 A 
ATOM     12  N   UNL     1       0.423   8.570  21.530  0.00  0.00    +0.000 NA
ATOM     13  C   UNL     1      -0.157   9.506  22.242  0.00  0.00    +0.000 A 
ATOM     14  N   UNL     1      -0.795   9.304  23.405  0.00  0.00    +0.000 N 
ATOM     15  H   UNL     1      -0.635   8.428  23.891  0.00  0.00    +0.000 HD
ATOM     16  H   UNL     1      -1.026  10.096  24.007  0.00  0.00    +0.000 HD
BRANCH   7  17
ATOM     17  O   UNL     1      -0.183  13.036  21.405  0.00  0.00    +0.000 OA
BRANCH  17  19
ATOM     18  C   UNL     1      -1.880  14.792  21.799  0.00  0.00    +0.000 C 
ATOM     19  C   UNL     1      -1.296  13.767  20.813  0.00  0.00    +0.000 C 
ATOM     20  C   UNL     1      -2.360  12.796  20.281  0.00  0.00    +0.000 C 
ATOM     21  C   UNL     1      -0.731  14.552  19.616  0.00  0.00    +0.000 C 
ENDBRANCH  17  19
ENDBRANCH   7  17
ENDBRANCH   1  11
BRANCH   5  22
ATOM     22  N   UNL     1       3.097   5.067  18.886  0.00  0.00    +0.000 N 
ATOM     23  C   UNL     1       2.422   3.993  18.320  0.00  0.00    +0.000 C 
ATOM     24  O   UNL     1       1.580   4.072  17.425  0.00  0.00    +0.000 OA
ATOM     25  H   UNL     1       3.920   4.863  19.438  0.00  0.00    +0.000 HD
BRANCH  23  26
ATOM     26  C   UNL     1       2.865   2.611  18.861  0.00  0.00    +0.000 C 
ATOM     27  C   UNL     1       3.667   2.682  20.148  0.00  0.00    +0.000 C 
ATOM     28  C   UNL     1       2.606   2.864  21.221  0.00  0.00    +0.000 C 
ATOM     29  C   UNL     1       1.350   2.227  20.643  0.00  0.00    +0.000 C 
ATOM     30  N   UNL     1       1.682   1.816  19.273  0.00  0.00    +0.000 NA
ATOM     31  H   UNL     1       0.902   2.072  18.657  0.00  0.00    +0.000 HD
ENDBRANCH  23  26
ENDBRANCH   5  22
TORSDOF 5
ENDMDL
MODEL 7
REMARK VINA RESULT:      -7.1      2.903      8.834
REMARK  Name = 
REMARK  8 active torsions:
REMARK  status: ('A' for Active; 'I' for Inactive)
REMARK    1  A    between atoms: C_1  and  C_2
REMARK    2  A    between atoms: C_2  and  C_3
REMARK    3  A    between atoms: C_2  and  C_4
REMARK    4  A    between atoms: C_2  and  O_5
REMARK    5  A    between atoms: O_5  and  C_6
REMARK    6  A    between atoms: C_10  and  C_11
REMARK    7  A    between atoms: C_15  and  N_16
REMARK    8  A    between atoms: C_17  and  C_19
REMARK                            x       y       z     vdW  Elec       q    Type
REMARK                         _______ _______ _______ _____ _____    ______ ____
ROOT
ATOM      1  C   UNL     1       2.069   7.228  19.636  0.00  0.00    +0.000 A 
ATOM      2  C   UNL     1       1.558   6.506  20.720  0.00  0.00    +0.000 A 
ATOM      3  C   UNL     1       1.905   5.171  20.907  0.00  0.00    +0.000 A 
ATOM      4  C   UNL     1       2.763   4.538  20.006  0.00  0.00    +0.000 A 
ATOM      5  C   UNL     1       3.285   5.228  18.910  0.00  0.00    +0.000 A 
ATOM      6  C   UNL     1       2.945   6.579  18.742  0.00  0.00    +0.000 A 
ENDROOT
BRANCH   1  11
ATOM      7  C   UNL     1      -0.280  11.606  19.603  0.00  0.00    +0.000 C 
ATOM      8  O   UNL     1      -0.164  12.649  18.976  0.00  0.00    +0.000 OA
ATOM      9  N   UNL     1       0.620  10.550  19.402  0.00  0.00    +0.000 N 
ATOM     10  C   UNL     1       0.638   9.296  19.989  0.00  0.00    +0.000 A 
ATOM     11  C   UNL     1       1.681   8.612  19.400  0.00  0.00    +0.000 A 
ATOM     12  N   UNL     1       2.328   9.418  18.498  0.00  0.00    +0.000 NA
ATOM     13  C   UNL     1       1.693  10.565  18.514  0.00  0.00    +0.000 A 
ATOM     14  N   UNL     1       2.011  11.630  17.762  0.00  0.00    +0.000 N 
ATOM     15  H   UNL     1       2.627  11.488  16.969  0.00  0.00    +0.000 HD
ATOM     16  H   UNL     1       1.349  12.402  17.662  0.00  0.00    +0.000 HD
BRANCH   7  17
ATOM     17  O   UNL     1      -1.241  11.289  20.521  0.00  0.00    +0.000 OA
BRANCH  17  19
ATOM     18  C   UNL     1      -2.568  12.643  22.110  0.00  0.00    +0.000 C 
ATOM     19  C   UNL     1      -1.211  11.993  21.795  0.00  0.00    +0.000 C 
ATOM     20  C   UNL     1      -0.057  13.007  21.826  0.00  0.00    +0.000 C 
ATOM     21  C   UNL     1      -0.942  10.940  22.884  0.00  0.00    +0.000 C 
ENDBRANCH  17  19
ENDBRANCH   7  17
ENDBRANCH   1  11
BRANCH   5  22
ATOM     22  N   UNL     1       4.157   4.627  17.973  0.00  0.00    +0.000 N 
ATOM     23  C   UNL     1       5.529   4.467  18.124  0.00  0.00    +0.000 C 
ATOM     24  O   UNL     1       6.164   4.692  19.155  0.00  0.00    +0.000 OA
ATOM     25  H   UNL     1       3.723   4.195  17.168  0.00  0.00    +0.000 HD
BRANCH  23  26
ATOM     26  C   UNL     1       6.241   3.894  16.873  0.00  0.00    +0.000 C 
ATOM     27  C   UNL     1       5.455   4.061  15.586  0.00  0.00    +0.000 C 
ATOM     28  C   UNL     1       5.723   5.503  15.189  0.00  0.00    +0.000 C 
ATOM     29  C   UNL     1       7.078   5.833  15.800  0.00  0.00    +0.000 C 
ATOM     30  N   UNL     1       7.478   4.661  16.588  0.00  0.00    +0.000 NA
ATOM     31  H   UNL     1       7.861   4.984  17.483  0.00  0.00    +0.000 HD
ENDBRANCH  23  26
ENDBRANCH   5  22
TORSDOF 5
ENDMDL
MODEL 8
REMARK VINA RESULT:      -7.1      1.896      9.509
REMARK  Name = 
REMARK  8 active torsions:
REMARK  status: ('A' for Active; 'I' for Inactive)
REMARK    1  A    between atoms: C_1  and  C_2
REMARK    2  A    between atoms: C_2  and  C_3
REMARK    3  A    between atoms: C_2  and  C_4
REMARK    4  A    between atoms: C_2  and  O_5
REMARK    5  A    between atoms: O_5  and  C_6
REMARK    6  A    between atoms: C_10  and  C_11
REMARK    7  A    between atoms: C_15  and  N_16
REMARK    8  A    between atoms: C_17  and  C_19
REMARK                            x       y       z     vdW  Elec       q    Type
REMARK                         _______ _______ _______ _____ _____    ______ ____
ROOT
ATOM      1  C   UNL     1       1.435   8.799  19.753  0.00  0.00    +0.000 A 
ATOM      2  C   UNL     1       1.709   9.215  18.447  0.00  0.00    +0.000 A 
ATOM      3  C   UNL     1       2.441   8.404  17.585  0.00  0.00    +0.000 A 
ATOM      4  C   UNL     1       2.915   7.166  18.023  0.00  0.00    +0.000 A 
ATOM      5  C   UNL     1       2.665   6.724  19.324  0.00  0.00    +0.000 A 
ATOM      6  C   UNL     1       1.909   7.541  20.178  0.00  0.00    +0.000 A 
ENDROOT
BRANCH   1  11
ATOM      7  C   UNL     1      -0.461  12.681  22.208  0.00  0.00    +0.000 C 
ATOM      8  O   UNL     1      -1.088  12.829  23.248  0.00  0.00    +0.000 OA
ATOM      9  N   UNL     1      -0.124  11.397  21.757  0.00  0.00    +0.000 N 
ATOM     10  C   UNL     1       0.597  11.030  20.633  0.00  0.00    +0.000 A 
ATOM     11  C   UNL     1       0.709   9.656  20.682  0.00  0.00    +0.000 A 
ATOM     12  N   UNL     1       0.049   9.164  21.779  0.00  0.00    +0.000 NA
ATOM     13  C   UNL     1      -0.445  10.206  22.404  0.00  0.00    +0.000 A 
ATOM     14  N   UNL     1      -1.160  10.155  23.538  0.00  0.00    +0.000 N 
ATOM     15  H   UNL     1      -1.135   9.298  24.080  0.00  0.00    +0.000 HD
ATOM     16  H   UNL     1      -1.320  11.005  24.082  0.00  0.00    +0.000 HD
BRANCH   7  17
ATOM     17  O   UNL     1       0.011  13.655  21.374  0.00  0.00    +0.000 OA
BRANCH  17  19
ATOM     18  C   UNL     1      -1.259  15.778  21.326  0.00  0.00    +0.000 C 
ATOM     19  C   UNL     1      -0.970  14.436  20.632  0.00  0.00    +0.000 C 
ATOM     20  C   UNL     1      -2.247  13.616  20.393  0.00  0.00    +0.000 C 
ATOM     21  C   UNL     1      -0.348  14.752  19.261  0.00  0.00    +0.000 C 
ENDBRANCH  17  19
ENDBRANCH   7  17
ENDBRANCH   1  11
BRANCH   5  22
ATOM     22  N   UNL     1       3.124   5.478  19.810  0.00  0.00    +0.000 N 
ATOM     23  C   UNL     1       3.975   4.606  19.142  0.00  0.00    +0.000 C 
ATOM     24  O   UNL     1       4.569   4.855  18.092  0.00  0.00    +0.000 OA
ATOM     25  H   UNL     1       2.884   5.253  20.767  0.00  0.00    +0.000 HD
BRANCH  23  26
ATOM     26  C   UNL     1       4.198   3.256  19.868  0.00  0.00    +0.000 C 
ATOM     27  C   UNL     1       2.941   2.680  20.495  0.00  0.00    +0.000 C 
ATOM     28  C   UNL     1       2.222   2.034  19.322  0.00  0.00    +0.000 C 
ATOM     29  C   UNL     1       3.323   1.676  18.335  0.00  0.00    +0.000 C 
ATOM     30  N   UNL     1       4.574   2.203  18.894  0.00  0.00    +0.000 NA
ATOM     31  H   UNL     1       5.107   2.649  18.140  0.00  0.00    +0.000 HD
ENDBRANCH  23  26
ENDBRANCH   5  22
TORSDOF 5
ENDMDL
MODEL 9
REMARK VINA RESULT:      -7.1      4.121      8.603
REMARK  Name = 
REMARK  8 active torsions:
REMARK  status: ('A' for Active; 'I' for Inactive)
REMARK    1  A    between atoms: C_1  and  C_2
REMARK    2  A    between atoms: C_2  and  C_3
REMARK    3  A    between atoms: C_2  and  C_4
REMARK    4  A    between atoms: C_2  and  O_5
REMARK    5  A    between atoms: O_5  and  C_6
REMARK    6  A    between atoms: C_10  and  C_11
REMARK    7  A    between atoms: C_15  and  N_16
REMARK    8  A    between atoms: C_17  and  C_19
REMARK                            x       y       z     vdW  Elec       q    Type
REMARK                         _______ _______ _______ _____ _____    ______ ____
ROOT
ATOM      1  C   UNL     1      -0.455  10.071  20.114  0.00  0.00    +0.000 A 
ATOM      2  C   UNL     1      -0.322  10.852  21.266  0.00  0.00    +0.000 A 
ATOM      3  C   UNL     1       0.522  10.451  22.298  0.00  0.00    +0.000 A 
ATOM      4  C   UNL     1       1.239   9.258  22.193  0.00  0.00    +0.000 A 
ATOM      5  C   UNL     1       1.124   8.452  21.059  0.00  0.00    +0.000 A 
ATOM      6  C   UNL     1       0.286   8.875  20.016  0.00  0.00    +0.000 A 
ENDROOT
BRANCH   1  11
ATOM      7  C   UNL     1      -4.299  11.806  17.487  0.00  0.00    +0.000 C 
ATOM      8  O   UNL     1      -4.658  11.733  16.321  0.00  0.00    +0.000 OA
ATOM      9  N   UNL     1      -3.087  11.233  17.897  0.00  0.00    +0.000 N 
ATOM     10  C   UNL     1      -2.528  11.188  19.163  0.00  0.00    +0.000 A 
ATOM     11  C   UNL     1      -1.367  10.452  19.045  0.00  0.00    +0.000 A 
ATOM     12  N   UNL     1      -1.176  10.076  17.739  0.00  0.00    +0.000 NA
ATOM     13  C   UNL     1      -2.199  10.550  17.070  0.00  0.00    +0.000 A 
ATOM     14  N   UNL     1      -2.394  10.393  15.752  0.00  0.00    +0.000 N 
ATOM     15  H   UNL     1      -1.855   9.682  15.270  0.00  0.00    +0.000 HD
ATOM     16  H   UNL     1      -3.308  10.593  15.342  0.00  0.00    +0.000 HD
BRANCH   7  17
ATOM     17  O   UNL     1      -4.965  12.389  18.528  0.00  0.00    +0.000 OA
BRANCH  17  19
ATOM     18  C   UNL     1      -6.372  10.359  18.659  0.00  0.00    +0.000 C 
ATOM     19  C   UNL     1      -6.295  11.883  18.841  0.00  0.00    +0.000 C 
ATOM     20  C   UNL     1      -7.362  12.624  18.022  0.00  0.00    +0.000 C 
ATOM     21  C   UNL     1      -6.550  12.182  20.329  0.00  0.00    +0.000 C 
ENDBRANCH  17  19
ENDBRANCH   7  17
ENDBRANCH   1  11
BRANCH   5  22
ATOM     22  N   UNL     1       1.831   7.237  20.909  0.00  0.00    +0.000 N 
ATOM     23  C   UNL     1       2.421   6.776  19.739  0.00  0.00    +0.000 C 
ATOM     24  O   UNL     1       2.539   7.424  18.698  0.00  0.00    +0.000 OA
ATOM     25  H   UNL     1       1.999   6.708  21.756  0.00  0.00    +0.000 HD
BRANCH  23  26
ATOM     26  C   UNL     1       3.012   5.348  19.846  0.00  0.00    +0.000 C 
ATOM     27  C   UNL     1       2.280   4.452  20.829  0.00  0.00    +0.000 C 
ATOM     28  C   UNL     1       1.062   3.987  20.049  0.00  0.00    +0.000 C 
ATOM     29  C   UNL     1       1.486   4.044  18.588  0.00  0.00    +0.000 C 
ATOM     30  N   UNL     1       2.836   4.620  18.566  0.00  0.00    +0.000 NA
ATOM     31  H   UNL     1       2.886   5.306  17.805  0.00  0.00    +0.000 HD
ENDBRANCH  23  26
ENDBRANCH   5  22
TORSDOF 5
ENDMDL
