MODEL 1
REMARK VINA RESULT:      -7.9      0.000      0.000
REMARK  Name = 
REMARK  5 active torsions:
REMARK  status: ('A' for Active; 'I' for Inactive)
REMARK    1  A    between atoms: N_1  and  C_2
REMARK    2  A    between atoms: C_5  and  S_6
REMARK    3  A    between atoms: S_6  and  N_9
REMARK    4  A    between atoms: N_9  and  C_10
REMARK    5  A    between atoms: C_12  and  C_13
REMARK                            x       y       z     vdW  Elec       q    Type
REMARK                         _______ _______ _______ _____ _____    ______ ____
ROOT
ATOM      1  N   UNL     1       7.231   4.433  17.690  0.00  0.00    +0.000 N 
ATOM      2  H   UNL     1       7.034   3.477  18.003  0.00  0.00    +0.000 HD
ENDROOT
BRANCH   1   3
ATOM      3  C   UNL     1       7.103   4.441  16.268  0.00  0.00    +0.000 A 
ATOM      4  C   UNL     1       6.422   3.530  15.502  0.00  0.00    +0.000 A 
ATOM      5  C   UNL     1       6.474   4.054  14.178  0.00  0.00    +0.000 A 
ATOM      6  N   UNL     1       7.177   5.200  14.166  0.00  0.00    +0.000 NA
ATOM      7  O   UNL     1       7.549   5.444  15.473  0.00  0.00    +0.000 OA
BRANCH   5   8
ATOM      8  C   UNL     1       5.839   3.525  12.969  0.00  0.00    +0.000 A 
ATOM      9  C   UNL     1       4.603   4.030  12.534  0.00  0.00    +0.000 A 
ATOM     10  C   UNL     1       3.965   3.494  11.411  0.00  0.00    +0.000 A 
ATOM     11  C   UNL     1       4.557   2.450  10.705  0.00  0.00    +0.000 A 
ATOM     12  C   UNL     1       5.790   1.947  11.115  0.00  0.00    +0.000 A 
ATOM     13  C   UNL     1       6.427   2.481  12.240  0.00  0.00    +0.000 A 
ENDBRANCH   5   8
ENDBRANCH   1   3
BRANCH   1  14
ATOM     14  S   UNL     1       6.003   5.362  18.427  0.00  0.00    +0.000 S 
ATOM     15  O   UNL     1       5.715   6.432  17.498  0.00  0.00    +0.000 OA
ATOM     16  O   UNL     1       6.321   5.600  19.818  0.00  0.00    +0.000 OA
BRANCH  14  20
ATOM     17  C   UNL     1       2.459   2.462  18.422  0.00  0.00    +0.000 A 
ATOM     18  C   UNL     1       3.505   2.316  19.340  0.00  0.00    +0.000 A 
ATOM     19  C   UNL     1       4.601   3.182  19.322  0.00  0.00    +0.000 A 
ATOM     20  C   UNL     1       4.636   4.228  18.399  0.00  0.00    +0.000 A 
ATOM     21  C   UNL     1       3.578   4.421  17.509  0.00  0.00    +0.000 A 
ATOM     22  C   UNL     1       2.484   3.548  17.540  0.00  0.00    +0.000 A 
BRANCH  17  23
ATOM     23  N   UNL     1       1.302   1.684  18.547  0.00  0.00    +0.000 N 
ATOM     24  H   UNL     1       0.437   2.211  18.482  0.00  0.00    +0.000 HD
ATOM     25  H   UNL     1       1.308   1.047  19.336  0.00  0.00    +0.000 HD
ENDBRANCH  17  23
ENDBRANCH  14  20
ENDBRANCH   1  14
TORSDOF 5
ENDMDL
MODEL 2
REMARK VINA RESULT:      -7.7      0.150      1.031
REMARK  Name = 
REMARK  5 active torsions:
REMARK  status: ('A' for Active; 'I' for Inactive)
REMARK    1  A    between atoms: N_1  and  C_2
REMARK    2  A    between atoms: C_5  and  S_6
REMARK    3  A    between atoms: S_6  and  N_9
REMARK    4  A    between atoms: N_9  and  C_10
REMARK    5  A    between atoms: C_12  and  C_13
REMARK                            x       y       z     vdW  Elec       q    Type
REMARK                         _______ _______ _______ _____ _____    ______ ____
ROOT
ATOM      1  N   UNL     1       7.138   4.407  17.766  0.00  0.00    +0.000 N 
ATOM      2  H   UNL     1       6.872   3.466  18.074  0.00  0.00    +0.000 HD
ENDROOT
BRANCH   1   3
ATOM      3  C   UNL     1       7.041   4.422  16.342  0.00  0.00    +0.000 A 
ATOM      4  C   UNL     1       6.359   3.528  15.557  0.00  0.00    +0.000 A 
ATOM      5  C   UNL     1       6.451   4.055  14.237  0.00  0.00    +0.000 A 
ATOM      6  N   UNL     1       7.177   5.186  14.244  0.00  0.00    +0.000 NA
ATOM      7  O   UNL     1       7.525   5.418  15.560  0.00  0.00    +0.000 OA
BRANCH   5   8
ATOM      8  C   UNL     1       5.831   3.543  13.012  0.00  0.00    +0.000 A 
ATOM      9  C   UNL     1       4.587   4.034  12.584  0.00  0.00    +0.000 A 
ATOM     10  C   UNL     1       3.964   3.513  11.446  0.00  0.00    +0.000 A 
ATOM     11  C   UNL     1       4.581   2.499  10.717  0.00  0.00    +0.000 A 
ATOM     12  C   UNL     1       5.822   2.011  11.120  0.00  0.00    +0.000 A 
ATOM     13  C   UNL     1       6.444   2.530  12.260  0.00  0.00    +0.000 A 
ENDBRANCH   5   8
ENDBRANCH   1   3
BRANCH   1  14
ATOM     14  S   UNL     1       5.958   5.415  18.476  0.00  0.00    +0.000 S 
ATOM     15  O   UNL     1       5.690   6.448  17.500  0.00  0.00    +0.000 OA
ATOM     16  O   UNL     1       6.312   5.711  19.847  0.00  0.00    +0.000 OA
BRANCH  14  20
ATOM     17  C   UNL     1       2.343   2.607  18.547  0.00  0.00    +0.000 A 
ATOM     18  C   UNL     1       2.328   3.777  17.780  0.00  0.00    +0.000 A 
ATOM     19  C   UNL     1       3.419   4.650  17.782  0.00  0.00    +0.000 A 
ATOM     20  C   UNL     1       4.552   4.331  18.531  0.00  0.00    +0.000 A 
ATOM     21  C   UNL     1       4.606   3.143  19.262  0.00  0.00    +0.000 A 
ATOM     22  C   UNL     1       3.507   2.276  19.248  0.00  0.00    +0.000 A 
BRANCH  17  23
ATOM     23  N   UNL     1       1.309   1.672  18.420  0.00  0.00    +0.000 N 
ATOM     24  H   UNL     1       0.766   1.764  17.567  0.00  0.00    +0.000 HD
ATOM     25  H   UNL     1       0.723   1.579  19.243  0.00  0.00    +0.000 HD
ENDBRANCH  17  23
ENDBRANCH  14  20
ENDBRANCH   1  14
TORSDOF 5
ENDMDL
MODEL 3
REMARK VINA RESULT:      -7.7      0.097      1.031
REMARK  Name = 
REMARK  5 active torsions:
REMARK  status: ('A' for Active; 'I' for Inactive)
REMARK    1  A    between atoms: N_1  and  C_2
REMARK    2  A    between atoms: C_5  and  S_6
REMARK    3  A    between atoms: S_6  and  N_9
REMARK    4  A    between atoms: N_9  and  C_10
REMARK    5  A    between atoms: C_12  and  C_13
REMARK                            x       y       z     vdW  Elec       q    Type
REMARK                         _______ _______ _______ _____ _____    ______ ____
ROOT
ATOM      1  N   UNL     1       7.232   4.458  17.726  0.00  0.00    +0.000 N 
ATOM      2  H   UNL     1       7.033   3.508  18.056  0.00  0.00    +0.000 HD
ENDROOT
BRANCH   1   3
ATOM      3  C   UNL     1       7.098   4.441  16.305  0.00  0.00    +0.000 A 
ATOM      4  C   UNL     1       6.398   3.528  15.559  0.00  0.00    +0.000 A 
ATOM      5  C   UNL     1       6.453   4.026  14.225  0.00  0.00    +0.000 A 
ATOM      6  N   UNL     1       7.176   5.158  14.188  0.00  0.00    +0.000 NA
ATOM      7  O   UNL     1       7.557   5.421  15.489  0.00  0.00    +0.000 OA
BRANCH   5   8
ATOM      8  C   UNL     1       5.803   3.485  13.029  0.00  0.00    +0.000 A 
ATOM      9  C   UNL     1       6.454   2.525  12.236  0.00  0.00    +0.000 A 
ATOM     10  C   UNL     1       5.863   2.043  11.064  0.00  0.00    +0.000 A 
ATOM     11  C   UNL     1       4.611   2.509  10.673  0.00  0.00    +0.000 A 
ATOM     12  C   UNL     1       3.946   3.450  11.456  0.00  0.00    +0.000 A 
ATOM     13  C   UNL     1       4.537   3.935  12.626  0.00  0.00    +0.000 A 
ENDBRANCH   5   8
ENDBRANCH   1   3
BRANCH   1  14
ATOM     14  S   UNL     1       6.011   5.404  18.451  0.00  0.00    +0.000 S 
ATOM     15  O   UNL     1       5.747   6.479  17.520  0.00  0.00    +0.000 OA
ATOM     16  O   UNL     1       6.319   5.638  19.845  0.00  0.00    +0.000 OA
BRANCH  14  20
ATOM     17  C   UNL     1       2.431   2.549  18.417  0.00  0.00    +0.000 A 
ATOM     18  C   UNL     1       3.536   2.306  19.241  0.00  0.00    +0.000 A 
ATOM     19  C   UNL     1       4.641   3.161  19.230  0.00  0.00    +0.000 A 
ATOM     20  C   UNL     1       4.628   4.290  18.411  0.00  0.00    +0.000 A 
ATOM     21  C   UNL     1       3.514   4.577  17.620  0.00  0.00    +0.000 A 
ATOM     22  C   UNL     1       2.412   3.715  17.644  0.00  0.00    +0.000 A 
BRANCH  17  23
ATOM     23  N   UNL     1       1.274   1.773  18.548  0.00  0.00    +0.000 N 
ATOM     24  H   UNL     1       1.344   1.032  19.239  0.00  0.00    +0.000 HD
ATOM     25  H   UNL     1       0.888   1.445  17.669  0.00  0.00    +0.000 HD
ENDBRANCH  17  23
ENDBRANCH  14  20
ENDBRANCH   1  14
TORSDOF 5
ENDMDL
MODEL 4
REMARK VINA RESULT:      -7.5      1.012      1.489
REMARK  Name = 
REMARK  5 active torsions:
REMARK  status: ('A' for Active; 'I' for Inactive)
REMARK    1  A    between atoms: N_1  and  C_2
REMARK    2  A    between atoms: C_5  and  S_6
REMARK    3  A    between atoms: S_6  and  N_9
REMARK    4  A    between atoms: N_9  and  C_10
REMARK    5  A    between atoms: C_12  and  C_13
REMARK                            x       y       z     vdW  Elec       q    Type
REMARK                         _______ _______ _______ _____ _____    ______ ____
ROOT
ATOM      1  N   UNL     1       5.856   6.155  17.291  0.00  0.00    +0.000 N 
ATOM      2  H   UNL     1       6.496   6.932  17.485  0.00  0.00    +0.000 HD
ENDROOT
BRANCH   1   3
ATOM      3  C   UNL     1       6.289   5.555  16.071  0.00  0.00    +0.000 A 
ATOM      4  C   UNL     1       5.594   4.651  15.310  0.00  0.00    +0.000 A 
ATOM      5  C   UNL     1       6.386   4.473  14.138  0.00  0.00    +0.000 A 
ATOM      6  N   UNL     1       7.504   5.214  14.224  0.00  0.00    +0.000 NA
ATOM      7  O   UNL     1       7.428   5.899  15.420  0.00  0.00    +0.000 OA
BRANCH   5   8
ATOM      8  C   UNL     1       6.078   3.674  12.950  0.00  0.00    +0.000 A 
ATOM      9  C   UNL     1       4.768   3.623  12.445  0.00  0.00    +0.000 A 
ATOM     10  C   UNL     1       4.455   2.821  11.343  0.00  0.00    +0.000 A 
ATOM     11  C   UNL     1       5.449   2.064  10.728  0.00  0.00    +0.000 A 
ATOM     12  C   UNL     1       6.756   2.115  11.207  0.00  0.00    +0.000 A 
ATOM     13  C   UNL     1       7.069   2.914  12.311  0.00  0.00    +0.000 A 
ENDBRANCH   5   8
ENDBRANCH   1   3
BRANCH   1  14
ATOM     14  S   UNL     1       6.082   5.101  18.614  0.00  0.00    +0.000 S 
ATOM     15  O   UNL     1       6.241   5.957  19.769  0.00  0.00    +0.000 OA
ATOM     16  O   UNL     1       7.034   4.066  18.274  0.00  0.00    +0.000 OA
BRANCH  14  20
ATOM     17  C   UNL     1       1.973   3.091  18.820  0.00  0.00    +0.000 A 
ATOM     18  C   UNL     1       2.107   4.406  18.361  0.00  0.00    +0.000 A 
ATOM     19  C   UNL     1       3.357   5.031  18.327  0.00  0.00    +0.000 A 
ATOM     20  C   UNL     1       4.491   4.320  18.722  0.00  0.00    +0.000 A 
ATOM     21  C   UNL     1       4.385   2.991  19.134  0.00  0.00    +0.000 A 
ATOM     22  C   UNL     1       3.127   2.376  19.160  0.00  0.00    +0.000 A 
BRANCH  17  23
ATOM     23  N   UNL     1       0.745   2.431  18.709  0.00  0.00    +0.000 N 
ATOM     24  H   UNL     1       0.574   2.018  17.797  0.00  0.00    +0.000 HD
ATOM     25  H   UNL     1      -0.050   2.964  19.047  0.00  0.00    +0.000 HD
ENDBRANCH  17  23
ENDBRANCH  14  20
ENDBRANCH   1  14
TORSDOF 5
ENDMDL
MODEL 5
REMARK VINA RESULT:      -7.5      1.438      1.572
REMARK  Name = 
REMARK  5 active torsions:
REMARK  status: ('A' for Active; 'I' for Inactive)
REMARK    1  A    between atoms: N_1  and  C_2
REMARK    2  A    between atoms: C_5  and  S_6
REMARK    3  A    between atoms: S_6  and  N_9
REMARK    4  A    between atoms: N_9  and  C_10
REMARK    5  A    between atoms: C_12  and  C_13
REMARK                            x       y       z     vdW  Elec       q    Type
REMARK                         _______ _______ _______ _____ _____    ______ ____
ROOT
ATOM      1  N   UNL     1       5.792   6.159  17.411  0.00  0.00    +0.000 N 
ATOM      2  H   UNL     1       6.408   6.953  17.612  0.00  0.00    +0.000 HD
ENDROOT
BRANCH   1   3
ATOM      3  C   UNL     1       6.247   5.578  16.189  0.00  0.00    +0.000 A 
ATOM      4  C   UNL     1       5.568   4.681  15.405  0.00  0.00    +0.000 A 
ATOM      5  C   UNL     1       6.378   4.523  14.244  0.00  0.00    +0.000 A 
ATOM      6  N   UNL     1       7.491   5.269  14.357  0.00  0.00    +0.000 NA
ATOM      7  O   UNL     1       7.394   5.936  15.561  0.00  0.00    +0.000 OA
BRANCH   5   8
ATOM      8  C   UNL     1       6.093   3.739  13.040  0.00  0.00    +0.000 A 
ATOM      9  C   UNL     1       4.781   3.641  12.548  0.00  0.00    +0.000 A 
ATOM     10  C   UNL     1       4.491   2.851  11.431  0.00  0.00    +0.000 A 
ATOM     11  C   UNL     1       5.511   2.155  10.787  0.00  0.00    +0.000 A 
ATOM     12  C   UNL     1       6.820   2.254  11.253  0.00  0.00    +0.000 A 
ATOM     13  C   UNL     1       7.110   3.041  12.373  0.00  0.00    +0.000 A 
ENDBRANCH   5   8
ENDBRANCH   1   3
BRANCH   1  14
ATOM     14  S   UNL     1       6.043   5.105  18.729  0.00  0.00    +0.000 S 
ATOM     15  O   UNL     1       6.532   5.939  19.805  0.00  0.00    +0.000 OA
ATOM     16  O   UNL     1       6.732   3.911  18.292  0.00  0.00    +0.000 OA
BRANCH  14  20
ATOM     17  C   UNL     1       1.778   3.814  19.785  0.00  0.00    +0.000 A 
ATOM     18  C   UNL     1       2.656   2.936  19.140  0.00  0.00    +0.000 A 
ATOM     19  C   UNL     1       3.947   3.339  18.791  0.00  0.00    +0.000 A 
ATOM     20  C   UNL     1       4.378   4.624  19.121  0.00  0.00    +0.000 A 
ATOM     21  C   UNL     1       3.535   5.498  19.809  0.00  0.00    +0.000 A 
ATOM     22  C   UNL     1       2.246   5.080  20.157  0.00  0.00    +0.000 A 
BRANCH  17  23
ATOM     23  N   UNL     1       0.546   3.352  20.261  0.00  0.00    +0.000 N 
ATOM     24  H   UNL     1       0.257   3.767  21.141  0.00  0.00    +0.000 HD
ATOM     25  H   UNL     1       0.448   2.342  20.259  0.00  0.00    +0.000 HD
ENDBRANCH  17  23
ENDBRANCH  14  20
ENDBRANCH   1  14
TORSDOF 5
ENDMDL
MODEL 6
REMARK VINA RESULT:      -7.4      1.370      1.805
REMARK  Name = 
REMARK  5 active torsions:
REMARK  status: ('A' for Active; 'I' for Inactive)
REMARK    1  A    between atoms: N_1  and  C_2
REMARK    2  A    between atoms: C_5  and  S_6
REMARK    3  A    between atoms: S_6  and  N_9
REMARK    4  A    between atoms: N_9  and  C_10
REMARK    5  A    between atoms: C_12  and  C_13
REMARK                            x       y       z     vdW  Elec       q    Type
REMARK                         _______ _______ _______ _____ _____    ______ ____
ROOT
ATOM      1  N   UNL     1       6.093   6.245  17.484  0.00  0.00    +0.000 N 
ATOM      2  H   UNL     1       6.771   6.997  17.649  0.00  0.00    +0.000 HD
ENDROOT
BRANCH   1   3
ATOM      3  C   UNL     1       6.440   5.638  16.240  0.00  0.00    +0.000 A 
ATOM      4  C   UNL     1       5.677   4.759  15.516  0.00  0.00    +0.000 A 
ATOM      5  C   UNL     1       6.396   4.564  14.302  0.00  0.00    +0.000 A 
ATOM      6  N   UNL     1       7.539   5.271  14.327  0.00  0.00    +0.000 NA
ATOM      7  O   UNL     1       7.550   5.951  15.528  0.00  0.00    +0.000 OA
BRANCH   5   8
ATOM      8  C   UNL     1       5.998   3.780  13.129  0.00  0.00    +0.000 A 
ATOM      9  C   UNL     1       6.944   3.009  12.434  0.00  0.00    +0.000 A 
ATOM     10  C   UNL     1       6.584   2.300  11.283  0.00  0.00    +0.000 A 
ATOM     11  C   UNL     1       5.272   2.347  10.818  0.00  0.00    +0.000 A 
ATOM     12  C   UNL     1       4.319   3.096  11.505  0.00  0.00    +0.000 A 
ATOM     13  C   UNL     1       4.679   3.808  12.654  0.00  0.00    +0.000 A 
ENDBRANCH   5   8
ENDBRANCH   1   3
BRANCH   1  14
ATOM     14  S   UNL     1       6.350   5.174  18.788  0.00  0.00    +0.000 S 
ATOM     15  O   UNL     1       6.840   5.994  19.874  0.00  0.00    +0.000 OA
ATOM     16  O   UNL     1       7.040   3.987  18.334  0.00  0.00    +0.000 OA
BRANCH  14  20
ATOM     17  C   UNL     1       2.088   3.883  19.854  0.00  0.00    +0.000 A 
ATOM     18  C   UNL     1       3.094   2.935  19.643  0.00  0.00    +0.000 A 
ATOM     19  C   UNL     1       4.387   3.327  19.288  0.00  0.00    +0.000 A 
ATOM     20  C   UNL     1       4.687   4.684  19.177  0.00  0.00    +0.000 A 
ATOM     21  C   UNL     1       3.710   5.648  19.433  0.00  0.00    +0.000 A 
ATOM     22  C   UNL     1       2.420   5.241  19.792  0.00  0.00    +0.000 A 
BRANCH  17  23
ATOM     23  N   UNL     1       0.842   3.487  20.352  0.00  0.00    +0.000 N 
ATOM     24  H   UNL     1       0.594   2.525  20.139  0.00  0.00    +0.000 HD
ATOM     25  H   UNL     1       0.085   4.133  20.154  0.00  0.00    +0.000 HD
ENDBRANCH  17  23
ENDBRANCH  14  20
ENDBRANCH   1  14
TORSDOF 5
ENDMDL
MODEL 7
REMARK VINA RESULT:      -7.3      1.033      1.511
REMARK  Name = 
REMARK  5 active torsions:
REMARK  status: ('A' for Active; 'I' for Inactive)
REMARK    1  A    between atoms: N_1  and  C_2
REMARK    2  A    between atoms: C_5  and  S_6
REMARK    3  A    between atoms: S_6  and  N_9
REMARK    4  A    between atoms: N_9  and  C_10
REMARK    5  A    between atoms: C_12  and  C_13
REMARK                            x       y       z     vdW  Elec       q    Type
REMARK                         _______ _______ _______ _____ _____    ______ ____
ROOT
ATOM      1  N   UNL     1       5.544   6.097  17.224  0.00  0.00    +0.000 N 
ATOM      2  H   UNL     1       6.136   6.903  17.452  0.00  0.00    +0.000 HD
ENDROOT
BRANCH   1   3
ATOM      3  C   UNL     1       6.084   5.506  16.043  0.00  0.00    +0.000 A 
ATOM      4  C   UNL     1       5.491   4.549  15.260  0.00  0.00    +0.000 A 
ATOM      5  C   UNL     1       6.359   4.403  14.140  0.00  0.00    +0.000 A 
ATOM      6  N   UNL     1       7.422   5.213  14.275  0.00  0.00    +0.000 NA
ATOM      7  O   UNL     1       7.236   5.910  15.452  0.00  0.00    +0.000 OA
BRANCH   5   8
ATOM      8  C   UNL     1       6.170   3.567  12.951  0.00  0.00    +0.000 A 
ATOM      9  C   UNL     1       7.275   2.997  12.298  0.00  0.00    +0.000 A 
ATOM     10  C   UNL     1       7.107   2.243  11.132  0.00  0.00    +0.000 A 
ATOM     11  C   UNL     1       5.832   2.043  10.609  0.00  0.00    +0.000 A 
ATOM     12  C   UNL     1       4.725   2.590  11.253  0.00  0.00    +0.000 A 
ATOM     13  C   UNL     1       4.891   3.347  12.417  0.00  0.00    +0.000 A 
ENDBRANCH   5   8
ENDBRANCH   1   3
BRANCH   1  14
ATOM     14  S   UNL     1       5.727   5.065  18.571  0.00  0.00    +0.000 S 
ATOM     15  O   UNL     1       5.671   5.927  19.731  0.00  0.00    +0.000 OA
ATOM     16  O   UNL     1       6.809   4.131  18.345  0.00  0.00    +0.000 OA
BRANCH  14  20
ATOM     17  C   UNL     1       1.836   2.653  18.483  0.00  0.00    +0.000 A 
ATOM     18  C   UNL     1       3.000   2.117  19.043  0.00  0.00    +0.000 A 
ATOM     19  C   UNL     1       4.196   2.841  19.044  0.00  0.00    +0.000 A 
ATOM     20  C   UNL     1       4.219   4.129  18.509  0.00  0.00    +0.000 A 
ATOM     21  C   UNL     1       3.056   4.701  17.991  0.00  0.00    +0.000 A 
ATOM     22  C   UNL     1       1.864   3.967  18.001  0.00  0.00    +0.000 A 
BRANCH  17  23
ATOM     23  N   UNL     1       0.616   1.982  18.623  0.00  0.00    +0.000 N 
ATOM     24  H   UNL     1       0.168   2.113  19.524  0.00  0.00    +0.000 HD
ATOM     25  H   UNL     1       0.639   1.007  18.341  0.00  0.00    +0.000 HD
ENDBRANCH  17  23
ENDBRANCH  14  20
ENDBRANCH   1  14
TORSDOF 5
ENDMDL
MODEL 8
REMARK VINA RESULT:      -7.3      3.991      7.341
REMARK  Name = 
REMARK  5 active torsions:
REMARK  status: ('A' for Active; 'I' for Inactive)
REMARK    1  A    between atoms: N_1  and  C_2
REMARK    2  A    between atoms: C_5  and  S_6
REMARK    3  A    between atoms: S_6  and  N_9
REMARK    4  A    between atoms: N_9  and  C_10
REMARK    5  A    between atoms: C_12  and  C_13
REMARK                            x       y       z     vdW  Elec       q    Type
REMARK                         _______ _______ _______ _____ _____    ______ ____
ROOT
ATOM      1  N   UNL     1       4.138   3.642  19.401  0.00  0.00    +0.000 N 
ATOM      2  H   UNL     1       5.087   4.006  19.265  0.00  0.00    +0.000 HD
ENDROOT
BRANCH   1   3
ATOM      3  C   UNL     1       3.318   4.750  19.774  0.00  0.00    +0.000 A 
ATOM      4  C   UNL     1       3.361   6.015  19.249  0.00  0.00    +0.000 A 
ATOM      5  C   UNL     1       2.262   6.697  19.848  0.00  0.00    +0.000 A 
ATOM      6  N   UNL     1       1.626   5.879  20.703  0.00  0.00    +0.000 NA
ATOM      7  O   UNL     1       2.277   4.664  20.639  0.00  0.00    +0.000 OA
BRANCH   5   8
ATOM      8  C   UNL     1       1.790   8.059  19.585  0.00  0.00    +0.000 A 
ATOM      9  C   UNL     1       2.025   8.667  18.340  0.00  0.00    +0.000 A 
ATOM     10  C   UNL     1       1.625   9.985  18.100  0.00  0.00    +0.000 A 
ATOM     11  C   UNL     1       0.977  10.709  19.097  0.00  0.00    +0.000 A 
ATOM     12  C   UNL     1       0.724  10.116  20.332  0.00  0.00    +0.000 A 
ATOM     13  C   UNL     1       1.127   8.799  20.575  0.00  0.00    +0.000 A 
ENDBRANCH   5   8
ENDBRANCH   1   3
BRANCH   1  14
ATOM     14  S   UNL     1       3.708   3.045  17.861  0.00  0.00    +0.000 S 
ATOM     15  O   UNL     1       2.416   3.627  17.566  0.00  0.00    +0.000 OA
ATOM     16  O   UNL     1       3.957   1.622  17.787  0.00  0.00    +0.000 OA
BRANCH  14  20
ATOM     17  C   UNL     1       6.868   5.021  15.202  0.00  0.00    +0.000 A 
ATOM     18  C   UNL     1       7.087   4.852  16.573  0.00  0.00    +0.000 A 
ATOM     19  C   UNL     1       6.111   4.277  17.391  0.00  0.00    +0.000 A 
ATOM     20  C   UNL     1       4.916   3.833  16.825  0.00  0.00    +0.000 A 
ATOM     21  C   UNL     1       4.699   3.946  15.450  0.00  0.00    +0.000 A 
ATOM     22  C   UNL     1       5.687   4.521  14.643  0.00  0.00    +0.000 A 
BRANCH  17  23
ATOM     23  N   UNL     1       7.907   5.460  14.374  0.00  0.00    +0.000 N 
ATOM     24  H   UNL     1       7.736   6.357  13.929  0.00  0.00    +0.000 HD
ATOM     25  H   UNL     1       8.245   4.762  13.719  0.00  0.00    +0.000 HD
ENDBRANCH  17  23
ENDBRANCH  14  20
ENDBRANCH   1  14
TORSDOF 5
ENDMDL
MODEL 9
REMARK VINA RESULT:      -7.2      4.037      7.335
REMARK  Name = 
REMARK  5 active torsions:
REMARK  status: ('A' for Active; 'I' for Inactive)
REMARK    1  A    between atoms: N_1  and  C_2
REMARK    2  A    between atoms: C_5  and  S_6
REMARK    3  A    between atoms: S_6  and  N_9
REMARK    4  A    between atoms: N_9  and  C_10
REMARK    5  A    between atoms: C_12  and  C_13
REMARK                            x       y       z     vdW  Elec       q    Type
REMARK                         _______ _______ _______ _____ _____    ______ ____
ROOT
ATOM      1  N   UNL     1       4.109   3.719  19.523  0.00  0.00    +0.000 N 
ATOM      2  H   UNL     1       5.061   4.078  19.388  0.00  0.00    +0.000 HD
ENDROOT
BRANCH   1   3
ATOM      3  C   UNL     1       3.291   4.834  19.877  0.00  0.00    +0.000 A 
ATOM      4  C   UNL     1       3.329   6.087  19.322  0.00  0.00    +0.000 A 
ATOM      5  C   UNL     1       2.234   6.782  19.912  0.00  0.00    +0.000 A 
ATOM      6  N   UNL     1       1.605   5.983  20.792  0.00  0.00    +0.000 NA
ATOM      7  O   UNL     1       2.257   4.767  20.751  0.00  0.00    +0.000 OA
BRANCH   5   8
ATOM      8  C   UNL     1       1.758   8.137  19.621  0.00  0.00    +0.000 A 
ATOM      9  C   UNL     1       1.043   8.864  20.587  0.00  0.00    +0.000 A 
ATOM     10  C   UNL     1       0.540  10.136  20.299  0.00  0.00    +0.000 A 
ATOM     11  C   UNL     1       0.751  10.701  19.043  0.00  0.00    +0.000 A 
ATOM     12  C   UNL     1       1.470   9.998  18.079  0.00  0.00    +0.000 A 
ATOM     13  C   UNL     1       1.971   8.724  18.365  0.00  0.00    +0.000 A 
ENDBRANCH   5   8
ENDBRANCH   1   3
BRANCH   1  14
ATOM     14  S   UNL     1       3.686   3.103  17.989  0.00  0.00    +0.000 S 
ATOM     15  O   UNL     1       2.391   3.671  17.686  0.00  0.00    +0.000 OA
ATOM     16  O   UNL     1       3.948   1.682  17.930  0.00  0.00    +0.000 OA
BRANCH  14  20
ATOM     17  C   UNL     1       6.833   5.078  15.312  0.00  0.00    +0.000 A 
ATOM     18  C   UNL     1       7.070   4.885  16.677  0.00  0.00    +0.000 A 
ATOM     19  C   UNL     1       6.098   4.310  17.500  0.00  0.00    +0.000 A 
ATOM     20  C   UNL     1       4.889   3.891  16.946  0.00  0.00    +0.000 A 
ATOM     21  C   UNL     1       4.653   4.028  15.577  0.00  0.00    +0.000 A 
ATOM     22  C   UNL     1       5.637   4.601  14.763  0.00  0.00    +0.000 A 
BRANCH  17  23
ATOM     23  N   UNL     1       7.865   5.515  14.475  0.00  0.00    +0.000 N 
ATOM     24  H   UNL     1       7.816   6.500  14.231  0.00  0.00    +0.000 HD
ATOM     25  H   UNL     1       8.027   4.925  13.665  0.00  0.00    +0.000 HD
ENDBRANCH  17  23
ENDBRANCH  14  20
ENDBRANCH   1  14
TORSDOF 5
ENDMDL
