MODEL 1
REMARK VINA RESULT:      -8.2      0.000      0.000
REMARK  Name = 
REMARK  4 active torsions:
REMARK  status: ('A' for Active; 'I' for Inactive)
REMARK    1  A    between atoms: C_2  and  C_3
REMARK    2  A    between atoms: N_7  and  C_8
REMARK    3  A    between atoms: C_11  and  C_12
REMARK    4  A    between atoms: C_21  and  C_22
REMARK                            x       y       z     vdW  Elec       q    Type
REMARK                         _______ _______ _______ _____ _____    ______ ____
ROOT
ATOM      1  C   UNL     1       4.884   4.251  18.267  0.00  0.00    +0.000 A 
ATOM      2  N   UNL     1       4.546   3.329  17.316  0.00  0.00    +0.000 NA
ATOM      3  C   UNL     1       5.065   3.391  16.064  0.00  0.00    +0.000 A 
ATOM      4  C   UNL     1       5.952   4.352  15.576  0.00  0.00    +0.000 A 
ATOM      5  C   UNL     1       6.287   5.296  16.557  0.00  0.00    +0.000 A 
ATOM      6  N   UNL     1       7.137   6.374  16.546  0.00  0.00    +0.000 N 
ATOM      7  C   UNL     1       7.074   7.010  17.751  0.00  0.00    +0.000 A 
ATOM      8  N   UNL     1       6.257   6.383  18.567  0.00  0.00    +0.000 NA
ATOM      9  C   UNL     1       5.777   5.286  17.859  0.00  0.00    +0.000 A 
ATOM     10  H   UNL     1       7.725   6.677  15.783  0.00  0.00    +0.000 HD
ENDROOT
BRANCH   4  11
ATOM     11  C   UNL     1       6.466   4.380  14.196  0.00  0.00    +0.000 A 
ATOM     12  C   UNL     1       6.067   3.422  13.242  0.00  0.00    +0.000 A 
ATOM     13  C   UNL     1       6.545   3.453  11.924  0.00  0.00    +0.000 A 
ATOM     14  C   UNL     1       7.451   4.433  11.535  0.00  0.00    +0.000 A 
ATOM     15  C   UNL     1       7.855   5.381  12.459  0.00  0.00    +0.000 A 
ATOM     16  F   UNL     1       8.731   6.328  12.100  0.00  0.00    +0.000 F 
ATOM     17  C   UNL     1       7.359   5.374  13.760  0.00  0.00    +0.000 A 
ENDBRANCH   4  11
BRANCH   1  22
ATOM     18  C   UNL     1       1.950   4.415  20.162  0.00  0.00    +0.000 C 
ATOM     19  C   UNL     1       2.108   3.210  21.101  0.00  0.00    +0.000 C 
ATOM     20  C   UNL     1       3.160   2.229  20.581  0.00  0.00    +0.000 C 
ATOM     21  C   UNL     1       4.506   2.913  20.327  0.00  0.00    +0.000 C 
ATOM     22  N   UNL     1       4.326   4.122  19.530  0.00  0.00    +0.000 N 
ATOM     23  C   UNL     1       3.308   5.085  19.952  0.00  0.00    +0.000 C 
BRANCH  18  25
ATOM     24  N   UNL     1       0.889   3.667  17.866  0.00  0.00    +0.000 NA
ATOM     25  C   UNL     1       1.337   4.019  18.878  0.00  0.00    +0.000 C 
ENDBRANCH  18  25
ENDBRANCH   1  22
BRANCH   7  26
ATOM     26  C   UNL     1       7.832   8.179  18.035  0.00  0.00    +0.000 A 
ATOM     27  C   UNL     1       7.787   9.415  17.417  0.00  0.00    +0.000 A 
ATOM     28  C   UNL     1       8.726  10.243  18.081  0.00  0.00    +0.000 A 
ATOM     29  C   UNL     1       9.292   9.472  19.059  0.00  0.00    +0.000 A 
ATOM     30  O   UNL     1       8.762   8.223  19.046  0.00  0.00    +0.000 OA
ENDBRANCH   7  26
TORSDOF 4
ENDMDL
MODEL 2
REMARK VINA RESULT:      -8.0      0.935      1.290
REMARK  Name = 
REMARK  4 active torsions:
REMARK  status: ('A' for Active; 'I' for Inactive)
REMARK    1  A    between atoms: C_2  and  C_3
REMARK    2  A    between atoms: N_7  and  C_8
REMARK    3  A    between atoms: C_11  and  C_12
REMARK    4  A    between atoms: C_21  and  C_22
REMARK                            x       y       z     vdW  Elec       q    Type
REMARK                         _______ _______ _______ _____ _____    ______ ____
ROOT
ATOM      1  C   UNL     1       4.764   4.174  18.325  0.00  0.00    +0.000 A 
ATOM      2  N   UNL     1       4.421   3.236  17.392  0.00  0.00    +0.000 NA
ATOM      3  C   UNL     1       4.943   3.268  16.140  0.00  0.00    +0.000 A 
ATOM      4  C   UNL     1       5.838   4.213  15.635  0.00  0.00    +0.000 A 
ATOM      5  C   UNL     1       6.177   5.174  16.597  0.00  0.00    +0.000 A 
ATOM      6  N   UNL     1       7.035   6.246  16.565  0.00  0.00    +0.000 N 
ATOM      7  C   UNL     1       6.974   6.907  17.757  0.00  0.00    +0.000 A 
ATOM      8  N   UNL     1       6.152   6.302  18.584  0.00  0.00    +0.000 NA
ATOM      9  C   UNL     1       5.665   5.194  17.898  0.00  0.00    +0.000 A 
ATOM     10  H   UNL     1       7.626   6.529  15.798  0.00  0.00    +0.000 HD
ENDROOT
BRANCH   4  11
ATOM     11  C   UNL     1       6.353   4.209  14.255  0.00  0.00    +0.000 A 
ATOM     12  C   UNL     1       7.332   5.131  13.832  0.00  0.00    +0.000 A 
ATOM     13  C   UNL     1       7.833   5.122  12.522  0.00  0.00    +0.000 A 
ATOM     14  C   UNL     1       7.351   4.202  11.599  0.00  0.00    +0.000 A 
ATOM     15  C   UNL     1       6.389   3.289  11.996  0.00  0.00    +0.000 A 
ATOM     16  F   UNL     1       5.912   2.400  11.116  0.00  0.00    +0.000 F 
ATOM     17  C   UNL     1       5.911   3.273  13.304  0.00  0.00    +0.000 A 
ENDBRANCH   4  11
BRANCH   1  22
ATOM     18  C   UNL     1       1.812   4.286  20.195  0.00  0.00    +0.000 C 
ATOM     19  C   UNL     1       2.017   3.132  21.187  0.00  0.00    +0.000 C 
ATOM     20  C   UNL     1       3.116   2.178  20.716  0.00  0.00    +0.000 C 
ATOM     21  C   UNL     1       4.432   2.911  20.440  0.00  0.00    +0.000 C 
ATOM     22  N   UNL     1       4.203   4.075  19.590  0.00  0.00    +0.000 N 
ATOM     23  C   UNL     1       3.139   5.008  19.964  0.00  0.00    +0.000 C 
BRANCH  18  25
ATOM     24  N   UNL     1       0.807   3.397  17.925  0.00  0.00    +0.000 NA
ATOM     25  C   UNL     1       1.227   3.808  18.927  0.00  0.00    +0.000 C 
ENDBRANCH  18  25
ENDBRANCH   1  22
BRANCH   7  26
ATOM     26  C   UNL     1       7.740   8.076  18.019  0.00  0.00    +0.000 A 
ATOM     27  C   UNL     1       7.630   9.331  17.450  0.00  0.00    +0.000 A 
ATOM     28  C   UNL     1       8.611  10.149  18.063  0.00  0.00    +0.000 A 
ATOM     29  C   UNL     1       9.265   9.354  18.964  0.00  0.00    +0.000 A 
ATOM     30  O   UNL     1       8.750   8.099  18.950  0.00  0.00    +0.000 OA
ENDBRANCH   7  26
TORSDOF 4
ENDMDL
MODEL 3
REMARK VINA RESULT:      -7.9      4.459      8.236
REMARK  Name = 
REMARK  4 active torsions:
REMARK  status: ('A' for Active; 'I' for Inactive)
REMARK    1  A    between atoms: C_2  and  C_3
REMARK    2  A    between atoms: N_7  and  C_8
REMARK    3  A    between atoms: C_11  and  C_12
REMARK    4  A    between atoms: C_21  and  C_22
REMARK                            x       y       z     vdW  Elec       q    Type
REMARK                         _______ _______ _______ _____ _____    ______ ____
ROOT
ATOM      1  C   UNL     1       4.136   7.059  17.304  0.00  0.00    +0.000 A 
ATOM      2  N   UNL     1       3.793   8.356  17.040  0.00  0.00    +0.000 NA
ATOM      3  C   UNL     1       2.835   8.989  17.762  0.00  0.00    +0.000 A 
ATOM      4  C   UNL     1       2.085   8.447  18.807  0.00  0.00    +0.000 A 
ATOM      5  C   UNL     1       2.439   7.115  19.065  0.00  0.00    +0.000 A 
ATOM      6  N   UNL     1       2.007   6.213  20.007  0.00  0.00    +0.000 N 
ATOM      7  C   UNL     1       2.636   5.019  19.808  0.00  0.00    +0.000 A 
ATOM      8  N   UNL     1       3.488   5.101  18.811  0.00  0.00    +0.000 NA
ATOM      9  C   UNL     1       3.412   6.411  18.349  0.00  0.00    +0.000 A 
ATOM     10  H   UNL     1       1.332   6.375  20.738  0.00  0.00    +0.000 HD
ENDROOT
BRANCH   4  11
ATOM     11  C   UNL     1       1.038   9.179  19.541  0.00  0.00    +0.000 A 
ATOM     12  C   UNL     1       0.149  10.052  18.882  0.00  0.00    +0.000 A 
ATOM     13  C   UNL     1      -0.855  10.741  19.577  0.00  0.00    +0.000 A 
ATOM     14  C   UNL     1      -0.980  10.589  20.953  0.00  0.00    +0.000 A 
ATOM     15  C   UNL     1      -0.113   9.737  21.618  0.00  0.00    +0.000 A 
ATOM     16  F   UNL     1      -0.218   9.585  22.944  0.00  0.00    +0.000 F 
ATOM     17  C   UNL     1       0.865   9.026  20.928  0.00  0.00    +0.000 A 
ENDBRANCH   4  11
BRANCH   1  22
ATOM     18  C   UNL     1       7.394   5.789  17.274  0.00  0.00    +0.000 C 
ATOM     19  C   UNL     1       7.242   4.539  16.396  0.00  0.00    +0.000 C 
ATOM     20  C   UNL     1       5.777   4.117  16.271  0.00  0.00    +0.000 C 
ATOM     21  C   UNL     1       4.892   5.260  15.765  0.00  0.00    +0.000 C 
ATOM     22  N   UNL     1       5.132   6.476  16.536  0.00  0.00    +0.000 N 
ATOM     23  C   UNL     1       6.516   6.914  16.725  0.00  0.00    +0.000 C 
BRANCH  18  25
ATOM     24  N   UNL     1       6.791   5.304  19.795  0.00  0.00    +0.000 NA
ATOM     25  C   UNL     1       7.078   5.496  18.687  0.00  0.00    +0.000 C 
ENDBRANCH  18  25
ENDBRANCH   1  22
BRANCH   7  26
ATOM     26  C   UNL     1       2.379   3.880  20.618  0.00  0.00    +0.000 A 
ATOM     27  C   UNL     1       1.204   3.504  21.242  0.00  0.00    +0.000 A 
ATOM     28  C   UNL     1       1.465   2.284  21.913  0.00  0.00    +0.000 A 
ATOM     29  C   UNL     1       2.777   1.985  21.670  0.00  0.00    +0.000 A 
ATOM     30  O   UNL     1       3.344   2.939  20.888  0.00  0.00    +0.000 OA
ENDBRANCH   7  26
TORSDOF 4
ENDMDL
MODEL 4
REMARK VINA RESULT:      -7.8      4.361      8.172
REMARK  Name = 
REMARK  4 active torsions:
REMARK  status: ('A' for Active; 'I' for Inactive)
REMARK    1  A    between atoms: C_2  and  C_3
REMARK    2  A    between atoms: N_7  and  C_8
REMARK    3  A    between atoms: C_11  and  C_12
REMARK    4  A    between atoms: C_21  and  C_22
REMARK                            x       y       z     vdW  Elec       q    Type
REMARK                         _______ _______ _______ _____ _____    ______ ____
ROOT
ATOM      1  C   UNL     1       4.150   7.059  17.287  0.00  0.00    +0.000 A 
ATOM      2  N   UNL     1       3.812   8.355  17.015  0.00  0.00    +0.000 NA
ATOM      3  C   UNL     1       2.848   8.992  17.726  0.00  0.00    +0.000 A 
ATOM      4  C   UNL     1       2.086   8.455  18.765  0.00  0.00    +0.000 A 
ATOM      5  C   UNL     1       2.436   7.124  19.031  0.00  0.00    +0.000 A 
ATOM      6  N   UNL     1       1.993   6.225  19.971  0.00  0.00    +0.000 N 
ATOM      7  C   UNL     1       2.622   5.030  19.782  0.00  0.00    +0.000 A 
ATOM      8  N   UNL     1       3.484   5.107  18.793  0.00  0.00    +0.000 NA
ATOM      9  C   UNL     1       3.414   6.416  18.326  0.00  0.00    +0.000 A 
ATOM     10  H   UNL     1       1.311   6.391  20.695  0.00  0.00    +0.000 HD
ENDROOT
BRANCH   4  11
ATOM     11  C   UNL     1       1.034   9.191  19.487  0.00  0.00    +0.000 A 
ATOM     12  C   UNL     1       0.930   9.139  20.892  0.00  0.00    +0.000 A 
ATOM     13  C   UNL     1      -0.063   9.849  21.582  0.00  0.00    +0.000 A 
ATOM     14  C   UNL     1      -0.989  10.612  20.880  0.00  0.00    +0.000 A 
ATOM     15  C   UNL     1      -0.903  10.673  19.500  0.00  0.00    +0.000 A 
ATOM     16  F   UNL     1      -1.791  11.400  18.810  0.00  0.00    +0.000 F 
ATOM     17  C   UNL     1       0.101   9.997  18.812  0.00  0.00    +0.000 A 
ENDBRANCH   4  11
BRANCH   1  22
ATOM     18  C   UNL     1       7.401   5.773  17.296  0.00  0.00    +0.000 C 
ATOM     19  C   UNL     1       7.254   4.524  16.414  0.00  0.00    +0.000 C 
ATOM     20  C   UNL     1       5.789   4.110  16.271  0.00  0.00    +0.000 C 
ATOM     21  C   UNL     1       4.916   5.258  15.755  0.00  0.00    +0.000 C 
ATOM     22  N   UNL     1       5.153   6.472  16.531  0.00  0.00    +0.000 N 
ATOM     23  C   UNL     1       6.537   6.903  16.737  0.00  0.00    +0.000 C 
BRANCH  18  25
ATOM     24  N   UNL     1       6.756   5.274  19.804  0.00  0.00    +0.000 NA
ATOM     25  C   UNL     1       7.066   5.480  18.704  0.00  0.00    +0.000 C 
ENDBRANCH  18  25
ENDBRANCH   1  22
BRANCH   7  26
ATOM     26  C   UNL     1       2.355   3.893  20.593  0.00  0.00    +0.000 A 
ATOM     27  C   UNL     1       1.168   3.510  21.189  0.00  0.00    +0.000 A 
ATOM     28  C   UNL     1       1.423   2.297  21.875  0.00  0.00    +0.000 A 
ATOM     29  C   UNL     1       2.744   2.009  21.667  0.00  0.00    +0.000 A 
ATOM     30  O   UNL     1       3.321   2.963  20.893  0.00  0.00    +0.000 OA
ENDBRANCH   7  26
TORSDOF 4
ENDMDL
MODEL 5
REMARK VINA RESULT:      -7.5      8.223     10.417
REMARK  Name = 
REMARK  4 active torsions:
REMARK  status: ('A' for Active; 'I' for Inactive)
REMARK    1  A    between atoms: C_2  and  C_3
REMARK    2  A    between atoms: N_7  and  C_8
REMARK    3  A    between atoms: C_11  and  C_12
REMARK    4  A    between atoms: C_21  and  C_22
REMARK                            x       y       z     vdW  Elec       q    Type
REMARK                         _______ _______ _______ _____ _____    ______ ____
ROOT
ATOM      1  C   UNL     1      -0.549  11.539  21.626  0.00  0.00    +0.000 A 
ATOM      2  N   UNL     1       0.479  10.897  22.258  0.00  0.00    +0.000 NA
ATOM      3  C   UNL     1       1.140   9.874  21.660  0.00  0.00    +0.000 A 
ATOM      4  C   UNL     1       0.880   9.338  20.398  0.00  0.00    +0.000 A 
ATOM      5  C   UNL     1      -0.180   9.999  19.762  0.00  0.00    +0.000 A 
ATOM      6  N   UNL     1      -0.748   9.846  18.520  0.00  0.00    +0.000 N 
ATOM      7  C   UNL     1      -1.795  10.711  18.395  0.00  0.00    +0.000 A 
ATOM      8  N   UNL     1      -1.920  11.451  19.473  0.00  0.00    +0.000 NA
ATOM      9  C   UNL     1      -0.901  11.052  20.332  0.00  0.00    +0.000 A 
ATOM     10  H   UNL     1      -0.462   9.204  17.797  0.00  0.00    +0.000 HD
ENDROOT
BRANCH   4  11
ATOM     11  C   UNL     1       1.620   8.208  19.810  0.00  0.00    +0.000 A 
ATOM     12  C   UNL     1       2.233   8.308  18.545  0.00  0.00    +0.000 A 
ATOM     13  C   UNL     1       2.948   7.238  17.988  0.00  0.00    +0.000 A 
ATOM     14  C   UNL     1       3.049   6.035  18.676  0.00  0.00    +0.000 A 
ATOM     15  C   UNL     1       2.452   5.918  19.920  0.00  0.00    +0.000 A 
ATOM     16  F   UNL     1       2.537   4.763  20.592  0.00  0.00    +0.000 F 
ATOM     17  C   UNL     1       1.768   6.988  20.492  0.00  0.00    +0.000 A 
ENDBRANCH   4  11
BRANCH   1  22
ATOM     18  C   UNL     1      -1.047  14.998  21.748  0.00  0.00    +0.000 C 
ATOM     19  C   UNL     1      -2.544  15.094  22.074  0.00  0.00    +0.000 C 
ATOM     20  C   UNL     1      -3.266  13.777  21.787  0.00  0.00    +0.000 C 
ATOM     21  C   UNL     1      -2.616  12.596  22.514  0.00  0.00    +0.000 C 
ATOM     22  N   UNL     1      -1.174  12.585  22.288  0.00  0.00    +0.000 N 
ATOM     23  C   UNL     1      -0.429  13.825  22.510  0.00  0.00    +0.000 C 
BRANCH  18  25
ATOM     24  N   UNL     1      -0.593  14.765  19.161  0.00  0.00    +0.000 NA
ATOM     25  C   UNL     1      -0.820  14.879  20.294  0.00  0.00    +0.000 C 
ENDBRANCH  18  25
ENDBRANCH   1  22
BRANCH   7  26
ATOM     26  C   UNL     1      -2.595  10.772  17.221  0.00  0.00    +0.000 A 
ATOM     27  C   UNL     1      -2.412  10.130  16.011  0.00  0.00    +0.000 A 
ATOM     28  C   UNL     1      -3.492  10.508  15.175  0.00  0.00    +0.000 A 
ATOM     29  C   UNL     1      -4.268  11.359  15.914  0.00  0.00    +0.000 A 
ATOM     30  O   UNL     1      -3.740  11.528  17.153  0.00  0.00    +0.000 OA
ENDBRANCH   7  26
TORSDOF 4
ENDMDL
MODEL 6
REMARK VINA RESULT:      -7.4      7.912     10.176
REMARK  Name = 
REMARK  4 active torsions:
REMARK  status: ('A' for Active; 'I' for Inactive)
REMARK    1  A    between atoms: C_2  and  C_3
REMARK    2  A    between atoms: N_7  and  C_8
REMARK    3  A    between atoms: C_11  and  C_12
REMARK    4  A    between atoms: C_21  and  C_22
REMARK                            x       y       z     vdW  Elec       q    Type
REMARK                         _______ _______ _______ _____ _____    ______ ____
ROOT
ATOM      1  C   UNL     1      -0.411  11.509  21.455  0.00  0.00    +0.000 A 
ATOM      2  N   UNL     1       0.573  10.862  22.150  0.00  0.00    +0.000 NA
ATOM      3  C   UNL     1       1.198   9.775  21.631  0.00  0.00    +0.000 A 
ATOM      4  C   UNL     1       0.941   9.175  20.397  0.00  0.00    +0.000 A 
ATOM      5  C   UNL     1      -0.073   9.842  19.697  0.00  0.00    +0.000 A 
ATOM      6  N   UNL     1      -0.620   9.640  18.453  0.00  0.00    +0.000 N 
ATOM      7  C   UNL     1      -1.624  10.542  18.251  0.00  0.00    +0.000 A 
ATOM      8  N   UNL     1      -1.738  11.351  19.279  0.00  0.00    +0.000 NA
ATOM      9  C   UNL     1      -0.757  10.960  20.185  0.00  0.00    +0.000 A 
ATOM     10  H   UNL     1      -0.349   8.943  17.776  0.00  0.00    +0.000 HD
ENDROOT
BRANCH   4  11
ATOM     11  C   UNL     1       1.641   7.979  19.896  0.00  0.00    +0.000 A 
ATOM     12  C   UNL     1       1.620   6.762  20.607  0.00  0.00    +0.000 A 
ATOM     13  C   UNL     1       2.275   5.619  20.126  0.00  0.00    +0.000 A 
ATOM     14  C   UNL     1       2.985   5.673  18.932  0.00  0.00    +0.000 A 
ATOM     15  C   UNL     1       3.018   6.862  18.222  0.00  0.00    +0.000 A 
ATOM     16  F   UNL     1       3.702   6.930  17.073  0.00  0.00    +0.000 F 
ATOM     17  C   UNL     1       2.342   7.991  18.678  0.00  0.00    +0.000 A 
ENDBRANCH   4  11
BRANCH   1  22
ATOM     18  C   UNL     1      -0.764  14.986  21.347  0.00  0.00    +0.000 C 
ATOM     19  C   UNL     1      -2.261  15.165  21.640  0.00  0.00    +0.000 C 
ATOM     20  C   UNL     1      -3.033  13.862  21.424  0.00  0.00    +0.000 C 
ATOM     21  C   UNL     1      -2.444  12.705  22.237  0.00  0.00    +0.000 C 
ATOM     22  N   UNL     1      -1.001  12.620  22.038  0.00  0.00    +0.000 N 
ATOM     23  C   UNL     1      -0.207  13.841  22.193  0.00  0.00    +0.000 C 
BRANCH  18  25
ATOM     24  N   UNL     1      -0.343  14.539  18.782  0.00  0.00    +0.000 NA
ATOM     25  C   UNL     1      -0.520  14.764  19.908  0.00  0.00    +0.000 C 
ENDBRANCH  18  25
ENDBRANCH   1  22
BRANCH   7  26
ATOM     26  C   UNL     1      -2.394  10.567  17.056  0.00  0.00    +0.000 A 
ATOM     27  C   UNL     1      -2.314   9.738  15.952  0.00  0.00    +0.000 A 
ATOM     28  C   UNL     1      -3.309  10.167  15.040  0.00  0.00    +0.000 A 
ATOM     29  C   UNL     1      -3.935  11.231  15.629  0.00  0.00    +0.000 A 
ATOM     30  O   UNL     1      -3.395  11.485  16.848  0.00  0.00    +0.000 OA
ENDBRANCH   7  26
TORSDOF 4
ENDMDL
MODEL 7
REMARK VINA RESULT:      -7.4     11.329     13.331
REMARK  Name = 
REMARK  4 active torsions:
REMARK  status: ('A' for Active; 'I' for Inactive)
REMARK    1  A    between atoms: C_2  and  C_3
REMARK    2  A    between atoms: N_7  and  C_8
REMARK    3  A    between atoms: C_11  and  C_12
REMARK    4  A    between atoms: C_21  and  C_22
REMARK                            x       y       z     vdW  Elec       q    Type
REMARK                         _______ _______ _______ _____ _____    ______ ____
ROOT
ATOM      1  C   UNL     1      -6.631  12.586  20.720  0.00  0.00    +0.000 A 
ATOM      2  N   UNL     1      -7.079  11.698  19.783  0.00  0.00    +0.000 NA
ATOM      3  C   UNL     1      -6.253  11.220  18.818  0.00  0.00    +0.000 A 
ATOM      4  C   UNL     1      -4.910  11.552  18.631  0.00  0.00    +0.000 A 
ATOM      5  C   UNL     1      -4.463  12.468  19.593  0.00  0.00    +0.000 A 
ATOM      6  N   UNL     1      -3.233  13.035  19.824  0.00  0.00    +0.000 N 
ATOM      7  C   UNL     1      -3.329  13.910  20.866  0.00  0.00    +0.000 A 
ATOM      8  N   UNL     1      -4.547  13.918  21.357  0.00  0.00    +0.000 NA
ATOM      9  C   UNL     1      -5.270  12.999  20.604  0.00  0.00    +0.000 A 
ATOM     10  H   UNL     1      -2.378  12.857  19.319  0.00  0.00    +0.000 HD
ENDROOT
BRANCH   4  11
ATOM     11  C   UNL     1      -4.068  11.016  17.548  0.00  0.00    +0.000 A 
ATOM     12  C   UNL     1      -4.455  11.112  16.197  0.00  0.00    +0.000 A 
ATOM     13  C   UNL     1      -3.650  10.613  15.163  0.00  0.00    +0.000 A 
ATOM     14  C   UNL     1      -2.446   9.986  15.460  0.00  0.00    +0.000 A 
ATOM     15  C   UNL     1      -2.049   9.881  16.782  0.00  0.00    +0.000 A 
ATOM     16  F   UNL     1      -0.894   9.275  17.083  0.00  0.00    +0.000 F 
ATOM     17  C   UNL     1      -2.830  10.403  17.810  0.00  0.00    +0.000 A 
ENDBRANCH   4  11
BRANCH   1  22
ATOM     18  C   UNL     1      -7.437  12.596  24.122  0.00  0.00    +0.000 C 
ATOM     19  C   UNL     1      -7.891  14.046  24.339  0.00  0.00    +0.000 C 
ATOM     20  C   UNL     1      -7.420  14.956  23.205  0.00  0.00    +0.000 C 
ATOM     21  C   UNL     1      -7.860  14.438  21.832  0.00  0.00    +0.000 C 
ATOM     22  N   UNL     1      -7.524  13.025  21.686  0.00  0.00    +0.000 N 
ATOM     23  C   UNL     1      -7.915  12.105  22.756  0.00  0.00    +0.000 C 
BRANCH  18  25
ATOM     24  N   UNL     1      -4.816  12.404  24.345  0.00  0.00    +0.000 NA
ATOM     25  C   UNL     1      -5.973  12.464  24.264  0.00  0.00    +0.000 C 
ENDBRANCH  18  25
ENDBRANCH   1  22
BRANCH   7  26
ATOM     26  C   UNL     1      -2.218  14.668  21.327  0.00  0.00    +0.000 A 
ATOM     27  C   UNL     1      -1.489  14.521  22.493  0.00  0.00    +0.000 A 
ATOM     28  C   UNL     1      -0.477  15.512  22.475  0.00  0.00    +0.000 A 
ATOM     29  C   UNL     1      -0.645  16.210  21.310  0.00  0.00    +0.000 A 
ATOM     30  O   UNL     1      -1.692  15.712  20.605  0.00  0.00    +0.000 OA
ENDBRANCH   7  26
TORSDOF 4
ENDMDL
MODEL 8
REMARK VINA RESULT:      -7.4      0.876      1.010
REMARK  Name = 
REMARK  4 active torsions:
REMARK  status: ('A' for Active; 'I' for Inactive)
REMARK    1  A    between atoms: C_2  and  C_3
REMARK    2  A    between atoms: N_7  and  C_8
REMARK    3  A    between atoms: C_11  and  C_12
REMARK    4  A    between atoms: C_21  and  C_22
REMARK                            x       y       z     vdW  Elec       q    Type
REMARK                         _______ _______ _______ _____ _____    ______ ____
ROOT
ATOM      1  C   UNL     1       4.126   4.499  18.307  0.00  0.00    +0.000 A 
ATOM      2  N   UNL     1       3.727   3.563  17.394  0.00  0.00    +0.000 NA
ATOM      3  C   UNL     1       4.306   3.486  16.170  0.00  0.00    +0.000 A 
ATOM      4  C   UNL     1       5.320   4.307  15.674  0.00  0.00    +0.000 A 
ATOM      5  C   UNL     1       5.717   5.268  16.615  0.00  0.00    +0.000 A 
ATOM      6  N   UNL     1       6.687   6.240  16.586  0.00  0.00    +0.000 N 
ATOM      7  C   UNL     1       6.643   6.954  17.748  0.00  0.00    +0.000 A 
ATOM      8  N   UNL     1       5.723   6.477  18.554  0.00  0.00    +0.000 NA
ATOM      9  C   UNL     1       5.151   5.399  17.887  0.00  0.00    +0.000 A 
ATOM     10  H   UNL     1       7.339   6.425  15.839  0.00  0.00    +0.000 HD
ENDROOT
BRANCH   4  11
ATOM     11  C   UNL     1       5.896   4.189  14.323  0.00  0.00    +0.000 A 
ATOM     12  C   UNL     1       5.344   3.319  13.361  0.00  0.00    +0.000 A 
ATOM     13  C   UNL     1       5.883   3.213  12.071  0.00  0.00    +0.000 A 
ATOM     14  C   UNL     1       7.000   3.962  11.719  0.00  0.00    +0.000 A 
ATOM     15  C   UNL     1       7.556   4.821  12.652  0.00  0.00    +0.000 A 
ATOM     16  F   UNL     1       8.635   5.545  12.328  0.00  0.00    +0.000 F 
ATOM     17  C   UNL     1       7.006   4.954  13.924  0.00  0.00    +0.000 A 
ENDBRANCH   4  11
BRANCH   1  22
ATOM     18  C   UNL     1       1.127   4.011  20.036  0.00  0.00    +0.000 C 
ATOM     19  C   UNL     1       1.601   3.275  21.298  0.00  0.00    +0.000 C 
ATOM     20  C   UNL     1       2.999   2.685  21.109  0.00  0.00    +0.000 C 
ATOM     21  C   UNL     1       4.015   3.745  20.672  0.00  0.00    +0.000 C 
ATOM     22  N   UNL     1       3.500   4.515  19.544  0.00  0.00    +0.000 N 
ATOM     23  C   UNL     1       2.152   5.076  19.646  0.00  0.00    +0.000 C 
BRANCH  18  25
ATOM     24  N   UNL     1       0.724   2.309  18.063  0.00  0.00    +0.000 NA
ATOM     25  C   UNL     1       0.874   3.070  18.927  0.00  0.00    +0.000 C 
ENDBRANCH  18  25
ENDBRANCH   1  22
BRANCH   7  26
ATOM     26  C   UNL     1       7.517   8.046  18.003  0.00  0.00    +0.000 A 
ATOM     27  C   UNL     1       8.588   8.116  18.875  0.00  0.00    +0.000 A 
ATOM     28  C   UNL     1       9.142   9.414  18.745  0.00  0.00    +0.000 A 
ATOM     29  C   UNL     1       8.382  10.063  17.810  0.00  0.00    +0.000 A 
ATOM     30  O   UNL     1       7.398   9.250  17.351  0.00  0.00    +0.000 OA
ENDBRANCH   7  26
TORSDOF 4
ENDMDL
MODEL 9
REMARK VINA RESULT:      -7.3      8.584     10.738
REMARK  Name = 
REMARK  4 active torsions:
REMARK  status: ('A' for Active; 'I' for Inactive)
REMARK    1  A    between atoms: C_2  and  C_3
REMARK    2  A    between atoms: N_7  and  C_8
REMARK    3  A    between atoms: C_11  and  C_12
REMARK    4  A    between atoms: C_21  and  C_22
REMARK                            x       y       z     vdW  Elec       q    Type
REMARK                         _______ _______ _______ _____ _____    ______ ____
ROOT
ATOM      1  C   UNL     1      -1.396  12.377  19.925  0.00  0.00    +0.000 A 
ATOM      2  N   UNL     1      -0.395  12.022  20.785  0.00  0.00    +0.000 NA
ATOM      3  C   UNL     1       0.430  10.980  20.510  0.00  0.00    +0.000 A 
ATOM      4  C   UNL     1       0.378  10.150  19.389  0.00  0.00    +0.000 A 
ATOM      5  C   UNL     1      -0.656  10.518  18.517  0.00  0.00    +0.000 A 
ATOM      6  N   UNL     1      -1.051  10.026  17.297  0.00  0.00    +0.000 N 
ATOM      7  C   UNL     1      -2.155  10.707  16.873  0.00  0.00    +0.000 A 
ATOM      8  N   UNL     1      -2.481  11.647  17.731  0.00  0.00    +0.000 NA
ATOM      9  C   UNL     1      -1.540  11.576  18.753  0.00  0.00    +0.000 A 
ATOM     10  H   UNL     1      -0.619   9.279  16.775  0.00  0.00    +0.000 HD
ENDROOT
BRANCH   4  11
ATOM     11  C   UNL     1       1.290   9.016  19.156  0.00  0.00    +0.000 A 
ATOM     12  C   UNL     1       2.102   8.950  18.006  0.00  0.00    +0.000 A 
ATOM     13  C   UNL     1       2.980   7.878  17.787  0.00  0.00    +0.000 A 
ATOM     14  C   UNL     1       3.049   6.836  18.705  0.00  0.00    +0.000 A 
ATOM     15  C   UNL     1       2.257   6.885  19.839  0.00  0.00    +0.000 A 
ATOM     16  F   UNL     1       2.310   5.886  20.729  0.00  0.00    +0.000 F 
ATOM     17  C   UNL     1       1.408   7.962  20.077  0.00  0.00    +0.000 A 
ENDBRANCH   4  11
BRANCH   1  22
ATOM     18  C   UNL     1      -3.984  13.534  21.970  0.00  0.00    +0.000 C 
ATOM     19  C   UNL     1      -3.491  14.939  22.347  0.00  0.00    +0.000 C 
ATOM     20  C   UNL     1      -1.992  15.094  22.088  0.00  0.00    +0.000 C 
ATOM     21  C   UNL     1      -1.620  14.745  20.643  0.00  0.00    +0.000 C 
ATOM     22  N   UNL     1      -2.195  13.459  20.261  0.00  0.00    +0.000 N 
ATOM     23  C   UNL     1      -3.618  13.233  20.517  0.00  0.00    +0.000 C 
BRANCH  18  25
ATOM     24  N   UNL     1      -3.047  11.731  23.650  0.00  0.00    +0.000 NA
ATOM     25  C   UNL     1      -3.446  12.510  22.888  0.00  0.00    +0.000 C 
ENDBRANCH  18  25
ENDBRANCH   1  22
BRANCH   7  26
ATOM     26  C   UNL     1      -2.808  10.408  15.646  0.00  0.00    +0.000 A 
ATOM     27  C   UNL     1      -4.143  10.547  15.317  0.00  0.00    +0.000 A 
ATOM     28  C   UNL     1      -4.282  10.129  13.970  0.00  0.00    +0.000 A 
ATOM     29  C   UNL     1      -3.034   9.753  13.555  0.00  0.00    +0.000 A 
ATOM     30  O   UNL     1      -2.132   9.917  14.555  0.00  0.00    +0.000 OA
ENDBRANCH   7  26
TORSDOF 4
ENDMDL
