MODEL 1
REMARK VINA RESULT:      -7.7      0.000      0.000
REMARK  Name = 
REMARK  6 active torsions:
REMARK  status: ('A' for Active; 'I' for Inactive)
REMARK    1  A    between atoms: C_1  and  C_2
REMARK    2  A    between atoms: C_5  and  C_6
REMARK    3  A    between atoms: C_6  and  C_7
REMARK    4  A    between atoms: C_6  and  N_17
REMARK    5  A    between atoms: C_7  and  N_8
REMARK    6  A    between atoms: N_11  and  C_12
REMARK                            x       y       z     vdW  Elec       q    Type
REMARK                         _______ _______ _______ _____ _____    ______ ____
ROOT
ATOM      1  C   UNL     1       3.396   5.285  17.928  0.00  0.00    +0.000 C 
ENDROOT
BRANCH   1   6
ATOM      2  C   UNL     1       1.651   2.653  21.655  0.00  0.00    +0.000 C 
ATOM      3  C   UNL     1       1.655   3.115  20.252  0.00  0.00    +0.000 A 
ATOM      4  C   UNL     1       0.864   2.820  19.165  0.00  0.00    +0.000 A 
ATOM      5  C   UNL     1       1.336   3.624  18.102  0.00  0.00    +0.000 A 
ATOM      6  C   UNL     1       2.437   4.315  18.579  0.00  0.00    +0.000 A 
ATOM      7  O   UNL     1       2.613   4.021  19.905  0.00  0.00    +0.000 OA
ENDBRANCH   1   6
BRANCH   1   8
ATOM      8  N   UNL     1       4.810   4.835  17.846  0.00  0.00    +0.000 NA
ATOM      9  C   UNL     1       5.856   5.791  18.225  0.00  0.00    +0.000 C 
ATOM     10  C   UNL     1       6.436   6.630  17.065  0.00  0.00    +0.000 C 
ATOM     11  O   UNL     1       6.748   5.854  15.900  0.00  0.00    +0.000 OA
ATOM     12  C   UNL     1       5.640   5.042  15.496  0.00  0.00    +0.000 C 
ATOM     13  C   UNL     1       5.224   4.113  16.636  0.00  0.00    +0.000 C 
ENDBRANCH   1   8
BRANCH   1  14
ATOM     14  C   UNL     1       3.343   6.698  18.585  0.00  0.00    +0.000 C 
BRANCH  14  15
ATOM     15  N   UNL     1       2.616   6.823  19.840  0.00  0.00    +0.000 N 
ATOM     16  C   UNL     1       1.832   7.935  20.052  0.00  0.00    +0.000 C 
ATOM     17  O   UNL     1       1.473   8.665  19.134  0.00  0.00    +0.000 OA
ATOM     18  N   UNL     1       1.546   8.134  21.383  0.00  0.00    +0.000 N 
ATOM     19  H   UNL     1       2.996   6.327  20.630  0.00  0.00    +0.000 HD
ATOM     20  H   UNL     1       1.974   7.544  22.076  0.00  0.00    +0.000 HD
BRANCH  18  21
ATOM     21  C   UNL     1       0.817   9.226  21.832  0.00  0.00    +0.000 A 
ATOM     22  C   UNL     1       0.882  10.592  21.477  0.00  0.00    +0.000 A 
ATOM     23  N   UNL     1      -0.001  11.336  22.150  0.00  0.00    +0.000 NA
ATOM     24  N   UNL     1      -0.618  10.447  22.943  0.00  0.00    +0.000 N 
ATOM     25  C   UNL     1      -0.173   9.167  22.784  0.00  0.00    +0.000 A 
ATOM     26  H   UNL     1      -1.334  10.791  23.571  0.00  0.00    +0.000 HD
ENDBRANCH  18  21
ENDBRANCH  14  15
ENDBRANCH   1  14
TORSDOF 5
ENDMDL
MODEL 2
REMARK VINA RESULT:      -7.7      1.564      4.434
REMARK  Name = 
REMARK  6 active torsions:
REMARK  status: ('A' for Active; 'I' for Inactive)
REMARK    1  A    between atoms: C_1  and  C_2
REMARK    2  A    between atoms: C_5  and  C_6
REMARK    3  A    between atoms: C_6  and  C_7
REMARK    4  A    between atoms: C_6  and  N_17
REMARK    5  A    between atoms: C_7  and  N_8
REMARK    6  A    between atoms: N_11  and  C_12
REMARK                            x       y       z     vdW  Elec       q    Type
REMARK                         _______ _______ _______ _____ _____    ______ ____
ROOT
ATOM      1  C   UNL     1       3.681   4.817  18.932  0.00  0.00    +0.000 C 
ENDROOT
BRANCH   1   6
ATOM      2  C   UNL     1       6.998   4.654  15.348  0.00  0.00    +0.000 C 
ATOM      3  C   UNL     1       6.576   4.853  16.749  0.00  0.00    +0.000 A 
ATOM      4  C   UNL     1       7.264   5.168  17.900  0.00  0.00    +0.000 A 
ATOM      5  C   UNL     1       6.295   5.268  18.925  0.00  0.00    +0.000 A 
ATOM      6  C   UNL     1       5.075   4.939  18.358  0.00  0.00    +0.000 A 
ATOM      7  O   UNL     1       5.248   4.711  17.019  0.00  0.00    +0.000 OA
ENDBRANCH   1   6
BRANCH   1   8
ATOM      8  N   UNL     1       3.124   3.440  18.979  0.00  0.00    +0.000 NA
ATOM      9  C   UNL     1       1.684   3.276  18.752  0.00  0.00    +0.000 C 
ATOM     10  C   UNL     1       0.809   3.285  20.025  0.00  0.00    +0.000 C 
ATOM     11  O   UNL     1       1.331   2.467  21.082  0.00  0.00    +0.000 OA
ATOM     12  C   UNL     1       2.704   2.770  21.352  0.00  0.00    +0.000 C 
ATOM     13  C   UNL     1       3.544   2.576  20.091  0.00  0.00    +0.000 C 
ENDBRANCH   1   8
BRANCH   1  14
ATOM     14  C   UNL     1       2.665   5.759  18.217  0.00  0.00    +0.000 C 
BRANCH  14  15
ATOM     15  N   UNL     1       2.489   7.094  18.770  0.00  0.00    +0.000 N 
ATOM     16  C   UNL     1       1.966   7.232  20.036  0.00  0.00    +0.000 C 
ATOM     17  O   UNL     1       1.926   6.299  20.831  0.00  0.00    +0.000 OA
ATOM     18  N   UNL     1       1.475   8.496  20.270  0.00  0.00    +0.000 N 
ATOM     19  H   UNL     1       2.384   7.844  18.106  0.00  0.00    +0.000 HD
ATOM     20  H   UNL     1       1.452   9.165  19.520  0.00  0.00    +0.000 HD
BRANCH  18  21
ATOM     21  C   UNL     1       0.851   8.843  21.459  0.00  0.00    +0.000 A 
ATOM     22  C   UNL     1       1.371   9.394  22.652  0.00  0.00    +0.000 A 
ATOM     23  N   UNL     1       0.429   9.580  23.581  0.00  0.00    +0.000 NA
ATOM     24  N   UNL     1      -0.688   9.135  22.986  0.00  0.00    +0.000 N 
ATOM     25  C   UNL     1      -0.493   8.693  21.710  0.00  0.00    +0.000 A 
ATOM     26  H   UNL     1      -1.549   9.163  23.518  0.00  0.00    +0.000 HD
ENDBRANCH  18  21
ENDBRANCH  14  15
ENDBRANCH   1  14
TORSDOF 5
ENDMDL
MODEL 3
REMARK VINA RESULT:      -7.6      1.953      2.026
REMARK  Name = 
REMARK  6 active torsions:
REMARK  status: ('A' for Active; 'I' for Inactive)
REMARK    1  A    between atoms: C_1  and  C_2
REMARK    2  A    between atoms: C_5  and  C_6
REMARK    3  A    between atoms: C_6  and  C_7
REMARK    4  A    between atoms: C_6  and  N_17
REMARK    5  A    between atoms: C_7  and  N_8
REMARK    6  A    between atoms: N_11  and  C_12
REMARK                            x       y       z     vdW  Elec       q    Type
REMARK                         _______ _______ _______ _____ _____    ______ ____
ROOT
ATOM      1  C   UNL     1       3.748   5.093  17.512  0.00  0.00    +0.000 C 
ENDROOT
BRANCH   1   6
ATOM      2  C   UNL     1       1.977   3.039  21.576  0.00  0.00    +0.000 C 
ATOM      3  C   UNL     1       1.958   3.333  20.129  0.00  0.00    +0.000 A 
ATOM      4  C   UNL     1       1.109   2.970  19.108  0.00  0.00    +0.000 A 
ATOM      5  C   UNL     1       1.592   3.610  17.944  0.00  0.00    +0.000 A 
ATOM      6  C   UNL     1       2.753   4.274  18.302  0.00  0.00    +0.000 A 
ATOM      7  O   UNL     1       2.960   4.124  19.648  0.00  0.00    +0.000 OA
ENDBRANCH   1   6
BRANCH   1   8
ATOM      8  N   UNL     1       5.098   4.491  17.358  0.00  0.00    +0.000 NA
ATOM      9  C   UNL     1       6.237   5.204  17.948  0.00  0.00    +0.000 C 
ATOM     10  C   UNL     1       6.964   6.185  17.002  0.00  0.00    +0.000 C 
ATOM     11  O   UNL     1       7.227   5.636  15.703  0.00  0.00    +0.000 OA
ATOM     12  C   UNL     1       6.046   5.076  15.119  0.00  0.00    +0.000 C 
ATOM     13  C   UNL     1       5.472   3.991  16.029  0.00  0.00    +0.000 C 
ENDBRANCH   1   8
BRANCH   1  14
ATOM     14  C   UNL     1       3.891   6.542  18.067  0.00  0.00    +0.000 C 
BRANCH  14  15
ATOM     15  N   UNL     1       2.727   7.127  18.716  0.00  0.00    +0.000 N 
ATOM     16  C   UNL     1       2.209   8.306  18.229  0.00  0.00    +0.000 C 
ATOM     17  O   UNL     1       2.480   8.724  17.108  0.00  0.00    +0.000 OA
ATOM     18  N   UNL     1       1.407   8.949  19.144  0.00  0.00    +0.000 N 
ATOM     19  H   UNL     1       2.585   6.886  19.684  0.00  0.00    +0.000 HD
ATOM     20  H   UNL     1       1.329   8.585  20.077  0.00  0.00    +0.000 HD
BRANCH  18  21
ATOM     21  C   UNL     1       0.825  10.182  18.885  0.00  0.00    +0.000 A 
ATOM     22  C   UNL     1       1.304  11.495  19.097  0.00  0.00    +0.000 A 
ATOM     23  N   UNL     1       0.426  12.426  18.712  0.00  0.00    +0.000 NA
ATOM     24  N   UNL     1      -0.616  11.707  18.267  0.00  0.00    +0.000 N 
ATOM     25  C   UNL     1      -0.424  10.358  18.339  0.00  0.00    +0.000 A 
ATOM     26  H   UNL     1      -1.427  12.211  17.931  0.00  0.00    +0.000 HD
ENDBRANCH  18  21
ENDBRANCH  14  15
ENDBRANCH   1  14
TORSDOF 5
ENDMDL
MODEL 4
REMARK VINA RESULT:      -7.5      1.565      4.359
REMARK  Name = 
REMARK  6 active torsions:
REMARK  status: ('A' for Active; 'I' for Inactive)
REMARK    1  A    between atoms: C_1  and  C_2
REMARK    2  A    between atoms: C_5  and  C_6
REMARK    3  A    between atoms: C_6  and  C_7
REMARK    4  A    between atoms: C_6  and  N_17
REMARK    5  A    between atoms: C_7  and  N_8
REMARK    6  A    between atoms: N_11  and  C_12
REMARK                            x       y       z     vdW  Elec       q    Type
REMARK                         _______ _______ _______ _____ _____    ______ ____
ROOT
ATOM      1  C   UNL     1       3.531   4.809  18.182  0.00  0.00    +0.000 C 
ENDROOT
BRANCH   1   6
ATOM      2  C   UNL     1       6.145   3.793  14.182  0.00  0.00    +0.000 C 
ATOM      3  C   UNL     1       5.657   4.691  15.248  0.00  0.00    +0.000 A 
ATOM      4  C   UNL     1       5.892   6.016  15.539  0.00  0.00    +0.000 A 
ATOM      5  C   UNL     1       5.092   6.322  16.664  0.00  0.00    +0.000 A 
ATOM      6  C   UNL     1       4.465   5.148  17.043  0.00  0.00    +0.000 A 
ATOM      7  O   UNL     1       4.793   4.156  16.156  0.00  0.00    +0.000 OA
ENDBRANCH   1   6
BRANCH   1   8
ATOM      8  N   UNL     1       3.184   3.370  18.324  0.00  0.00    +0.000 NA
ATOM      9  C   UNL     1       1.771   2.992  18.206  0.00  0.00    +0.000 C 
ATOM     10  C   UNL     1       0.989   2.938  19.538  0.00  0.00    +0.000 C 
ATOM     11  O   UNL     1       1.692   2.256  20.585  0.00  0.00    +0.000 OA
ATOM     12  C   UNL     1       3.022   2.764  20.745  0.00  0.00    +0.000 C 
ATOM     13  C   UNL     1       3.797   2.630  19.435  0.00  0.00    +0.000 C 
ENDBRANCH   1   8
BRANCH   1  14
ATOM     14  C   UNL     1       2.221   5.652  18.141  0.00  0.00    +0.000 C 
BRANCH  14  15
ATOM     15  N   UNL     1       2.256   6.971  18.756  0.00  0.00    +0.000 N 
ATOM     16  C   UNL     1       1.754   7.131  20.028  0.00  0.00    +0.000 C 
ATOM     17  O   UNL     1       1.562   6.180  20.779  0.00  0.00    +0.000 OA
ATOM     18  N   UNL     1       1.468   8.445  20.322  0.00  0.00    +0.000 N 
ATOM     19  H   UNL     1       2.274   7.758  18.128  0.00  0.00    +0.000 HD
ATOM     20  H   UNL     1       1.556   9.144  19.605  0.00  0.00    +0.000 HD
BRANCH  18  21
ATOM     21  C   UNL     1       0.900   8.831  21.528  0.00  0.00    +0.000 A 
ATOM     22  C   UNL     1       1.486   9.361  22.700  0.00  0.00    +0.000 A 
ATOM     23  N   UNL     1       0.585   9.601  23.656  0.00  0.00    +0.000 NA
ATOM     24  N   UNL     1      -0.572   9.212  23.100  0.00  0.00    +0.000 N 
ATOM     25  C   UNL     1      -0.440   8.753  21.821  0.00  0.00    +0.000 A 
ATOM     26  H   UNL     1      -1.414   9.288  23.658  0.00  0.00    +0.000 HD
ENDBRANCH  18  21
ENDBRANCH  14  15
ENDBRANCH   1  14
TORSDOF 5
ENDMDL
MODEL 5
REMARK VINA RESULT:      -7.4      1.625      4.352
REMARK  Name = 
REMARK  6 active torsions:
REMARK  status: ('A' for Active; 'I' for Inactive)
REMARK    1  A    between atoms: C_1  and  C_2
REMARK    2  A    between atoms: C_5  and  C_6
REMARK    3  A    between atoms: C_6  and  C_7
REMARK    4  A    between atoms: C_6  and  N_17
REMARK    5  A    between atoms: C_7  and  N_8
REMARK    6  A    between atoms: N_11  and  C_12
REMARK                            x       y       z     vdW  Elec       q    Type
REMARK                         _______ _______ _______ _____ _____    ______ ____
ROOT
ATOM      1  C   UNL     1       3.594   4.788  18.913  0.00  0.00    +0.000 C 
ENDROOT
BRANCH   1   6
ATOM      2  C   UNL     1       8.149   6.543  18.687  0.00  0.00    +0.000 C 
ATOM      3  C   UNL     1       7.022   5.725  18.193  0.00  0.00    +0.000 A 
ATOM      4  C   UNL     1       6.868   4.904  17.099  0.00  0.00    +0.000 A 
ATOM      5  C   UNL     1       5.569   4.355  17.196  0.00  0.00    +0.000 A 
ATOM      6  C   UNL     1       4.973   4.926  18.308  0.00  0.00    +0.000 A 
ATOM      7  O   UNL     1       5.877   5.745  18.932  0.00  0.00    +0.000 OA
ENDBRANCH   1   6
BRANCH   1   8
ATOM      8  N   UNL     1       3.051   3.406  18.966  0.00  0.00    +0.000 NA
ATOM      9  C   UNL     1       1.610   3.229  18.752  0.00  0.00    +0.000 C 
ATOM     10  C   UNL     1       0.746   3.230  20.033  0.00  0.00    +0.000 C 
ATOM     11  O   UNL     1       1.285   2.418  21.085  0.00  0.00    +0.000 OA
ATOM     12  C   UNL     1       2.658   2.732  21.343  0.00  0.00    +0.000 C 
ATOM     13  C   UNL     1       3.488   2.546  20.074  0.00  0.00    +0.000 C 
ENDBRANCH   1   8
BRANCH   1  14
ATOM     14  C   UNL     1       2.554   5.724  18.227  0.00  0.00    +0.000 C 
BRANCH  14  15
ATOM     15  N   UNL     1       2.400   7.065  18.773  0.00  0.00    +0.000 N 
ATOM     16  C   UNL     1       1.880   7.218  20.039  0.00  0.00    +0.000 C 
ATOM     17  O   UNL     1       1.826   6.290  20.839  0.00  0.00    +0.000 OA
ATOM     18  N   UNL     1       1.409   8.491  20.267  0.00  0.00    +0.000 N 
ATOM     19  H   UNL     1       2.306   7.813  18.105  0.00  0.00    +0.000 HD
ATOM     20  H   UNL     1       1.397   9.157  19.514  0.00  0.00    +0.000 HD
BRANCH  18  21
ATOM     21  C   UNL     1       0.792   8.854  21.455  0.00  0.00    +0.000 A 
ATOM     22  C   UNL     1       1.310   9.464  22.620  0.00  0.00    +0.000 A 
ATOM     23  N   UNL     1       0.377   9.646  23.559  0.00  0.00    +0.000 NA
ATOM     24  N   UNL     1      -0.732   9.140  22.999  0.00  0.00    +0.000 N 
ATOM     25  C   UNL     1      -0.540   8.662  21.734  0.00  0.00    +0.000 A 
ATOM     26  H   UNL     1      -1.585   9.153  23.544  0.00  0.00    +0.000 HD
ENDBRANCH  18  21
ENDBRANCH  14  15
ENDBRANCH   1  14
TORSDOF 5
ENDMDL
MODEL 6
REMARK VINA RESULT:      -7.3      2.255      2.541
REMARK  Name = 
REMARK  6 active torsions:
REMARK  status: ('A' for Active; 'I' for Inactive)
REMARK    1  A    between atoms: C_1  and  C_2
REMARK    2  A    between atoms: C_5  and  C_6
REMARK    3  A    between atoms: C_6  and  C_7
REMARK    4  A    between atoms: C_6  and  N_17
REMARK    5  A    between atoms: C_7  and  N_8
REMARK    6  A    between atoms: N_11  and  C_12
REMARK                            x       y       z     vdW  Elec       q    Type
REMARK                         _______ _______ _______ _____ _____    ______ ____
ROOT
ATOM      1  C   UNL     1       2.883   6.001  18.112  0.00  0.00    +0.000 C 
ENDROOT
BRANCH   1   6
ATOM      2  C   UNL     1       1.406   2.840  21.532  0.00  0.00    +0.000 C 
ATOM      3  C   UNL     1       1.492   3.341  20.145  0.00  0.00    +0.000 A 
ATOM      4  C   UNL     1       0.990   2.881  18.949  0.00  0.00    +0.000 A 
ATOM      5  C   UNL     1       1.372   3.826  17.969  0.00  0.00    +0.000 A 
ATOM      6  C   UNL     1       2.149   4.777  18.610  0.00  0.00    +0.000 A 
ATOM      7  O   UNL     1       2.198   4.490  19.948  0.00  0.00    +0.000 OA
ENDBRANCH   1   6
BRANCH   1   8
ATOM      8  N   UNL     1       4.362   5.873  18.026  0.00  0.00    +0.000 NA
ATOM      9  C   UNL     1       5.075   6.776  17.115  0.00  0.00    +0.000 C 
ATOM     10  C   UNL     1       5.308   6.228  15.690  0.00  0.00    +0.000 C 
ATOM     11  O   UNL     1       5.788   4.877  15.669  0.00  0.00    +0.000 OA
ATOM     12  C   UNL     1       4.970   4.014  16.466  0.00  0.00    +0.000 C 
ATOM     13  C   UNL     1       4.921   4.519  17.907  0.00  0.00    +0.000 C 
ENDBRANCH   1   8
BRANCH   1  14
ATOM     14  C   UNL     1       2.525   7.277  18.931  0.00  0.00    +0.000 C 
BRANCH  14  15
ATOM     15  N   UNL     1       2.019   8.425  18.191  0.00  0.00    +0.000 N 
ATOM     16  C   UNL     1       1.096   9.254  18.789  0.00  0.00    +0.000 C 
ATOM     17  O   UNL     1       0.909   9.256  20.001  0.00  0.00    +0.000 OA
ATOM     18  N   UNL     1       0.409  10.022  17.877  0.00  0.00    +0.000 N 
ATOM     19  H   UNL     1       2.049   8.359  17.187  0.00  0.00    +0.000 HD
ATOM     20  H   UNL     1       0.554   9.874  16.894  0.00  0.00    +0.000 HD
BRANCH  18  21
ATOM     21  C   UNL     1      -0.608  10.889  18.253  0.00  0.00    +0.000 A 
ATOM     22  C   UNL     1      -2.000  10.682  18.383  0.00  0.00    +0.000 A 
ATOM     23  N   UNL     1      -2.646  11.786  18.770  0.00  0.00    +0.000 NA
ATOM     24  N   UNL     1      -1.668  12.699  18.873  0.00  0.00    +0.000 N 
ATOM     25  C   UNL     1      -0.427  12.210  18.584  0.00  0.00    +0.000 A 
ATOM     26  H   UNL     1      -1.927  13.640  19.144  0.00  0.00    +0.000 HD
ENDBRANCH  18  21
ENDBRANCH  14  15
ENDBRANCH   1  14
TORSDOF 5
ENDMDL
MODEL 7
REMARK VINA RESULT:      -7.2      1.991      2.152
REMARK  Name = 
REMARK  6 active torsions:
REMARK  status: ('A' for Active; 'I' for Inactive)
REMARK    1  A    between atoms: C_1  and  C_2
REMARK    2  A    between atoms: C_5  and  C_6
REMARK    3  A    between atoms: C_6  and  C_7
REMARK    4  A    between atoms: C_6  and  N_17
REMARK    5  A    between atoms: C_7  and  N_8
REMARK    6  A    between atoms: N_11  and  C_12
REMARK                            x       y       z     vdW  Elec       q    Type
REMARK                         _______ _______ _______ _____ _____    ______ ____
ROOT
ATOM      1  C   UNL     1       3.243   5.390  17.945  0.00  0.00    +0.000 C 
ENDROOT
BRANCH   1   6
ATOM      2  C   UNL     1       1.406   2.645  21.544  0.00  0.00    +0.000 C 
ATOM      3  C   UNL     1       1.500   3.090  20.139  0.00  0.00    +0.000 A 
ATOM      4  C   UNL     1       0.845   2.711  18.989  0.00  0.00    +0.000 A 
ATOM      5  C   UNL     1       1.339   3.544  17.959  0.00  0.00    +0.000 A 
ATOM      6  C   UNL     1       2.321   4.341  18.523  0.00  0.00    +0.000 A 
ATOM      7  O   UNL     1       2.398   4.078  19.865  0.00  0.00    +0.000 OA
ENDBRANCH   1   6
BRANCH   1   8
ATOM      8  N   UNL     1       4.657   4.970  17.758  0.00  0.00    +0.000 NA
ATOM      9  C   UNL     1       5.709   5.893  18.200  0.00  0.00    +0.000 C 
ATOM     10  C   UNL     1       6.233   6.864  17.119  0.00  0.00    +0.000 C 
ATOM     11  O   UNL     1       6.505   6.226  15.863  0.00  0.00    +0.000 OA
ATOM     12  C   UNL     1       5.388   5.449  15.414  0.00  0.00    +0.000 C 
ATOM     13  C   UNL     1       5.028   4.394  16.459  0.00  0.00    +0.000 C 
ENDBRANCH   1   8
BRANCH   1  14
ATOM     14  C   UNL     1       3.205   6.720  18.755  0.00  0.00    +0.000 C 
BRANCH  14  15
ATOM     15  N   UNL     1       2.726   7.909  18.065  0.00  0.00    +0.000 N 
ATOM     16  C   UNL     1       1.779   8.702  18.673  0.00  0.00    +0.000 C 
ATOM     17  O   UNL     1       1.546   8.635  19.875  0.00  0.00    +0.000 OA
ATOM     18  N   UNL     1       1.126   9.523  17.782  0.00  0.00    +0.000 N 
ATOM     19  H   UNL     1       2.795   7.902  17.060  0.00  0.00    +0.000 HD
ATOM     20  H   UNL     1       1.309   9.432  16.798  0.00  0.00    +0.000 HD
BRANCH  18  21
ATOM     21  C   UNL     1       0.094  10.367  18.167  0.00  0.00    +0.000 A 
ATOM     22  C   UNL     1       0.114  11.598  18.861  0.00  0.00    +0.000 A 
ATOM     23  N   UNL     1      -1.110  12.101  19.043  0.00  0.00    +0.000 NA
ATOM     24  N   UNL     1      -1.911  11.185  18.477  0.00  0.00    +0.000 N 
ATOM     25  C   UNL     1      -1.239  10.131  17.929  0.00  0.00    +0.000 A 
ATOM     26  H   UNL     1      -2.910  11.347  18.508  0.00  0.00    +0.000 HD
ENDBRANCH  18  21
ENDBRANCH  14  15
ENDBRANCH   1  14
TORSDOF 5
ENDMDL
MODEL 8
REMARK VINA RESULT:      -7.2      1.055      1.245
REMARK  Name = 
REMARK  6 active torsions:
REMARK  status: ('A' for Active; 'I' for Inactive)
REMARK    1  A    between atoms: C_1  and  C_2
REMARK    2  A    between atoms: C_5  and  C_6
REMARK    3  A    between atoms: C_6  and  C_7
REMARK    4  A    between atoms: C_6  and  N_17
REMARK    5  A    between atoms: C_7  and  N_8
REMARK    6  A    between atoms: N_11  and  C_12
REMARK                            x       y       z     vdW  Elec       q    Type
REMARK                         _______ _______ _______ _____ _____    ______ ____
ROOT
ATOM      1  C   UNL     1       4.044   4.676  17.417  0.00  0.00    +0.000 C 
ENDROOT
BRANCH   1   6
ATOM      2  C   UNL     1       2.284   2.597  21.474  0.00  0.00    +0.000 C 
ATOM      3  C   UNL     1       2.419   2.729  20.009  0.00  0.00    +0.000 A 
ATOM      4  C   UNL     1       1.883   2.030  18.951  0.00  0.00    +0.000 A 
ATOM      5  C   UNL     1       2.351   2.667  17.778  0.00  0.00    +0.000 A 
ATOM      6  C   UNL     1       3.204   3.679  18.183  0.00  0.00    +0.000 A 
ATOM      7  O   UNL     1       3.223   3.731  19.552  0.00  0.00    +0.000 OA
ENDBRANCH   1   6
BRANCH   1   8
ATOM      8  N   UNL     1       5.514   4.468  17.491  0.00  0.00    +0.000 NA
ATOM      9  C   UNL     1       6.321   5.510  18.138  0.00  0.00    +0.000 C 
ATOM     10  C   UNL     1       6.886   6.591  17.190  0.00  0.00    +0.000 C 
ATOM     11  O   UNL     1       7.472   6.054  15.997  0.00  0.00    +0.000 OA
ATOM     12  C   UNL     1       6.583   5.148  15.334  0.00  0.00    +0.000 C 
ATOM     13  C   UNL     1       6.197   4.008  16.275  0.00  0.00    +0.000 C 
ENDBRANCH   1   8
BRANCH   1  14
ATOM     14  C   UNL     1       3.713   6.148  17.806  0.00  0.00    +0.000 C 
BRANCH  14  15
ATOM     15  N   UNL     1       2.660   6.358  18.790  0.00  0.00    +0.000 N 
ATOM     16  C   UNL     1       2.231   7.641  19.048  0.00  0.00    +0.000 C 
ATOM     17  O   UNL     1       2.465   8.573  18.287  0.00  0.00    +0.000 OA
ATOM     18  N   UNL     1       1.563   7.742  20.247  0.00  0.00    +0.000 N 
ATOM     19  H   UNL     1       2.562   5.650  19.499  0.00  0.00    +0.000 HD
ATOM     20  H   UNL     1       1.514   6.945  20.857  0.00  0.00    +0.000 HD
BRANCH  18  21
ATOM     21  C   UNL     1       1.092   8.953  20.735  0.00  0.00    +0.000 A 
ATOM     22  C   UNL     1       1.190   9.536  22.019  0.00  0.00    +0.000 A 
ATOM     23  N   UNL     1       0.592  10.729  22.084  0.00  0.00    +0.000 NA
ATOM     24  N   UNL     1       0.101  10.900  20.848  0.00  0.00    +0.000 N 
ATOM     25  C   UNL     1       0.382   9.870  19.997  0.00  0.00    +0.000 A 
ATOM     26  H   UNL     1      -0.419  11.748  20.659  0.00  0.00    +0.000 HD
ENDBRANCH  18  21
ENDBRANCH  14  15
ENDBRANCH   1  14
TORSDOF 5
ENDMDL
MODEL 9
REMARK VINA RESULT:      -7.2      1.304      4.324
REMARK  Name = 
REMARK  6 active torsions:
REMARK  status: ('A' for Active; 'I' for Inactive)
REMARK    1  A    between atoms: C_1  and  C_2
REMARK    2  A    between atoms: C_5  and  C_6
REMARK    3  A    between atoms: C_6  and  C_7
REMARK    4  A    between atoms: C_6  and  N_17
REMARK    5  A    between atoms: C_7  and  N_8
REMARK    6  A    between atoms: N_11  and  C_12
REMARK                            x       y       z     vdW  Elec       q    Type
REMARK                         _______ _______ _______ _____ _____    ______ ____
ROOT
ATOM      1  C   UNL     1       3.983   5.011  19.548  0.00  0.00    +0.000 C 
ENDROOT
BRANCH   1   6
ATOM      2  C   UNL     1       6.824   4.684  15.587  0.00  0.00    +0.000 C 
ATOM      3  C   UNL     1       6.575   4.975  17.013  0.00  0.00    +0.000 A 
ATOM      4  C   UNL     1       7.388   5.400  18.040  0.00  0.00    +0.000 A 
ATOM      5  C   UNL     1       6.553   5.546  19.171  0.00  0.00    +0.000 A 
ATOM      6  C   UNL     1       5.286   5.135  18.792  0.00  0.00    +0.000 A 
ATOM      7  O   UNL     1       5.298   4.810  17.461  0.00  0.00    +0.000 OA
ENDBRANCH   1   6
BRANCH   1   8
ATOM      8  N   UNL     1       3.186   3.790  19.258  0.00  0.00    +0.000 NA
ATOM      9  C   UNL     1       1.752   3.956  18.992  0.00  0.00    +0.000 C 
ATOM     10  C   UNL     1       0.832   3.825  20.226  0.00  0.00    +0.000 C 
ATOM     11  O   UNL     1       1.146   2.697  21.055  0.00  0.00    +0.000 OA
ATOM     12  C   UNL     1       2.537   2.665  21.396  0.00  0.00    +0.000 C 
ATOM     13  C   UNL     1       3.388   2.624  20.128  0.00  0.00    +0.000 C 
ENDBRANCH   1   8
BRANCH   1  14
ATOM     14  C   UNL     1       3.079   6.268  19.375  0.00  0.00    +0.000 C 
BRANCH  14  15
ATOM     15  N   UNL     1       2.384   6.759  20.556  0.00  0.00    +0.000 N 
ATOM     16  C   UNL     1       1.678   7.938  20.477  0.00  0.00    +0.000 C 
ATOM     17  O   UNL     1       1.352   8.433  19.404  0.00  0.00    +0.000 OA
ATOM     18  N   UNL     1       1.430   8.489  21.714  0.00  0.00    +0.000 N 
ATOM     19  H   UNL     1       2.745   6.456  21.446  0.00  0.00    +0.000 HD
ATOM     20  H   UNL     1       1.830   8.068  22.534  0.00  0.00    +0.000 HD
BRANCH  18  21
ATOM     21  C   UNL     1       0.782   9.706  21.869  0.00  0.00    +0.000 A 
ATOM     22  C   UNL     1       0.991  10.954  21.239  0.00  0.00    +0.000 A 
ATOM     23  N   UNL     1       0.146  11.893  21.675  0.00  0.00    +0.000 NA
ATOM     24  N   UNL     1      -0.591  11.248  22.591  0.00  0.00    +0.000 N 
ATOM     25  C   UNL     1      -0.259   9.933  22.738  0.00  0.00    +0.000 A 
ATOM     26  H   UNL     1      -1.305  11.776  23.080  0.00  0.00    +0.000 HD
ENDBRANCH  18  21
ENDBRANCH  14  15
ENDBRANCH   1  14
TORSDOF 5
ENDMDL
