MODEL 1
REMARK VINA RESULT:      -7.6      0.000      0.000
REMARK  Name = 
REMARK  8 active torsions:
REMARK  status: ('A' for Active; 'I' for Inactive)
REMARK    1  A    between atoms: CB_1  and  CA_2
REMARK    2  A    between atoms: CA_2  and  C_3
REMARK    3  A    between atoms: CA_2  and  N_5
REMARK    4  A    between atoms: C_3  and  O_4
REMARK    5  A    between atoms: N_5  and  C_6
REMARK    6  A    between atoms: C_8  and  S_9
REMARK    7  A    between atoms: S_9  and  C_10
REMARK    8  A    between atoms: C_10  and  C_11
REMARK                            x       y       z     vdW  Elec       q    Type
REMARK                         _______ _______ _______ _____ _____    ______ ____
ROOT
ATOM      1  C   UNK A   0       5.558   4.432  16.224  0.00  0.00    +0.000 A 
ATOM      2  N   UNK A   0       4.637   3.517  16.604  0.00  0.00    +0.000 NA
ATOM      3  C   UNK A   0       4.554   3.207  17.931  0.00  0.00    +0.000 A 
ATOM      4  N   UNK A   0       5.283   3.768  18.920  0.00  0.00    +0.000 NA
ATOM      5  C   UNK A   0       6.149   4.671  18.487  0.00  0.00    +0.000 A 
ATOM      6  N   UNK A   0       6.977   5.475  19.264  0.00  0.00    +0.000 N 
ATOM      7  C   UNK A   0       7.680   6.347  18.424  0.00  0.00    +0.000 A 
ATOM      8  O   UNK A   0       8.462   7.216  18.768  0.00  0.00    +0.000 OA
ATOM      9  N   UNK A   0       7.292   6.045  17.112  0.00  0.00    +0.000 N 
ATOM     10  C   UNK A   0       6.345   5.026  17.175  0.00  0.00    +0.000 A 
ATOM     11  H   UNK A   0       7.010   5.481  20.268  0.00  0.00    +0.000 HD
ATOM     12  H   UNK A   0       7.576   6.553  16.291  0.00  0.00    +0.000 HD
ENDROOT
BRANCH   1  13
ATOM     13  N   ALA A   1       5.677   4.855  14.910  0.00  0.00    +0.000 N 
ATOM     14  H   ALA A   1       5.483   5.838  14.743  0.00  0.00    +0.000 HD
BRANCH  13  16
ATOM     15  CB  ALA A   1       7.646   5.224  13.469  0.00  0.00    +0.000 C 
ATOM     16  CA  ALA A   1       6.601   4.235  13.969  0.00  0.00    +0.000 C 
BRANCH  16  17
ATOM     17  C   ALA A   1       5.755   3.686  12.792  0.00  0.00    +0.000 C 
BRANCH  17  18
ATOM     18  O   ALA A   1       6.212   2.397  12.367  0.00  0.00    +0.000 OA
ATOM     19  H   ALA A   1       5.685   2.141  11.591  0.00  0.00    +0.000 HD
ENDBRANCH  17  18
ENDBRANCH  16  17
ENDBRANCH  13  16
ENDBRANCH   1  13
BRANCH   3  20
ATOM     20  S   UNK A   0       3.306   2.064  18.489  0.00  0.00    +0.000 S 
BRANCH  20  21
ATOM     21  C   UNK A   0       1.783   3.018  18.211  0.00  0.00    +0.000 C 
BRANCH  21  22
ATOM     22  C   UNK A   0       1.892   4.412  18.807  0.00  0.00    +0.000 A 
ATOM     23  C   UNK A   0       2.232   5.510  18.001  0.00  0.00    +0.000 A 
ATOM     24  C   UNK A   0       2.344   6.793  18.548  0.00  0.00    +0.000 A 
ATOM     25  C   UNK A   0       2.124   6.995  19.908  0.00  0.00    +0.000 A 
ATOM     26  C   UNK A   0       1.798   5.914  20.724  0.00  0.00    +0.000 A 
ATOM     27  C   UNK A   0       1.686   4.630  20.179  0.00  0.00    +0.000 A 
ENDBRANCH  21  22
ENDBRANCH  20  21
ENDBRANCH   3  20
TORSDOF 7
ENDMDL
MODEL 2
REMARK VINA RESULT:      -7.5      3.546      5.351
REMARK  Name = 
REMARK  8 active torsions:
REMARK  status: ('A' for Active; 'I' for Inactive)
REMARK    1  A    between atoms: CB_1  and  CA_2
REMARK    2  A    between atoms: CA_2  and  C_3
REMARK    3  A    between atoms: CA_2  and  N_5
REMARK    4  A    between atoms: C_3  and  O_4
REMARK    5  A    between atoms: N_5  and  C_6
REMARK    6  A    between atoms: C_8  and  S_9
REMARK    7  A    between atoms: S_9  and  C_10
REMARK    8  A    between atoms: C_10  and  C_11
REMARK                            x       y       z     vdW  Elec       q    Type
REMARK                         _______ _______ _______ _____ _____    ______ ____
ROOT
ATOM      1  C   UNK A   0       3.927   5.097  19.139  0.00  0.00    +0.000 A 
ATOM      2  N   UNK A   0       3.036   6.097  18.946  0.00  0.00    +0.000 NA
ATOM      3  C   UNK A   0       3.392   7.117  18.112  0.00  0.00    +0.000 A 
ATOM      4  N   UNK A   0       4.546   7.203  17.417  0.00  0.00    +0.000 NA
ATOM      5  C   UNK A   0       5.365   6.186  17.631  0.00  0.00    +0.000 A 
ATOM      6  N   UNK A   0       6.584   5.948  17.004  0.00  0.00    +0.000 N 
ATOM      7  C   UNK A   0       7.096   4.726  17.458  0.00  0.00    +0.000 A 
ATOM      8  O   UNK A   0       8.125   4.188  17.090  0.00  0.00    +0.000 OA
ATOM      9  N   UNK A   0       6.185   4.231  18.400  0.00  0.00    +0.000 N 
ATOM     10  C   UNK A   0       5.127   5.133  18.480  0.00  0.00    +0.000 A 
ATOM     11  H   UNK A   0       6.993   6.521  16.287  0.00  0.00    +0.000 HD
ATOM     12  H   UNK A   0       6.246   3.332  18.850  0.00  0.00    +0.000 HD
ENDROOT
BRANCH   1  13
ATOM     13  N   ALA A   1       3.635   3.991  19.920  0.00  0.00    +0.000 N 
ATOM     14  H   ALA A   1       3.661   4.141  20.925  0.00  0.00    +0.000 HD
BRANCH  13  16
ATOM     15  CB  ALA A   1       1.775   2.504  20.570  0.00  0.00    +0.000 C 
ATOM     16  CA  ALA A   1       2.743   2.929  19.473  0.00  0.00    +0.000 C 
BRANCH  16  17
ATOM     17  C   ALA A   1       3.633   1.739  19.031  0.00  0.00    +0.000 C 
BRANCH  17  18
ATOM     18  O   ALA A   1       4.899   1.748  19.698  0.00  0.00    +0.000 OA
ATOM     19  H   ALA A   1       5.589   1.669  19.017  0.00  0.00    +0.000 HD
ENDBRANCH  17  18
ENDBRANCH  16  17
ENDBRANCH  13  16
ENDBRANCH   1  13
BRANCH   3  20
ATOM     20  S   UNK A   0       2.221   8.416  17.768  0.00  0.00    +0.000 S 
BRANCH  20  21
ATOM     21  C   UNK A   0       1.583   8.786  19.430  0.00  0.00    +0.000 C 
BRANCH  21  22
ATOM     22  C   UNK A   0       0.432   9.775  19.369  0.00  0.00    +0.000 A 
ATOM     23  C   UNK A   0       0.047  10.496  20.510  0.00  0.00    +0.000 A 
ATOM     24  C   UNK A   0      -1.020  11.401  20.461  0.00  0.00    +0.000 A 
ATOM     25  C   UNK A   0      -1.719  11.593  19.271  0.00  0.00    +0.000 A 
ATOM     26  C   UNK A   0      -1.357  10.877  18.133  0.00  0.00    +0.000 A 
ATOM     27  C   UNK A   0      -0.291   9.971  18.180  0.00  0.00    +0.000 A 
ENDBRANCH  21  22
ENDBRANCH  20  21
ENDBRANCH   3  20
TORSDOF 7
ENDMDL
MODEL 3
REMARK VINA RESULT:      -7.5      3.452      6.096
REMARK  Name = 
REMARK  8 active torsions:
REMARK  status: ('A' for Active; 'I' for Inactive)
REMARK    1  A    between atoms: CB_1  and  CA_2
REMARK    2  A    between atoms: CA_2  and  C_3
REMARK    3  A    between atoms: CA_2  and  N_5
REMARK    4  A    between atoms: C_3  and  O_4
REMARK    5  A    between atoms: N_5  and  C_6
REMARK    6  A    between atoms: C_8  and  S_9
REMARK    7  A    between atoms: S_9  and  C_10
REMARK    8  A    between atoms: C_10  and  C_11
REMARK                            x       y       z     vdW  Elec       q    Type
REMARK                         _______ _______ _______ _____ _____    ______ ____
ROOT
ATOM      1  C   UNK A   0       3.343   4.041  19.008  0.00  0.00    +0.000 A 
ATOM      2  N   UNK A   0       4.002   3.809  17.849  0.00  0.00    +0.000 NA
ATOM      3  C   UNK A   0       4.136   4.845  16.971  0.00  0.00    +0.000 A 
ATOM      4  N   UNK A   0       3.705   6.109  17.170  0.00  0.00    +0.000 NA
ATOM      5  C   UNK A   0       3.089   6.279  18.329  0.00  0.00    +0.000 A 
ATOM      6  N   UNK A   0       2.610   7.474  18.855  0.00  0.00    +0.000 N 
ATOM      7  C   UNK A   0       2.097   7.233  20.136  0.00  0.00    +0.000 A 
ATOM      8  O   UNK A   0       1.634   8.060  20.902  0.00  0.00    +0.000 OA
ATOM      9  N   UNK A   0       2.241   5.860  20.377  0.00  0.00    +0.000 N 
ATOM     10  C   UNK A   0       2.862   5.298  19.264  0.00  0.00    +0.000 A 
ATOM     11  H   UNK A   0       2.688   8.376  18.420  0.00  0.00    +0.000 HD
ATOM     12  H   UNK A   0       2.026   5.397  21.245  0.00  0.00    +0.000 HD
ENDROOT
BRANCH   1  13
ATOM     13  N   ALA A   1       3.208   3.070  19.986  0.00  0.00    +0.000 N 
ATOM     14  H   ALA A   1       3.728   3.233  20.845  0.00  0.00    +0.000 HD
BRANCH  13  16
ATOM     15  CB  ALA A   1       1.038   2.479  18.971  0.00  0.00    +0.000 C 
ATOM     16  CA  ALA A   1       2.001   2.268  20.133  0.00  0.00    +0.000 C 
BRANCH  16  17
ATOM     17  C   ALA A   1       1.341   2.675  21.475  0.00  0.00    +0.000 C 
BRANCH  17  18
ATOM     18  O   ALA A   1       2.291   3.244  22.382  0.00  0.00    +0.000 OA
ATOM     19  H   ALA A   1       2.933   3.748  21.854  0.00  0.00    +0.000 HD
ENDBRANCH  17  18
ENDBRANCH  16  17
ENDBRANCH  13  16
ENDBRANCH   1  13
BRANCH   3  20
ATOM     20  S   UNK A   0       5.061   4.607  15.467  0.00  0.00    +0.000 S 
BRANCH  20  21
ATOM     21  C   UNK A   0       6.713   4.204  16.113  0.00  0.00    +0.000 C 
BRANCH  21  22
ATOM     22  C   UNK A   0       7.207   5.280  17.065  0.00  0.00    +0.000 A 
ATOM     23  C   UNK A   0       7.255   6.624  16.664  0.00  0.00    +0.000 A 
ATOM     24  C   UNK A   0       7.720   7.616  17.535  0.00  0.00    +0.000 A 
ATOM     25  C   UNK A   0       8.148   7.277  18.816  0.00  0.00    +0.000 A 
ATOM     26  C   UNK A   0       8.117   5.946  19.226  0.00  0.00    +0.000 A 
ATOM     27  C   UNK A   0       7.654   4.952  18.357  0.00  0.00    +0.000 A 
ENDBRANCH  21  22
ENDBRANCH  20  21
ENDBRANCH   3  20
TORSDOF 7
ENDMDL
MODEL 4
REMARK VINA RESULT:      -7.4      1.400      4.098
REMARK  Name = 
REMARK  8 active torsions:
REMARK  status: ('A' for Active; 'I' for Inactive)
REMARK    1  A    between atoms: CB_1  and  CA_2
REMARK    2  A    between atoms: CA_2  and  C_3
REMARK    3  A    between atoms: CA_2  and  N_5
REMARK    4  A    between atoms: C_3  and  O_4
REMARK    5  A    between atoms: N_5  and  C_6
REMARK    6  A    between atoms: C_8  and  S_9
REMARK    7  A    between atoms: S_9  and  C_10
REMARK    8  A    between atoms: C_10  and  C_11
REMARK                            x       y       z     vdW  Elec       q    Type
REMARK                         _______ _______ _______ _____ _____    ______ ____
ROOT
ATOM      1  C   UNK A   0       6.599   5.585  16.419  0.00  0.00    +0.000 A 
ATOM      2  N   UNK A   0       5.791   5.000  17.333  0.00  0.00    +0.000 NA
ATOM      3  C   UNK A   0       5.041   3.931  16.934  0.00  0.00    +0.000 A 
ATOM      4  N   UNK A   0       5.062   3.367  15.708  0.00  0.00    +0.000 NA
ATOM      5  C   UNK A   0       5.887   3.968  14.866  0.00  0.00    +0.000 A 
ATOM      6  N   UNK A   0       6.189   3.575  13.566  0.00  0.00    +0.000 N 
ATOM      7  C   UNK A   0       7.164   4.436  13.047  0.00  0.00    +0.000 A 
ATOM      8  O   UNK A   0       7.691   4.361  11.951  0.00  0.00    +0.000 OA
ATOM      9  N   UNK A   0       7.434   5.386  14.040  0.00  0.00    +0.000 N 
ATOM     10  C   UNK A   0       6.652   5.074  15.149  0.00  0.00    +0.000 A 
ATOM     11  H   UNK A   0       5.824   2.762  13.102  0.00  0.00    +0.000 HD
ATOM     12  H   UNK A   0       8.146   6.097  13.985  0.00  0.00    +0.000 HD
ENDROOT
BRANCH   1  13
ATOM     13  N   ALA A   1       7.440   6.636  16.744  0.00  0.00    +0.000 N 
ATOM     14  H   ALA A   1       7.616   7.306  16.000  0.00  0.00    +0.000 HD
BRANCH  13  16
ATOM     15  CB  ALA A   1       8.353   8.458  18.136  0.00  0.00    +0.000 C 
ATOM     16  CA  ALA A   1       7.543   7.168  18.096  0.00  0.00    +0.000 C 
BRANCH  16  17
ATOM     17  C   ALA A   1       8.207   6.073  18.969  0.00  0.00    +0.000 C 
BRANCH  17  18
ATOM     18  O   ALA A   1       7.279   5.495  19.893  0.00  0.00    +0.000 OA
ATOM     19  H   ALA A   1       6.658   6.194  20.159  0.00  0.00    +0.000 HD
ENDBRANCH  17  18
ENDBRANCH  16  17
ENDBRANCH  13  16
ENDBRANCH   1  13
BRANCH   3  20
ATOM     20  S   UNK A   0       4.021   3.083  18.123  0.00  0.00    +0.000 S 
BRANCH  20  21
ATOM     21  C   UNK A   0       2.400   3.855  17.833  0.00  0.00    +0.000 C 
BRANCH  21  22
ATOM     22  C   UNK A   0       2.256   5.143  18.626  0.00  0.00    +0.000 A 
ATOM     23  C   UNK A   0       1.867   5.114  19.974  0.00  0.00    +0.000 A 
ATOM     24  C   UNK A   0       1.723   6.299  20.704  0.00  0.00    +0.000 A 
ATOM     25  C   UNK A   0       1.960   7.529  20.095  0.00  0.00    +0.000 A 
ATOM     26  C   UNK A   0       2.336   7.575  18.755  0.00  0.00    +0.000 A 
ATOM     27  C   UNK A   0       2.480   6.392  18.022  0.00  0.00    +0.000 A 
ENDBRANCH  21  22
ENDBRANCH  20  21
ENDBRANCH   3  20
TORSDOF 7
ENDMDL
MODEL 5
REMARK VINA RESULT:      -7.4      1.395      3.987
REMARK  Name = 
REMARK  8 active torsions:
REMARK  status: ('A' for Active; 'I' for Inactive)
REMARK    1  A    between atoms: CB_1  and  CA_2
REMARK    2  A    between atoms: CA_2  and  C_3
REMARK    3  A    between atoms: CA_2  and  N_5
REMARK    4  A    between atoms: C_3  and  O_4
REMARK    5  A    between atoms: N_5  and  C_6
REMARK    6  A    between atoms: C_8  and  S_9
REMARK    7  A    between atoms: S_9  and  C_10
REMARK    8  A    between atoms: C_10  and  C_11
REMARK                            x       y       z     vdW  Elec       q    Type
REMARK                         _______ _______ _______ _____ _____    ______ ____
ROOT
ATOM      1  C   UNK A   0       6.721   5.200  16.531  0.00  0.00    +0.000 A 
ATOM      2  N   UNK A   0       5.843   4.584  17.356  0.00  0.00    +0.000 NA
ATOM      3  C   UNK A   0       4.938   3.727  16.801  0.00  0.00    +0.000 A 
ATOM      4  N   UNK A   0       4.862   3.396  15.495  0.00  0.00    +0.000 NA
ATOM      5  C   UNK A   0       5.760   4.012  14.743  0.00  0.00    +0.000 A 
ATOM      6  N   UNK A   0       5.986   3.820  13.384  0.00  0.00    +0.000 N 
ATOM      7  C   UNK A   0       7.075   4.609  12.990  0.00  0.00    +0.000 A 
ATOM      8  O   UNK A   0       7.574   4.658  11.880  0.00  0.00    +0.000 OA
ATOM      9  N   UNK A   0       7.494   5.314  14.126  0.00  0.00    +0.000 N 
ATOM     10  C   UNK A   0       6.685   4.925  15.189  0.00  0.00    +0.000 A 
ATOM     11  H   UNK A   0       5.499   3.167  12.797  0.00  0.00    +0.000 HD
ATOM     12  H   UNK A   0       8.304   5.911  14.172  0.00  0.00    +0.000 HD
ENDROOT
BRANCH   1  13
ATOM     13  N   ALA A   1       7.714   6.041  17.006  0.00  0.00    +0.000 N 
ATOM     14  H   ALA A   1       8.396   6.352  16.318  0.00  0.00    +0.000 HD
BRANCH  13  16
ATOM     15  CB  ALA A   1       8.093   8.327  17.856  0.00  0.00    +0.000 C 
ATOM     16  CA  ALA A   1       7.503   6.948  18.126  0.00  0.00    +0.000 C 
BRANCH  16  17
ATOM     17  C   ALA A   1       8.162   6.301  19.370  0.00  0.00    +0.000 C 
BRANCH  17  18
ATOM     18  O   ALA A   1       7.299   5.340  19.988  0.00  0.00    +0.000 OA
ATOM     19  H   ALA A   1       7.311   4.540  19.437  0.00  0.00    +0.000 HD
ENDBRANCH  17  18
ENDBRANCH  16  17
ENDBRANCH  13  16
ENDBRANCH   1  13
BRANCH   3  20
ATOM     20  S   UNK A   0       3.813   2.836  17.858  0.00  0.00    +0.000 S 
BRANCH  20  21
ATOM     21  C   UNK A   0       2.259   3.741  17.587  0.00  0.00    +0.000 C 
BRANCH  21  22
ATOM     22  C   UNK A   0       2.177   4.969  18.478  0.00  0.00    +0.000 A 
ATOM     23  C   UNK A   0       2.508   6.239  17.978  0.00  0.00    +0.000 A 
ATOM     24  C   UNK A   0       2.444   7.371  18.798  0.00  0.00    +0.000 A 
ATOM     25  C   UNK A   0       2.054   7.248  20.130  0.00  0.00    +0.000 A 
ATOM     26  C   UNK A   0       1.733   5.995  20.644  0.00  0.00    +0.000 A 
ATOM     27  C   UNK A   0       1.797   4.861  19.826  0.00  0.00    +0.000 A 
ENDBRANCH  21  22
ENDBRANCH  20  21
ENDBRANCH   3  20
TORSDOF 7
ENDMDL
MODEL 6
REMARK VINA RESULT:      -7.4      3.489      6.309
REMARK  Name = 
REMARK  8 active torsions:
REMARK  status: ('A' for Active; 'I' for Inactive)
REMARK    1  A    between atoms: CB_1  and  CA_2
REMARK    2  A    between atoms: CA_2  and  C_3
REMARK    3  A    between atoms: CA_2  and  N_5
REMARK    4  A    between atoms: C_3  and  O_4
REMARK    5  A    between atoms: N_5  and  C_6
REMARK    6  A    between atoms: C_8  and  S_9
REMARK    7  A    between atoms: S_9  and  C_10
REMARK    8  A    between atoms: C_10  and  C_11
REMARK                            x       y       z     vdW  Elec       q    Type
REMARK                         _______ _______ _______ _____ _____    ______ ____
ROOT
ATOM      1  C   UNK A   0       3.385   6.000  19.070  0.00  0.00    +0.000 A 
ATOM      2  N   UNK A   0       3.918   5.838  17.837  0.00  0.00    +0.000 NA
ATOM      3  C   UNK A   0       4.174   4.566  17.413  0.00  0.00    +0.000 A 
ATOM      4  N   UNK A   0       3.900   3.435  18.099  0.00  0.00    +0.000 NA
ATOM      5  C   UNK A   0       3.360   3.658  19.286  0.00  0.00    +0.000 A 
ATOM      6  N   UNK A   0       2.894   2.704  20.185  0.00  0.00    +0.000 N 
ATOM      7  C   UNK A   0       2.326   3.358  21.286  0.00  0.00    +0.000 A 
ATOM      8  O   UNK A   0       1.786   2.834  22.244  0.00  0.00    +0.000 OA
ATOM      9  N   UNK A   0       2.479   4.733  21.062  0.00  0.00    +0.000 N 
ATOM     10  C   UNK A   0       3.101   4.894  19.828  0.00  0.00    +0.000 A 
ATOM     11  H   UNK A   0       2.896   1.711  20.036  0.00  0.00    +0.000 HD
ATOM     12  H   UNK A   0       2.106   5.461  21.649  0.00  0.00    +0.000 HD
ENDROOT
BRANCH   1  13
ATOM     13  N   ALA A   1       3.036   7.246  19.564  0.00  0.00    +0.000 N 
ATOM     14  H   ALA A   1       3.812   7.856  19.808  0.00  0.00    +0.000 HD
BRANCH  13  16
ATOM     15  CB  ALA A   1       2.052   8.960  18.086  0.00  0.00    +0.000 C 
ATOM     16  CA  ALA A   1       1.807   7.926  19.178  0.00  0.00    +0.000 C 
BRANCH  16  17
ATOM     17  C   ALA A   1       1.236   8.598  20.453  0.00  0.00    +0.000 C 
BRANCH  17  18
ATOM     18  O   ALA A   1       1.668   7.930  21.643  0.00  0.00    +0.000 OA
ATOM     19  H   ALA A   1       1.908   7.020  21.397  0.00  0.00    +0.000 HD
ENDBRANCH  17  18
ENDBRANCH  16  17
ENDBRANCH  13  16
ENDBRANCH   1  13
BRANCH   3  20
ATOM     20  S   UNK A   0       4.805   4.300  15.768  0.00  0.00    +0.000 S 
BRANCH  20  21
ATOM     21  C   UNK A   0       6.580   4.069  16.088  0.00  0.00    +0.000 C 
BRANCH  21  22
ATOM     22  C   UNK A   0       7.120   5.157  17.000  0.00  0.00    +0.000 A 
ATOM     23  C   UNK A   0       7.586   4.846  18.287  0.00  0.00    +0.000 A 
ATOM     24  C   UNK A   0       8.073   5.848  19.135  0.00  0.00    +0.000 A 
ATOM     25  C   UNK A   0       8.097   7.174  18.709  0.00  0.00    +0.000 A 
ATOM     26  C   UNK A   0       7.627   7.500  17.439  0.00  0.00    +0.000 A 
ATOM     27  C   UNK A   0       7.138   6.501  16.590  0.00  0.00    +0.000 A 
ENDBRANCH  21  22
ENDBRANCH  20  21
ENDBRANCH   3  20
TORSDOF 7
ENDMDL
MODEL 7
REMARK VINA RESULT:      -7.4      3.489      6.238
REMARK  Name = 
REMARK  8 active torsions:
REMARK  status: ('A' for Active; 'I' for Inactive)
REMARK    1  A    between atoms: CB_1  and  CA_2
REMARK    2  A    between atoms: CA_2  and  C_3
REMARK    3  A    between atoms: CA_2  and  N_5
REMARK    4  A    between atoms: C_3  and  O_4
REMARK    5  A    between atoms: N_5  and  C_6
REMARK    6  A    between atoms: C_8  and  S_9
REMARK    7  A    between atoms: S_9  and  C_10
REMARK    8  A    between atoms: C_10  and  C_11
REMARK                            x       y       z     vdW  Elec       q    Type
REMARK                         _______ _______ _______ _____ _____    ______ ____
ROOT
ATOM      1  C   UNK A   0       3.397   6.079  19.015  0.00  0.00    +0.000 A 
ATOM      2  N   UNK A   0       3.934   5.908  17.785  0.00  0.00    +0.000 NA
ATOM      3  C   UNK A   0       4.191   4.632  17.372  0.00  0.00    +0.000 A 
ATOM      4  N   UNK A   0       3.916   3.507  18.066  0.00  0.00    +0.000 NA
ATOM      5  C   UNK A   0       3.373   3.739  19.250  0.00  0.00    +0.000 A 
ATOM      6  N   UNK A   0       2.905   2.792  20.155  0.00  0.00    +0.000 N 
ATOM      7  C   UNK A   0       2.335   3.455  21.250  0.00  0.00    +0.000 A 
ATOM      8  O   UNK A   0       1.792   2.938  22.210  0.00  0.00    +0.000 OA
ATOM      9  N   UNK A   0       2.487   4.828  21.015  0.00  0.00    +0.000 N 
ATOM     10  C   UNK A   0       3.113   4.979  19.781  0.00  0.00    +0.000 A 
ATOM     11  H   UNK A   0       2.908   1.798  20.014  0.00  0.00    +0.000 HD
ATOM     12  H   UNK A   0       2.112   5.560  21.595  0.00  0.00    +0.000 HD
ENDROOT
BRANCH   1  13
ATOM     13  N   ALA A   1       3.047   7.329  19.499  0.00  0.00    +0.000 N 
ATOM     14  H   ALA A   1       3.822   7.955  19.705  0.00  0.00    +0.000 HD
BRANCH  13  16
ATOM     15  CB  ALA A   1       1.996   9.034  18.057  0.00  0.00    +0.000 C 
ATOM     16  CA  ALA A   1       1.796   7.985  19.143  0.00  0.00    +0.000 C 
BRANCH  16  17
ATOM     17  C   ALA A   1       1.233   8.630  20.435  0.00  0.00    +0.000 C 
BRANCH  17  18
ATOM     18  O   ALA A   1       1.589   7.879  21.601  0.00  0.00    +0.000 OA
ATOM     19  H   ALA A   1       0.819   7.879  22.195  0.00  0.00    +0.000 HD
ENDBRANCH  17  18
ENDBRANCH  16  17
ENDBRANCH  13  16
ENDBRANCH   1  13
BRANCH   3  20
ATOM     20  S   UNK A   0       4.826   4.354  15.730  0.00  0.00    +0.000 S 
BRANCH  20  21
ATOM     21  C   UNK A   0       6.601   4.127  16.057  0.00  0.00    +0.000 C 
BRANCH  21  22
ATOM     22  C   UNK A   0       7.126   5.195  17.001  0.00  0.00    +0.000 A 
ATOM     23  C   UNK A   0       7.199   6.536  16.593  0.00  0.00    +0.000 A 
ATOM     24  C   UNK A   0       7.692   7.522  17.456  0.00  0.00    +0.000 A 
ATOM     25  C   UNK A   0       8.125   7.178  18.735  0.00  0.00    +0.000 A 
ATOM     26  C   UNK A   0       8.071   5.851  19.150  0.00  0.00    +0.000 A 
ATOM     27  C   UNK A   0       7.578   4.863  18.289  0.00  0.00    +0.000 A 
ENDBRANCH  21  22
ENDBRANCH  20  21
ENDBRANCH   3  20
TORSDOF 7
ENDMDL
MODEL 8
REMARK VINA RESULT:      -7.4      0.666      1.200
REMARK  Name = 
REMARK  8 active torsions:
REMARK  status: ('A' for Active; 'I' for Inactive)
REMARK    1  A    between atoms: CB_1  and  CA_2
REMARK    2  A    between atoms: CA_2  and  C_3
REMARK    3  A    between atoms: CA_2  and  N_5
REMARK    4  A    between atoms: C_3  and  O_4
REMARK    5  A    between atoms: N_5  and  C_6
REMARK    6  A    between atoms: C_8  and  S_9
REMARK    7  A    between atoms: S_9  and  C_10
REMARK    8  A    between atoms: C_10  and  C_11
REMARK                            x       y       z     vdW  Elec       q    Type
REMARK                         _______ _______ _______ _____ _____    ______ ____
ROOT
ATOM      1  C   UNK A   0       5.907   4.796  15.869  0.00  0.00    +0.000 A 
ATOM      2  N   UNK A   0       4.973   3.869  16.184  0.00  0.00    +0.000 NA
ATOM      3  C   UNK A   0       4.765   3.595  17.505  0.00  0.00    +0.000 A 
ATOM      4  N   UNK A   0       5.379   4.201  18.543  0.00  0.00    +0.000 NA
ATOM      5  C   UNK A   0       6.263   5.112  18.172  0.00  0.00    +0.000 A 
ATOM      6  N   UNK A   0       6.992   5.957  19.002  0.00  0.00    +0.000 N 
ATOM      7  C   UNK A   0       7.756   6.823  18.210  0.00  0.00    +0.000 A 
ATOM      8  O   UNK A   0       8.481   7.720  18.603  0.00  0.00    +0.000 OA
ATOM      9  N   UNK A   0       7.508   6.475  16.876  0.00  0.00    +0.000 N 
ATOM     10  C   UNK A   0       6.583   5.435  16.875  0.00  0.00    +0.000 A 
ATOM     11  H   UNK A   0       6.925   5.992  20.004  0.00  0.00    +0.000 HD
ATOM     12  H   UNK A   0       7.862   6.967  16.072  0.00  0.00    +0.000 HD
ENDROOT
BRANCH   1  13
ATOM     13  N   ALA A   1       6.148   5.185  14.561  0.00  0.00    +0.000 N 
ATOM     14  H   ALA A   1       6.008   6.171  14.361  0.00  0.00    +0.000 HD
BRANCH  13  16
ATOM     15  CB  ALA A   1       8.041   5.498  13.009  0.00  0.00    +0.000 C 
ATOM     16  CA  ALA A   1       7.118   4.509  13.709  0.00  0.00    +0.000 C 
BRANCH  16  17
ATOM     17  C   ALA A   1       6.318   3.675  12.677  0.00  0.00    +0.000 C 
BRANCH  17  18
ATOM     18  O   ALA A   1       4.909   3.731  12.927  0.00  0.00    +0.000 OA
ATOM     19  H   ALA A   1       4.784   3.740  13.891  0.00  0.00    +0.000 HD
ENDBRANCH  17  18
ENDBRANCH  16  17
ENDBRANCH  13  16
ENDBRANCH   1  13
BRANCH   3  20
ATOM     20  S   UNK A   0       3.492   2.437  17.970  0.00  0.00    +0.000 S 
BRANCH  20  21
ATOM     21  C   UNK A   0       1.987   3.430  17.732  0.00  0.00    +0.000 C 
BRANCH  21  22
ATOM     22  C   UNK A   0       2.038   4.709  18.551  0.00  0.00    +0.000 A 
ATOM     23  C   UNK A   0       1.745   4.692  19.923  0.00  0.00    +0.000 A 
ATOM     24  C   UNK A   0       1.781   5.870  20.679  0.00  0.00    +0.000 A 
ATOM     25  C   UNK A   0       2.104   7.080  20.071  0.00  0.00    +0.000 A 
ATOM     26  C   UNK A   0       2.386   7.117  18.708  0.00  0.00    +0.000 A 
ATOM     27  C   UNK A   0       2.350   5.940  17.950  0.00  0.00    +0.000 A 
ENDBRANCH  21  22
ENDBRANCH  20  21
ENDBRANCH   3  20
TORSDOF 7
ENDMDL
MODEL 9
REMARK VINA RESULT:      -7.3      3.659      5.420
REMARK  Name = 
REMARK  8 active torsions:
REMARK  status: ('A' for Active; 'I' for Inactive)
REMARK    1  A    between atoms: CB_1  and  CA_2
REMARK    2  A    between atoms: CA_2  and  C_3
REMARK    3  A    between atoms: CA_2  and  N_5
REMARK    4  A    between atoms: C_3  and  O_4
REMARK    5  A    between atoms: N_5  and  C_6
REMARK    6  A    between atoms: C_8  and  S_9
REMARK    7  A    between atoms: S_9  and  C_10
REMARK    8  A    between atoms: C_10  and  C_11
REMARK                            x       y       z     vdW  Elec       q    Type
REMARK                         _______ _______ _______ _____ _____    ______ ____
ROOT
ATOM      1  C   UNK A   0       3.811   4.876  18.987  0.00  0.00    +0.000 A 
ATOM      2  N   UNK A   0       2.927   5.885  18.808  0.00  0.00    +0.000 NA
ATOM      3  C   UNK A   0       3.340   6.980  18.106  0.00  0.00    +0.000 A 
ATOM      4  N   UNK A   0       4.549   7.135  17.526  0.00  0.00    +0.000 NA
ATOM      5  C   UNK A   0       5.360   6.107  17.716  0.00  0.00    +0.000 A 
ATOM      6  N   UNK A   0       6.632   5.934  17.179  0.00  0.00    +0.000 N 
ATOM      7  C   UNK A   0       7.119   4.678  17.562  0.00  0.00    +0.000 A 
ATOM      8  O   UNK A   0       8.183   4.181  17.238  0.00  0.00    +0.000 OA
ATOM      9  N   UNK A   0       6.135   4.093  18.371  0.00  0.00    +0.000 N 
ATOM     10  C   UNK A   0       5.063   4.978  18.441  0.00  0.00    +0.000 A 
ATOM     11  H   UNK A   0       7.094   6.572  16.556  0.00  0.00    +0.000 HD
ATOM     12  H   UNK A   0       6.169   3.157  18.741  0.00  0.00    +0.000 HD
ENDROOT
BRANCH   1  13
ATOM     13  N   ALA A   1       3.466   3.701  19.634  0.00  0.00    +0.000 N 
ATOM     14  H   ALA A   1       4.166   3.326  20.269  0.00  0.00    +0.000 HD
BRANCH  13  16
ATOM     15  CB  ALA A   1       1.929   2.967  21.421  0.00  0.00    +0.000 C 
ATOM     16  CA  ALA A   1       2.087   3.359  19.956  0.00  0.00    +0.000 C 
BRANCH  16  17
ATOM     17  C   ALA A   1       1.677   2.189  19.027  0.00  0.00    +0.000 C 
BRANCH  17  18
ATOM     18  O   ALA A   1       0.325   2.320  18.574  0.00  0.00    +0.000 OA
ATOM     19  H   ALA A   1       0.350   2.716  17.687  0.00  0.00    +0.000 HD
ENDBRANCH  17  18
ENDBRANCH  16  17
ENDBRANCH  13  16
ENDBRANCH   1  13
BRANCH   3  20
ATOM     20  S   UNK A   0       2.187   8.299  17.781  0.00  0.00    +0.000 S 
BRANCH  20  21
ATOM     21  C   UNK A   0       1.627   8.719  19.459  0.00  0.00    +0.000 C 
BRANCH  21  22
ATOM     22  C   UNK A   0       0.490   9.726  19.422  0.00  0.00    +0.000 A 
ATOM     23  C   UNK A   0      -0.250   9.927  18.246  0.00  0.00    +0.000 A 
ATOM     24  C   UNK A   0      -1.291  10.862  18.205  0.00  0.00    +0.000 A 
ATOM     25  C   UNK A   0      -1.603  11.611  19.337  0.00  0.00    +0.000 A 
ATOM     26  C   UNK A   0      -0.871  11.432  20.508  0.00  0.00    +0.000 A 
ATOM     27  C   UNK A   0       0.171  10.498  20.552  0.00  0.00    +0.000 A 
ENDBRANCH  21  22
ENDBRANCH  20  21
ENDBRANCH   3  20
TORSDOF 7
ENDMDL
