MODEL 1
REMARK VINA RESULT:      -6.9      0.000      0.000
REMARK  Name = 
REMARK  3 active torsions:
REMARK  status: ('A' for Active; 'I' for Inactive)
REMARK    1  A    between atoms: C_2  and  C_3
REMARK    2  A    between atoms: N_13  and  S_14
REMARK    3  A    between atoms: S_14  and  C_17
REMARK                            x       y       z     vdW  Elec       q    Type
REMARK                         _______ _______ _______ _____ _____    ______ ____
ROOT
ATOM      1  O   UNL     1       2.442   8.263  17.085  0.00  0.00    +0.000 OA
ATOM      2  C   UNL     1       2.334   7.834  18.235  0.00  0.00    +0.000 C 
ATOM      3  N   UNL     1       1.656   8.509  19.238  0.00  0.00    +0.000 N 
ATOM      4  C   UNL     1       1.164   9.870  18.971  0.00  0.00    +0.000 C 
ATOM      5  C   UNL     1      -0.258  10.088  19.531  0.00  0.00    +0.000 C 
ATOM      6  N   UNL     1      -0.385   9.659  20.964  0.00  0.00    +0.000 NA
ATOM      7  C   UNL     1       0.019   8.224  21.076  0.00  0.00    +0.000 C 
ATOM      8  C   UNL     1       1.456   8.021  20.609  0.00  0.00    +0.000 C 
ENDROOT
BRANCH   2   9
ATOM      9  C   UNL     1       2.878   6.458  18.484  0.00  0.00    +0.000 A 
ATOM     10  C   UNL     1       4.100   6.352  19.165  0.00  0.00    +0.000 A 
ATOM     11  C   UNL     1       4.688   5.098  19.358  0.00  0.00    +0.000 A 
ATOM     12  C   UNL     1       4.079   3.952  18.842  0.00  0.00    +0.000 A 
ATOM     13  C   UNL     1       2.864   4.054  18.172  0.00  0.00    +0.000 A 
ATOM     14  C   UNL     1       2.251   5.298  18.039  0.00  0.00    +0.000 A 
ATOM     15  F   UNL     1       1.057   5.338  17.429  0.00  0.00    +0.000 F 
ENDBRANCH   2   9
BRANCH   6  16
ATOM     16  S   UNL     1       0.322  10.663  22.157  0.00  0.00    +0.000 S 
ATOM     17  O   UNL     1       0.519   9.857  23.341  0.00  0.00    +0.000 OA
ATOM     18  O   UNL     1       1.416  11.386  21.555  0.00  0.00    +0.000 OA
BRANCH  16  19
ATOM     19  C   UNL     1      -0.952  11.832  22.544  0.00  0.00    +0.000 A 
ATOM     20  C   UNL     1      -2.119  11.376  23.166  0.00  0.00    +0.000 A 
ATOM     21  C   UNL     1      -3.079  12.300  23.581  0.00  0.00    +0.000 A 
ATOM     22  C   UNL     1      -2.859  13.664  23.384  0.00  0.00    +0.000 A 
ATOM     23 BR   UNL     1      -4.138  14.917  23.992  0.00  0.00    +0.000 Br
ATOM     24  C   UNL     1      -1.693  14.116  22.763  0.00  0.00    +0.000 A 
ATOM     25  C   UNL     1      -0.734  13.196  22.337  0.00  0.00    +0.000 A 
ENDBRANCH  16  19
ENDBRANCH   6  16
TORSDOF 3
ENDMDL
MODEL 2
REMARK VINA RESULT:      -6.9      0.327      1.006
REMARK  Name = 
REMARK  3 active torsions:
REMARK  status: ('A' for Active; 'I' for Inactive)
REMARK    1  A    between atoms: C_2  and  C_3
REMARK    2  A    between atoms: N_13  and  S_14
REMARK    3  A    between atoms: S_14  and  C_17
REMARK                            x       y       z     vdW  Elec       q    Type
REMARK                         _______ _______ _______ _____ _____    ______ ____
ROOT
ATOM      1  O   UNL     1       2.523   8.241  17.094  0.00  0.00    +0.000 OA
ATOM      2  C   UNL     1       2.405   7.816  18.245  0.00  0.00    +0.000 C 
ATOM      3  N   UNL     1       1.710   8.489  19.237  0.00  0.00    +0.000 N 
ATOM      4  C   UNL     1       1.210   9.845  18.959  0.00  0.00    +0.000 C 
ATOM      5  C   UNL     1      -0.220  10.052  19.502  0.00  0.00    +0.000 C 
ATOM      6  N   UNL     1      -0.360   9.628  20.935  0.00  0.00    +0.000 NA
ATOM      7  C   UNL     1       0.055   8.197  21.058  0.00  0.00    +0.000 C 
ATOM      8  C   UNL     1       1.499   8.005  20.608  0.00  0.00    +0.000 C 
ENDROOT
BRANCH   2   9
ATOM      9  C   UNL     1       2.958   6.445  18.505  0.00  0.00    +0.000 A 
ATOM     10  C   UNL     1       4.190   6.354  19.171  0.00  0.00    +0.000 A 
ATOM     11  C   UNL     1       4.785   5.105  19.374  0.00  0.00    +0.000 A 
ATOM     12  C   UNL     1       4.174   3.950  18.882  0.00  0.00    +0.000 A 
ATOM     13  C   UNL     1       2.949   4.038  18.226  0.00  0.00    +0.000 A 
ATOM     14  C   UNL     1       2.330   5.277  18.084  0.00  0.00    +0.000 A 
ATOM     15  F   UNL     1       1.128   5.304  17.491  0.00  0.00    +0.000 F 
ENDBRANCH   2   9
BRANCH   6  16
ATOM     16  S   UNL     1       0.326  10.643  22.132  0.00  0.00    +0.000 S 
ATOM     17  O   UNL     1       0.489   9.850  23.331  0.00  0.00    +0.000 OA
ATOM     18  O   UNL     1       1.438  11.351  21.547  0.00  0.00    +0.000 OA
BRANCH  16  19
ATOM     19  C   UNL     1      -0.950  11.824  22.475  0.00  0.00    +0.000 A 
ATOM     20  C   UNL     1      -0.907  13.068  21.836  0.00  0.00    +0.000 A 
ATOM     21  C   UNL     1      -1.964  13.962  22.007  0.00  0.00    +0.000 A 
ATOM     22  C   UNL     1      -3.057  13.601  22.799  0.00  0.00    +0.000 A 
ATOM     23 BR   UNL     1      -4.512  14.794  22.988  0.00  0.00    +0.000 Br
ATOM     24  C   UNL     1      -3.097  12.359  23.435  0.00  0.00    +0.000 A 
ATOM     25  C   UNL     1      -2.037  11.464  23.275  0.00  0.00    +0.000 A 
ENDBRANCH  16  19
ENDBRANCH   6  16
TORSDOF 3
ENDMDL
MODEL 3
REMARK VINA RESULT:      -6.7      7.208      8.298
REMARK  Name = 
REMARK  3 active torsions:
REMARK  status: ('A' for Active; 'I' for Inactive)
REMARK    1  A    between atoms: C_2  and  C_3
REMARK    2  A    between atoms: N_13  and  S_14
REMARK    3  A    between atoms: S_14  and  C_17
REMARK                            x       y       z     vdW  Elec       q    Type
REMARK                         _______ _______ _______ _____ _____    ______ ____
ROOT
ATOM      1  O   UNL     1       2.904   3.062  16.740  0.00  0.00    +0.000 OA
ATOM      2  C   UNL     1       3.343   3.651  17.729  0.00  0.00    +0.000 C 
ATOM      3  N   UNL     1       4.297   4.655  17.654  0.00  0.00    +0.000 N 
ATOM      4  C   UNL     1       4.930   4.939  16.356  0.00  0.00    +0.000 C 
ATOM      5  C   UNL     1       5.068   6.455  16.104  0.00  0.00    +0.000 C 
ATOM      6  N   UNL     1       5.690   7.179  17.262  0.00  0.00    +0.000 NA
ATOM      7  C   UNL     1       4.879   6.914  18.489  0.00  0.00    +0.000 C 
ATOM      8  C   UNL     1       4.817   5.421  18.794  0.00  0.00    +0.000 C 
ENDROOT
BRANCH   2   9
ATOM      9  C   UNL     1       2.702   3.312  19.042  0.00  0.00    +0.000 A 
ATOM     10  C   UNL     1       1.385   3.745  19.256  0.00  0.00    +0.000 A 
ATOM     11  C   UNL     1       0.765   3.520  20.490  0.00  0.00    +0.000 A 
ATOM     12  C   UNL     1       1.468   2.896  21.523  0.00  0.00    +0.000 A 
ATOM     13  C   UNL     1       2.773   2.460  21.310  0.00  0.00    +0.000 A 
ATOM     14  C   UNL     1       3.362   2.629  20.059  0.00  0.00    +0.000 A 
ATOM     15  F   UNL     1       4.601   2.147  19.888  0.00  0.00    +0.000 F 
ENDBRANCH   2   9
BRANCH   6  16
ATOM     16  S   UNL     1       7.375   6.987  17.502  0.00  0.00    +0.000 S 
ATOM     17  O   UNL     1       7.554   6.134  18.656  0.00  0.00    +0.000 OA
ATOM     18  O   UNL     1       7.983   6.665  16.234  0.00  0.00    +0.000 OA
BRANCH  16  19
ATOM     19  C   UNL     1       7.927   8.603  17.975  0.00  0.00    +0.000 A 
ATOM     20  C   UNL     1       8.880   8.719  18.992  0.00  0.00    +0.000 A 
ATOM     21  C   UNL     1       9.409   9.974  19.295  0.00  0.00    +0.000 A 
ATOM     22  C   UNL     1       8.993  11.094  18.572  0.00  0.00    +0.000 A 
ATOM     23 BR   UNL     1       9.747  12.787  18.949  0.00  0.00    +0.000 Br
ATOM     24  C   UNL     1       8.041  10.975  17.557  0.00  0.00    +0.000 A 
ATOM     25  C   UNL     1       7.502   9.723  17.257  0.00  0.00    +0.000 A 
ENDBRANCH  16  19
ENDBRANCH   6  16
TORSDOF 3
ENDMDL
MODEL 4
REMARK VINA RESULT:      -6.6      1.006      1.274
REMARK  Name = 
REMARK  3 active torsions:
REMARK  status: ('A' for Active; 'I' for Inactive)
REMARK    1  A    between atoms: C_2  and  C_3
REMARK    2  A    between atoms: N_13  and  S_14
REMARK    3  A    between atoms: S_14  and  C_17
REMARK                            x       y       z     vdW  Elec       q    Type
REMARK                         _______ _______ _______ _____ _____    ______ ____
ROOT
ATOM      1  O   UNL     1       2.521   8.173  17.133  0.00  0.00    +0.000 OA
ATOM      2  C   UNL     1       2.393   7.809  18.303  0.00  0.00    +0.000 C 
ATOM      3  N   UNL     1       1.690   8.535  19.252  0.00  0.00    +0.000 N 
ATOM      4  C   UNL     1       1.193   9.874  18.899  0.00  0.00    +0.000 C 
ATOM      5  C   UNL     1      -0.241  10.110  19.417  0.00  0.00    +0.000 C 
ATOM      6  N   UNL     1      -0.394   9.763  20.869  0.00  0.00    +0.000 NA
ATOM      7  C   UNL     1       0.019   8.340  21.071  0.00  0.00    +0.000 C 
ATOM      8  C   UNL     1       1.466   8.123  20.645  0.00  0.00    +0.000 C 
ENDROOT
BRANCH   2   9
ATOM      9  C   UNL     1       2.942   6.454  18.640  0.00  0.00    +0.000 A 
ATOM     10  C   UNL     1       2.070   5.521  19.221  0.00  0.00    +0.000 A 
ATOM     11  C   UNL     1       2.549   4.270  19.621  0.00  0.00    +0.000 A 
ATOM     12  C   UNL     1       3.903   3.959  19.477  0.00  0.00    +0.000 A 
ATOM     13  C   UNL     1       4.768   4.881  18.896  0.00  0.00    +0.000 A 
ATOM     14  C   UNL     1       4.274   6.100  18.440  0.00  0.00    +0.000 A 
ATOM     15  F   UNL     1       5.136   6.934  17.841  0.00  0.00    +0.000 F 
ENDBRANCH   2   9
BRANCH   6  16
ATOM     16  S   UNL     1       0.281  10.839  22.017  0.00  0.00    +0.000 S 
ATOM     17  O   UNL     1       0.554  10.079  23.217  0.00  0.00    +0.000 OA
ATOM     18  O   UNL     1       1.317  11.607  21.368  0.00  0.00    +0.000 OA
BRANCH  16  19
ATOM     19  C   UNL     1      -1.050  11.942  22.406  0.00  0.00    +0.000 A 
ATOM     20  C   UNL     1      -2.087  11.485  23.225  0.00  0.00    +0.000 A 
ATOM     21  C   UNL     1      -3.080  12.376  23.633  0.00  0.00    +0.000 A 
ATOM     22  C   UNL     1      -3.020  13.712  23.233  0.00  0.00    +0.000 A 
ATOM     23 BR   UNL     1      -4.339  14.930  23.828  0.00  0.00    +0.000 Br
ATOM     24  C   UNL     1      -1.983  14.165  22.415  0.00  0.00    +0.000 A 
ATOM     25  C   UNL     1      -0.992  13.277  21.996  0.00  0.00    +0.000 A 
ENDBRANCH  16  19
ENDBRANCH   6  16
TORSDOF 3
ENDMDL
MODEL 5
REMARK VINA RESULT:      -6.6      1.067      1.622
REMARK  Name = 
REMARK  3 active torsions:
REMARK  status: ('A' for Active; 'I' for Inactive)
REMARK    1  A    between atoms: C_2  and  C_3
REMARK    2  A    between atoms: N_13  and  S_14
REMARK    3  A    between atoms: S_14  and  C_17
REMARK                            x       y       z     vdW  Elec       q    Type
REMARK                         _______ _______ _______ _____ _____    ______ ____
ROOT
ATOM      1  O   UNL     1       2.310   8.423  17.057  0.00  0.00    +0.000 OA
ATOM      2  C   UNL     1       2.291   7.997  18.213  0.00  0.00    +0.000 C 
ATOM      3  N   UNL     1       1.604   8.623  19.242  0.00  0.00    +0.000 N 
ATOM      4  C   UNL     1       0.986   9.934  18.990  0.00  0.00    +0.000 C 
ATOM      5  C   UNL     1      -0.422  10.036  19.613  0.00  0.00    +0.000 C 
ATOM      6  N   UNL     1      -0.448   9.612  21.052  0.00  0.00    +0.000 NA
ATOM      7  C   UNL     1       0.082   8.217  21.155  0.00  0.00    +0.000 C 
ATOM      8  C   UNL     1       1.508   8.132  20.623  0.00  0.00    +0.000 C 
ENDROOT
BRANCH   2   9
ATOM      9  C   UNL     1       2.961   6.675  18.445  0.00  0.00    +0.000 A 
ATOM     10  C   UNL     1       2.204   5.654  19.038  0.00  0.00    +0.000 A 
ATOM     11  C   UNL     1       2.800   4.426  19.343  0.00  0.00    +0.000 A 
ATOM     12  C   UNL     1       4.159   4.226  19.090  0.00  0.00    +0.000 A 
ATOM     13  C   UNL     1       4.910   5.235  18.495  0.00  0.00    +0.000 A 
ATOM     14  C   UNL     1       4.296   6.432  18.135  0.00  0.00    +0.000 A 
ATOM     15  F   UNL     1       5.050   7.354  17.518  0.00  0.00    +0.000 F 
ENDBRANCH   2   9
BRANCH   6  16
ATOM     16  S   UNL     1       0.224  10.684  22.206  0.00  0.00    +0.000 S 
ATOM     17  O   UNL     1       0.387   9.947  23.440  0.00  0.00    +0.000 OA
ATOM     18  O   UNL     1       1.336  11.372  21.596  0.00  0.00    +0.000 OA
BRANCH  16  19
ATOM     19  C   UNL     1      -1.061  11.871  22.489  0.00  0.00    +0.000 A 
ATOM     20  C   UNL     1      -1.002  13.100  21.824  0.00  0.00    +0.000 A 
ATOM     21  C   UNL     1      -2.064  13.996  21.947  0.00  0.00    +0.000 A 
ATOM     22  C   UNL     1      -3.176  13.652  22.718  0.00  0.00    +0.000 A 
ATOM     23 BR   UNL     1      -4.636  14.846  22.843  0.00  0.00    +0.000 Br
ATOM     24  C   UNL     1      -3.232  12.424  23.380  0.00  0.00    +0.000 A 
ATOM     25  C   UNL     1      -2.168  11.527  23.268  0.00  0.00    +0.000 A 
ENDBRANCH  16  19
ENDBRANCH   6  16
TORSDOF 3
ENDMDL
MODEL 6
REMARK VINA RESULT:      -6.5      1.589      2.094
REMARK  Name = 
REMARK  3 active torsions:
REMARK  status: ('A' for Active; 'I' for Inactive)
REMARK    1  A    between atoms: C_2  and  C_3
REMARK    2  A    between atoms: N_13  and  S_14
REMARK    3  A    between atoms: S_14  and  C_17
REMARK                            x       y       z     vdW  Elec       q    Type
REMARK                         _______ _______ _______ _____ _____    ______ ____
ROOT
ATOM      1  O   UNL     1       2.716   6.759  18.046  0.00  0.00    +0.000 OA
ATOM      2  C   UNL     1       2.270   6.655  19.191  0.00  0.00    +0.000 C 
ATOM      3  N   UNL     1       1.663   7.701  19.868  0.00  0.00    +0.000 N 
ATOM      4  C   UNL     1       1.675   9.042  19.261  0.00  0.00    +0.000 C 
ATOM      5  C   UNL     1       0.314   9.753  19.412  0.00  0.00    +0.000 C 
ATOM      6  N   UNL     1      -0.201   9.721  20.822  0.00  0.00    +0.000 NA
ATOM      7  C   UNL     1      -0.289   8.298  21.271  0.00  0.00    +0.000 C 
ATOM      8  C   UNL     1       1.074   7.618  21.211  0.00  0.00    +0.000 C 
ENDROOT
BRANCH   2   9
ATOM      9  C   UNL     1       2.307   5.282  19.794  0.00  0.00    +0.000 A 
ATOM     10  C   UNL     1       1.082   4.681  20.123  0.00  0.00    +0.000 A 
ATOM     11  C   UNL     1       1.062   3.433  20.754  0.00  0.00    +0.000 A 
ATOM     12  C   UNL     1       2.260   2.800  21.092  0.00  0.00    +0.000 A 
ATOM     13  C   UNL     1       3.476   3.392  20.761  0.00  0.00    +0.000 A 
ATOM     14  C   UNL     1       3.489   4.603  20.075  0.00  0.00    +0.000 A 
ATOM     15  F   UNL     1       4.683   5.108  19.733  0.00  0.00    +0.000 F 
ENDBRANCH   2   9
BRANCH   6  16
ATOM     16  S   UNL     1       0.551  10.752  21.963  0.00  0.00    +0.000 S 
ATOM     17  O   UNL     1       0.924   9.941  23.101  0.00  0.00    +0.000 OA
ATOM     18  O   UNL     1       1.524  11.564  21.273  0.00  0.00    +0.000 OA
BRANCH  16  19
ATOM     19  C   UNL     1      -0.757  11.817  22.506  0.00  0.00    +0.000 A 
ATOM     20  C   UNL     1      -0.725  13.166  22.138  0.00  0.00    +0.000 A 
ATOM     21  C   UNL     1      -1.805  13.989  22.460  0.00  0.00    +0.000 A 
ATOM     22  C   UNL     1      -2.908  13.456  23.130  0.00  0.00    +0.000 A 
ATOM     23 BR   UNL     1      -4.392  14.561  23.521  0.00  0.00    +0.000 Br
ATOM     24  C   UNL     1      -2.937  12.109  23.495  0.00  0.00    +0.000 A 
ATOM     25  C   UNL     1      -1.856  11.283  23.185  0.00  0.00    +0.000 A 
ENDBRANCH  16  19
ENDBRANCH   6  16
TORSDOF 3
ENDMDL
MODEL 7
REMARK VINA RESULT:      -6.4      1.487      1.589
REMARK  Name = 
REMARK  3 active torsions:
REMARK  status: ('A' for Active; 'I' for Inactive)
REMARK    1  A    between atoms: C_2  and  C_3
REMARK    2  A    between atoms: N_13  and  S_14
REMARK    3  A    between atoms: S_14  and  C_17
REMARK                            x       y       z     vdW  Elec       q    Type
REMARK                         _______ _______ _______ _____ _____    ______ ____
ROOT
ATOM      1  O   UNL     1       2.925   6.513  18.035  0.00  0.00    +0.000 OA
ATOM      2  C   UNL     1       2.289   6.502  19.091  0.00  0.00    +0.000 C 
ATOM      3  N   UNL     1       1.757   7.644  19.669  0.00  0.00    +0.000 N 
ATOM      4  C   UNL     1       2.082   8.955  19.084  0.00  0.00    +0.000 C 
ATOM      5  C   UNL     1       0.847   9.877  19.016  0.00  0.00    +0.000 C 
ATOM      6  N   UNL     1       0.111   9.953  20.323  0.00  0.00    +0.000 NA
ATOM      7  C   UNL     1      -0.276   8.571  20.740  0.00  0.00    +0.000 C 
ATOM      8  C   UNL     1       0.951   7.681  20.897  0.00  0.00    +0.000 C 
ENDROOT
BRANCH   2   9
ATOM      9  C   UNL     1       2.006   5.152  19.681  0.00  0.00    +0.000 A 
ATOM     10  C   UNL     1       2.388   4.928  21.012  0.00  0.00    +0.000 A 
ATOM     11  C   UNL     1       2.214   3.665  21.587  0.00  0.00    +0.000 A 
ATOM     12  C   UNL     1       1.692   2.616  20.828  0.00  0.00    +0.000 A 
ATOM     13  C   UNL     1       1.305   2.838  19.509  0.00  0.00    +0.000 A 
ATOM     14  C   UNL     1       1.422   4.113  18.962  0.00  0.00    +0.000 A 
ATOM     15  F   UNL     1       0.989   4.289  17.705  0.00  0.00    +0.000 F 
ENDBRANCH   2   9
BRANCH   6  16
ATOM     16  S   UNL     1       0.824  10.871  21.580  0.00  0.00    +0.000 S 
ATOM     17  O   UNL     1       1.181   9.953  22.639  0.00  0.00    +0.000 OA
ATOM     18  O   UNL     1       1.803  11.758  20.999  0.00  0.00    +0.000 OA
BRANCH  16  19
ATOM     19  C   UNL     1      -0.509  11.863  22.196  0.00  0.00    +0.000 A 
ATOM     20  C   UNL     1      -1.558  11.235  22.876  0.00  0.00    +0.000 A 
ATOM     21  C   UNL     1      -2.554  12.014  23.466  0.00  0.00    +0.000 A 
ATOM     22  C   UNL     1      -2.486  13.406  23.384  0.00  0.00    +0.000 A 
ATOM     23 BR   UNL     1      -3.809  14.462  24.226  0.00  0.00    +0.000 Br
ATOM     24  C   UNL     1      -1.437  14.029  22.704  0.00  0.00    +0.000 A 
ATOM     25  C   UNL     1      -0.443  13.255  22.104  0.00  0.00    +0.000 A 
ENDBRANCH  16  19
ENDBRANCH   6  16
TORSDOF 3
ENDMDL
MODEL 8
REMARK VINA RESULT:      -6.4      1.627      1.918
REMARK  Name = 
REMARK  3 active torsions:
REMARK  status: ('A' for Active; 'I' for Inactive)
REMARK    1  A    between atoms: C_2  and  C_3
REMARK    2  A    between atoms: N_13  and  S_14
REMARK    3  A    between atoms: S_14  and  C_17
REMARK                            x       y       z     vdW  Elec       q    Type
REMARK                         _______ _______ _______ _____ _____    ______ ____
ROOT
ATOM      1  O   UNL     1       3.220   6.612  17.903  0.00  0.00    +0.000 OA
ATOM      2  C   UNL     1       2.461   6.664  18.873  0.00  0.00    +0.000 C 
ATOM      3  N   UNL     1       1.882   7.841  19.322  0.00  0.00    +0.000 N 
ATOM      4  C   UNL     1       2.296   9.115  18.714  0.00  0.00    +0.000 C 
ATOM      5  C   UNL     1       1.092  10.044  18.450  0.00  0.00    +0.000 C 
ATOM      6  N   UNL     1       0.207  10.197  19.652  0.00  0.00    +0.000 NA
ATOM      7  C   UNL     1      -0.251   8.842  20.090  0.00  0.00    +0.000 C 
ATOM      8  C   UNL     1       0.935   7.950  20.440  0.00  0.00    +0.000 C 
ENDROOT
BRANCH   2   9
ATOM      9  C   UNL     1       2.087   5.350  19.493  0.00  0.00    +0.000 A 
ATOM     10  C   UNL     1       2.412   5.150  20.844  0.00  0.00    +0.000 A 
ATOM     11  C   UNL     1       2.151   3.917  21.450  0.00  0.00    +0.000 A 
ATOM     12  C   UNL     1       1.602   2.872  20.705  0.00  0.00    +0.000 A 
ATOM     13  C   UNL     1       1.273   3.071  19.368  0.00  0.00    +0.000 A 
ATOM     14  C   UNL     1       1.475   4.320  18.786  0.00  0.00    +0.000 A 
ATOM     15  F   UNL     1       1.096   4.477  17.510  0.00  0.00    +0.000 F 
ENDBRANCH   2   9
BRANCH   6  16
ATOM     16  S   UNL     1       0.778  11.174  20.937  0.00  0.00    +0.000 S 
ATOM     17  O   UNL     1       1.355  10.293  21.928  0.00  0.00    +0.000 OA
ATOM     18  O   UNL     1       1.535  12.267  20.378  0.00  0.00    +0.000 OA
BRANCH  16  19
ATOM     19  C   UNL     1      -0.698  11.846  21.653  0.00  0.00    +0.000 A 
ATOM     20  C   UNL     1      -1.462  12.746  20.903  0.00  0.00    +0.000 A 
ATOM     21  C   UNL     1      -2.683  13.193  21.408  0.00  0.00    +0.000 A 
ATOM     22  C   UNL     1      -3.135  12.727  22.644  0.00  0.00    +0.000 A 
ATOM     23 BR   UNL     1      -4.814  13.294  23.303  0.00  0.00    +0.000 Br
ATOM     24  C   UNL     1      -2.370  11.828  23.390  0.00  0.00    +0.000 A 
ATOM     25  C   UNL     1      -1.143  11.385  22.894  0.00  0.00    +0.000 A 
ENDBRANCH  16  19
ENDBRANCH   6  16
TORSDOF 3
ENDMDL
MODEL 9
REMARK VINA RESULT:      -6.4      5.828      7.256
REMARK  Name = 
REMARK  3 active torsions:
REMARK  status: ('A' for Active; 'I' for Inactive)
REMARK    1  A    between atoms: C_2  and  C_3
REMARK    2  A    between atoms: N_13  and  S_14
REMARK    3  A    between atoms: S_14  and  C_17
REMARK                            x       y       z     vdW  Elec       q    Type
REMARK                         _______ _______ _______ _____ _____    ______ ____
ROOT
ATOM      1  O   UNL     1       5.863   3.755  15.851  0.00  0.00    +0.000 OA
ATOM      2  C   UNL     1       5.632   4.230  16.965  0.00  0.00    +0.000 C 
ATOM      3  N   UNL     1       4.644   3.747  17.808  0.00  0.00    +0.000 N 
ATOM      4  C   UNL     1       3.723   2.715  17.305  0.00  0.00    +0.000 C 
ATOM      5  C   UNL     1       3.466   1.614  18.355  0.00  0.00    +0.000 C 
ATOM      6  N   UNL     1       3.089   2.172  19.697  0.00  0.00    +0.000 NA
ATOM      7  C   UNL     1       4.167   3.103  20.152  0.00  0.00    +0.000 C 
ATOM      8  C   UNL     1       4.360   4.244  19.161  0.00  0.00    +0.000 C 
ENDROOT
BRANCH   2   9
ATOM      9  C   UNL     1       6.567   5.306  17.433  0.00  0.00    +0.000 A 
ATOM     10  C   UNL     1       7.481   4.982  18.447  0.00  0.00    +0.000 A 
ATOM     11  C   UNL     1       8.325   5.967  18.970  0.00  0.00    +0.000 A 
ATOM     12  C   UNL     1       8.235   7.283  18.511  0.00  0.00    +0.000 A 
ATOM     13  C   UNL     1       7.333   7.605  17.500  0.00  0.00    +0.000 A 
ATOM     14  C   UNL     1       6.541   6.607  16.938  0.00  0.00    +0.000 A 
ATOM     15  F   UNL     1       5.725   6.957  15.933  0.00  0.00    +0.000 F 
ENDBRANCH   2   9
BRANCH   6  16
ATOM     16  S   UNL     1       1.512   2.816  19.872  0.00  0.00    +0.000 S 
ATOM     17  O   UNL     1       0.699   2.267  18.809  0.00  0.00    +0.000 OA
ATOM     18  O   UNL     1       1.118   2.690  21.254  0.00  0.00    +0.000 OA
BRANCH  16  19
ATOM     19  C   UNL     1       1.711   4.541  19.519  0.00  0.00    +0.000 A 
ATOM     20  C   UNL     1       1.664   4.967  18.188  0.00  0.00    +0.000 A 
ATOM     21  C   UNL     1       1.704   6.333  17.905  0.00  0.00    +0.000 A 
ATOM     22  C   UNL     1       1.775   7.256  18.950  0.00  0.00    +0.000 A 
ATOM     23 BR   UNL     1       1.779   9.108  18.567  0.00  0.00    +0.000 Br
ATOM     24  C   UNL     1       1.823   6.827  20.278  0.00  0.00    +0.000 A 
ATOM     25  C   UNL     1       1.793   5.462  20.566  0.00  0.00    +0.000 A 
ENDBRANCH  16  19
ENDBRANCH   6  16
TORSDOF 3
ENDMDL
