MODEL 1
REMARK VINA RESULT:      -6.8      0.000      0.000
REMARK  Name = 
REMARK  1 active torsions:
REMARK  status: ('A' for Active; 'I' for Inactive)
REMARK    1  A    between atoms: C_12  and  C_13
REMARK                            x       y       z     vdW  Elec       q    Type
REMARK                         _______ _______ _______ _____ _____    ______ ____
ROOT
ATOM      1  O   UNL     1      -2.294  10.011  16.351  0.00  0.00    +0.000 OA
ATOM      2  C   UNL     1      -2.404  10.610  17.418  0.00  0.00    +0.000 A 
ATOM      3  C   UNL     1      -1.247  10.665  18.324  0.00  0.00    +0.000 A 
ATOM      4  C   UNL     1      -0.079   9.946  18.035  0.00  0.00    +0.000 A 
ATOM      5  C   UNL     1       1.011  10.034  18.897  0.00  0.00    +0.000 A 
ATOM      6  C   UNL     1       0.940  10.862  20.017  0.00  0.00    +0.000 A 
ATOM      7  C   UNL     1      -0.236  11.569  20.297  0.00  0.00    +0.000 A 
ATOM      8  C   UNL     1      -1.354  11.452  19.467  0.00  0.00    +0.000 A 
ATOM      9  N   UNL     1      -2.550  12.093  19.822  0.00  0.00    +0.000 NA
ATOM     10  C   UNL     1      -3.573  11.974  19.038  0.00  0.00    +0.000 A 
ATOM     11  C   UNL     1      -4.854  12.601  19.382  0.00  0.00    +0.000 A 
ATOM     12  C   UNL     1      -5.322  13.345  20.543  0.00  0.00    +0.000 A 
ATOM     13  C   UNL     1      -6.645  13.722  20.370  0.00  0.00    +0.000 A 
ATOM     14  S   UNL     1      -7.326  13.169  18.915  0.00  0.00    +0.000 S 
ATOM     15  C   UNL     1      -5.867  12.432  18.453  0.00  0.00    +0.000 A 
ATOM     16  N   UNL     1      -5.804  11.761  17.277  0.00  0.00    +0.000 NA
ATOM     17  C   UNL     1      -4.658  11.212  17.031  0.00  0.00    +0.000 A 
ATOM     18  N   UNL     1      -3.544  11.269  17.840  0.00  0.00    +0.000 N 
ENDROOT
BRANCH  12  19
ATOM     19  C   UNL     1      -4.643  13.711  21.792  0.00  0.00    +0.000 A 
ATOM     20  C   UNL     1      -4.486  12.797  22.835  0.00  0.00    +0.000 A 
ATOM     21  C   UNL     1      -3.894  13.181  24.050  0.00  0.00    +0.000 A 
ATOM     22  C   UNL     1      -3.388  14.471  24.198  0.00  0.00    +0.000 A 
ATOM     23 CL   UNL     1      -2.663  14.938  25.684  0.00  0.00    +0.000 Cl
ATOM     24  C   UNL     1      -3.469  15.378  23.148  0.00  0.00    +0.000 A 
ATOM     25  C   UNL     1      -4.105  15.007  21.958  0.00  0.00    +0.000 A 
ENDBRANCH  12  19
TORSDOF 1
ENDMDL
MODEL 2
REMARK VINA RESULT:      -6.8      3.484      5.181
REMARK  Name = 
REMARK  1 active torsions:
REMARK  status: ('A' for Active; 'I' for Inactive)
REMARK    1  A    between atoms: C_12  and  C_13
REMARK                            x       y       z     vdW  Elec       q    Type
REMARK                         _______ _______ _______ _____ _____    ______ ____
ROOT
ATOM      1  O   UNL     1      -1.144  11.589  23.375  0.00  0.00    +0.000 OA
ATOM      2  C   UNL     1      -1.962  11.971  22.541  0.00  0.00    +0.000 A 
ATOM      3  C   UNL     1      -1.540  12.088  21.137  0.00  0.00    +0.000 A 
ATOM      4  C   UNL     1      -0.203  11.887  20.773  0.00  0.00    +0.000 A 
ATOM      5  C   UNL     1       0.166  11.980  19.434  0.00  0.00    +0.000 A 
ATOM      6  C   UNL     1      -0.806  12.238  18.468  0.00  0.00    +0.000 A 
ATOM      7  C   UNL     1      -2.138  12.444  18.845  0.00  0.00    +0.000 A 
ATOM      8  C   UNL     1      -2.513  12.401  20.191  0.00  0.00    +0.000 A 
ATOM      9  N   UNL     1      -3.834  12.707  20.552  0.00  0.00    +0.000 NA
ATOM     10  C   UNL     1      -4.161  12.660  21.804  0.00  0.00    +0.000 A 
ATOM     11  C   UNL     1      -5.521  13.000  22.233  0.00  0.00    +0.000 A 
ATOM     12  C   UNL     1      -6.696  13.495  21.529  0.00  0.00    +0.000 A 
ATOM     13  C   UNL     1      -7.751  13.662  22.415  0.00  0.00    +0.000 A 
ATOM     14  S   UNL     1      -7.350  13.303  24.026  0.00  0.00    +0.000 S 
ATOM     15  C   UNL     1      -5.763  12.883  23.592  0.00  0.00    +0.000 A 
ATOM     16  N   UNL     1      -4.891  12.492  24.554  0.00  0.00    +0.000 NA
ATOM     17  C   UNL     1      -3.701  12.221  24.124  0.00  0.00    +0.000 A 
ATOM     18  N   UNL     1      -3.280  12.289  22.813  0.00  0.00    +0.000 N 
ENDROOT
BRANCH  12  19
ATOM     19  C   UNL     1      -6.902  13.834  20.116  0.00  0.00    +0.000 A 
ATOM     20  C   UNL     1      -6.568  15.091  19.608  0.00  0.00    +0.000 A 
ATOM     21  C   UNL     1      -6.833  15.424  18.270  0.00  0.00    +0.000 A 
ATOM     22  C   UNL     1      -7.372  14.467  17.411  0.00  0.00    +0.000 A 
ATOM     23 CL   UNL     1      -7.694  14.876  15.774  0.00  0.00    +0.000 Cl
ATOM     24  C   UNL     1      -7.647  13.187  17.875  0.00  0.00    +0.000 A 
ATOM     25  C   UNL     1      -7.429  12.875  19.222  0.00  0.00    +0.000 A 
ENDBRANCH  12  19
TORSDOF 1
ENDMDL
MODEL 3
REMARK VINA RESULT:      -6.7      2.278      4.696
REMARK  Name = 
REMARK  1 active torsions:
REMARK  status: ('A' for Active; 'I' for Inactive)
REMARK    1  A    between atoms: C_12  and  C_13
REMARK                            x       y       z     vdW  Elec       q    Type
REMARK                         _______ _______ _______ _____ _____    ______ ____
ROOT
ATOM      1  O   UNL     1      -4.504  10.934  15.992  0.00  0.00    +0.000 OA
ATOM      2  C   UNL     1      -4.251  11.372  17.112  0.00  0.00    +0.000 A 
ATOM      3  C   UNL     1      -5.266  12.183  17.801  0.00  0.00    +0.000 A 
ATOM      4  C   UNL     1      -6.449  12.554  17.149  0.00  0.00    +0.000 A 
ATOM      5  C   UNL     1      -7.404  13.302  17.832  0.00  0.00    +0.000 A 
ATOM      6  C   UNL     1      -7.187  13.644  19.166  0.00  0.00    +0.000 A 
ATOM      7  C   UNL     1      -5.996  13.273  19.805  0.00  0.00    +0.000 A 
ATOM      8  C   UNL     1      -5.009  12.564  19.116  0.00  0.00    +0.000 A 
ATOM      9  N   UNL     1      -3.786  12.289  19.746  0.00  0.00    +0.000 NA
ATOM     10  C   UNL     1      -2.886  11.629  19.092  0.00  0.00    +0.000 A 
ATOM     11  C   UNL     1      -1.581  11.344  19.699  0.00  0.00    +0.000 A 
ATOM     12  C   UNL     1      -0.964  11.720  20.963  0.00  0.00    +0.000 A 
ATOM     13  C   UNL     1       0.313  11.185  21.051  0.00  0.00    +0.000 A 
ATOM     14  S   UNL     1       0.786  10.319  19.668  0.00  0.00    +0.000 S 
ATOM     15  C   UNL     1      -0.710  10.604  18.916  0.00  0.00    +0.000 A 
ATOM     16  N   UNL     1      -0.931  10.121  17.669  0.00  0.00    +0.000 NA
ATOM     17  C   UNL     1      -2.090  10.415  17.174  0.00  0.00    +0.000 A 
ATOM     18  N   UNL     1      -3.075  11.146  17.802  0.00  0.00    +0.000 N 
ENDROOT
BRANCH  12  19
ATOM     19  C   UNL     1      -1.461  12.543  22.072  0.00  0.00    +0.000 A 
ATOM     20  C   UNL     1      -2.549  12.143  22.850  0.00  0.00    +0.000 A 
ATOM     21  C   UNL     1      -3.056  12.971  23.865  0.00  0.00    +0.000 A 
ATOM     22  C   UNL     1      -2.425  14.181  24.152  0.00  0.00    +0.000 A 
ATOM     23 CL   UNL     1      -3.046  15.192  25.394  0.00  0.00    +0.000 Cl
ATOM     24  C   UNL     1      -1.298  14.569  23.438  0.00  0.00    +0.000 A 
ATOM     25  C   UNL     1      -0.828  13.764  22.394  0.00  0.00    +0.000 A 
ENDBRANCH  12  19
TORSDOF 1
ENDMDL
MODEL 4
REMARK VINA RESULT:      -6.4      2.796      4.458
REMARK  Name = 
REMARK  1 active torsions:
REMARK  status: ('A' for Active; 'I' for Inactive)
REMARK    1  A    between atoms: C_12  and  C_13
REMARK                            x       y       z     vdW  Elec       q    Type
REMARK                         _______ _______ _______ _____ _____    ______ ____
ROOT
ATOM      1  O   UNL     1      -6.258  12.810  17.019  0.00  0.00    +0.000 OA
ATOM      2  C   UNL     1      -5.310  12.442  17.710  0.00  0.00    +0.000 A 
ATOM      3  C   UNL     1      -4.310  11.541  17.118  0.00  0.00    +0.000 A 
ATOM      4  C   UNL     1      -4.494  11.012  15.834  0.00  0.00    +0.000 A 
ATOM      5  C   UNL     1      -3.520  10.180  15.288  0.00  0.00    +0.000 A 
ATOM      6  C   UNL     1      -2.359   9.912  16.010  0.00  0.00    +0.000 A 
ATOM      7  C   UNL     1      -2.190  10.441  17.296  0.00  0.00    +0.000 A 
ATOM      8  C   UNL     1      -3.181  11.238  17.875  0.00  0.00    +0.000 A 
ATOM      9  N   UNL     1      -3.032  11.675  19.200  0.00  0.00    +0.000 NA
ATOM     10  C   UNL     1      -3.960  12.414  19.717  0.00  0.00    +0.000 A 
ATOM     11  C   UNL     1      -3.863  12.870  21.107  0.00  0.00    +0.000 A 
ATOM     12  C   UNL     1      -2.912  12.613  22.179  0.00  0.00    +0.000 A 
ATOM     13  C   UNL     1      -3.285  13.297  23.327  0.00  0.00    +0.000 A 
ATOM     14  S   UNL     1      -4.736  14.165  23.161  0.00  0.00    +0.000 S 
ATOM     15  C   UNL     1      -4.900  13.681  21.541  0.00  0.00    +0.000 A 
ATOM     16  N   UNL     1      -5.977  14.093  20.829  0.00  0.00    +0.000 NA
ATOM     17  C   UNL     1      -6.023  13.647  19.615  0.00  0.00    +0.000 A 
ATOM     18  N   UNL     1      -5.089  12.828  19.018  0.00  0.00    +0.000 N 
ENDROOT
BRANCH  12  19
ATOM     19  C   UNL     1      -1.707  11.775  22.218  0.00  0.00    +0.000 A 
ATOM     20  C   UNL     1      -0.643  11.980  21.338  0.00  0.00    +0.000 A 
ATOM     21  C   UNL     1       0.474  11.129  21.342  0.00  0.00    +0.000 A 
ATOM     22  C   UNL     1       0.562  10.106  22.284  0.00  0.00    +0.000 A 
ATOM     23 CL   UNL     1       1.930   9.066  22.289  0.00  0.00    +0.000 Cl
ATOM     24  C   UNL     1      -0.452   9.925  23.217  0.00  0.00    +0.000 A 
ATOM     25  C   UNL     1      -1.586  10.743  23.176  0.00  0.00    +0.000 A 
ENDBRANCH  12  19
TORSDOF 1
ENDMDL
MODEL 5
REMARK VINA RESULT:      -6.4      0.658      1.160
REMARK  Name = 
REMARK  1 active torsions:
REMARK  status: ('A' for Active; 'I' for Inactive)
REMARK    1  A    between atoms: C_12  and  C_13
REMARK                            x       y       z     vdW  Elec       q    Type
REMARK                         _______ _______ _______ _____ _____    ______ ____
ROOT
ATOM      1  O   UNL     1      -3.173  10.168  16.515  0.00  0.00    +0.000 OA
ATOM      2  C   UNL     1      -3.150  10.804  17.566  0.00  0.00    +0.000 A 
ATOM      3  C   UNL     1      -1.907  10.829  18.353  0.00  0.00    +0.000 A 
ATOM      4  C   UNL     1      -0.809  10.045  17.978  0.00  0.00    +0.000 A 
ATOM      5  C   UNL     1       0.364  10.105  18.727  0.00  0.00    +0.000 A 
ATOM      6  C   UNL     1       0.442  10.969  19.818  0.00  0.00    +0.000 A 
ATOM      7  C   UNL     1      -0.667  11.742  20.186  0.00  0.00    +0.000 A 
ATOM      8  C   UNL     1      -1.865  11.656  19.472  0.00  0.00    +0.000 A 
ATOM      9  N   UNL     1      -2.990  12.365  19.919  0.00  0.00    +0.000 NA
ATOM     10  C   UNL     1      -4.090  12.274  19.243  0.00  0.00    +0.000 A 
ATOM     11  C   UNL     1      -5.299  12.973  19.687  0.00  0.00    +0.000 A 
ATOM     12  C   UNL     1      -5.616  13.775  20.860  0.00  0.00    +0.000 A 
ATOM     13  C   UNL     1      -6.931  14.212  20.803  0.00  0.00    +0.000 A 
ATOM     14  S   UNL     1      -7.777  13.648  19.441  0.00  0.00    +0.000 S 
ATOM     15  C   UNL     1      -6.406  12.826  18.866  0.00  0.00    +0.000 A 
ATOM     16  N   UNL     1      -6.490  12.117  17.714  0.00  0.00    +0.000 NA
ATOM     17  C   UNL     1      -5.400  11.505  17.378  0.00  0.00    +0.000 A 
ATOM     18  N   UNL     1      -4.211  11.531  18.073  0.00  0.00    +0.000 N 
ENDROOT
BRANCH  12  19
ATOM     19  C   UNL     1      -4.801  14.145  22.024  0.00  0.00    +0.000 A 
ATOM     20  C   UNL     1      -4.050  15.321  22.047  0.00  0.00    +0.000 A 
ATOM     21  C   UNL     1      -3.222  15.629  23.140  0.00  0.00    +0.000 A 
ATOM     22  C   UNL     1      -3.200  14.788  24.251  0.00  0.00    +0.000 A 
ATOM     23 CL   UNL     1      -2.188  15.167  25.587  0.00  0.00    +0.000 Cl
ATOM     24  C   UNL     1      -3.993  13.647  24.281  0.00  0.00    +0.000 A 
ATOM     25  C   UNL     1      -4.776  13.318  23.169  0.00  0.00    +0.000 A 
ENDBRANCH  12  19
TORSDOF 1
ENDMDL
MODEL 6
REMARK VINA RESULT:      -6.4      2.713      5.487
REMARK  Name = 
REMARK  1 active torsions:
REMARK  status: ('A' for Active; 'I' for Inactive)
REMARK    1  A    between atoms: C_12  and  C_13
REMARK                            x       y       z     vdW  Elec       q    Type
REMARK                         _______ _______ _______ _____ _____    ______ ____
ROOT
ATOM      1  O   UNL     1      -7.674  12.728  20.783  0.00  0.00    +0.000 OA
ATOM      2  C   UNL     1      -6.448  12.749  20.693  0.00  0.00    +0.000 A 
ATOM      3  C   UNL     1      -5.665  13.303  21.807  0.00  0.00    +0.000 A 
ATOM      4  C   UNL     1      -6.302  13.907  22.898  0.00  0.00    +0.000 A 
ATOM      5  C   UNL     1      -5.538  14.402  23.952  0.00  0.00    +0.000 A 
ATOM      6  C   UNL     1      -4.151  14.259  23.924  0.00  0.00    +0.000 A 
ATOM      7  C   UNL     1      -3.526  13.659  22.824  0.00  0.00    +0.000 A 
ATOM      8  C   UNL     1      -4.278  13.202  21.738  0.00  0.00    +0.000 A 
ATOM      9  N   UNL     1      -3.622  12.693  20.607  0.00  0.00    +0.000 NA
ATOM     10  C   UNL     1      -4.336  12.273  19.613  0.00  0.00    +0.000 A 
ATOM     11  C   UNL     1      -3.696  11.761  18.397  0.00  0.00    +0.000 A 
ATOM     12  C   UNL     1      -2.309  11.663  17.964  0.00  0.00    +0.000 A 
ATOM     13  C   UNL     1      -2.240  11.094  16.701  0.00  0.00    +0.000 A 
ATOM     14  S   UNL     1      -3.760  10.743  16.028  0.00  0.00    +0.000 S 
ATOM     15  C   UNL     1      -4.561  11.310  17.414  0.00  0.00    +0.000 A 
ATOM     16  N   UNL     1      -5.916  11.290  17.454  0.00  0.00    +0.000 NA
ATOM     17  C   UNL     1      -6.430  11.769  18.541  0.00  0.00    +0.000 A 
ATOM     18  N   UNL     1      -5.727  12.266  19.617  0.00  0.00    +0.000 N 
ENDROOT
BRANCH  12  19
ATOM     19  C   UNL     1      -1.062  12.069  18.624  0.00  0.00    +0.000 A 
ATOM     20  C   UNL     1      -0.440  11.260  19.575  0.00  0.00    +0.000 A 
ATOM     21  C   UNL     1       0.716  11.691  20.247  0.00  0.00    +0.000 A 
ATOM     22  C   UNL     1       1.297  12.913  19.912  0.00  0.00    +0.000 A 
ATOM     23 CL   UNL     1       2.712  13.438  20.734  0.00  0.00    +0.000 Cl
ATOM     24  C   UNL     1       0.736  13.705  18.918  0.00  0.00    +0.000 A 
ATOM     25  C   UNL     1      -0.444  13.294  18.288  0.00  0.00    +0.000 A 
ENDBRANCH  12  19
TORSDOF 1
ENDMDL
MODEL 7
REMARK VINA RESULT:      -6.3      3.754      6.552
REMARK  Name = 
REMARK  1 active torsions:
REMARK  status: ('A' for Active; 'I' for Inactive)
REMARK    1  A    between atoms: C_12  and  C_13
REMARK                            x       y       z     vdW  Elec       q    Type
REMARK                         _______ _______ _______ _____ _____    ______ ____
ROOT
ATOM      1  O   UNL     1      -5.161  12.590  17.903  0.00  0.00    +0.000 OA
ATOM      2  C   UNL     1      -4.120  11.939  17.974  0.00  0.00    +0.000 A 
ATOM      3  C   UNL     1      -3.700  11.145  16.810  0.00  0.00    +0.000 A 
ATOM      4  C   UNL     1      -4.528  11.031  15.686  0.00  0.00    +0.000 A 
ATOM      5  C   UNL     1      -4.096  10.293  14.587  0.00  0.00    +0.000 A 
ATOM      6  C   UNL     1      -2.832   9.705  14.606  0.00  0.00    +0.000 A 
ATOM      7  C   UNL     1      -2.017   9.820  15.739  0.00  0.00    +0.000 A 
ATOM      8  C   UNL     1      -2.458  10.518  16.867  0.00  0.00    +0.000 A 
ATOM      9  N   UNL     1      -1.665  10.537  18.024  0.00  0.00    +0.000 NA
ATOM     10  C   UNL     1      -2.091  11.190  19.057  0.00  0.00    +0.000 A 
ATOM     11  C   UNL     1      -1.311  11.213  20.299  0.00  0.00    +0.000 A 
ATOM     12  C   UNL     1      -0.081  10.558  20.718  0.00  0.00    +0.000 A 
ATOM     13  C   UNL     1       0.236  10.918  22.020  0.00  0.00    +0.000 A 
ATOM     14  S   UNL     1      -0.909  11.947  22.739  0.00  0.00    +0.000 S 
ATOM     15  C   UNL     1      -1.851  11.971  21.325  0.00  0.00    +0.000 A 
ATOM     16  N   UNL     1      -3.004  12.683  21.307  0.00  0.00    +0.000 NA
ATOM     17  C   UNL     1      -3.661  12.614  20.194  0.00  0.00    +0.000 A 
ATOM     18  N   UNL     1      -3.283  11.906  19.074  0.00  0.00    +0.000 N 
ENDROOT
BRANCH  12  19
ATOM     19  C   UNL     1       0.801   9.620  20.012  0.00  0.00    +0.000 A 
ATOM     20  C   UNL     1       1.284   9.892  18.731  0.00  0.00    +0.000 A 
ATOM     21  C   UNL     1       2.072   8.956  18.041  0.00  0.00    +0.000 A 
ATOM     22  C   UNL     1       2.441   7.766  18.666  0.00  0.00    +0.000 A 
ATOM     23 CL   UNL     1       3.406   6.623  17.822  0.00  0.00    +0.000 Cl
ATOM     24  C   UNL     1       2.031   7.504  19.968  0.00  0.00    +0.000 A 
ATOM     25  C   UNL     1       1.204   8.416  20.632  0.00  0.00    +0.000 A 
ENDBRANCH  12  19
TORSDOF 1
ENDMDL
MODEL 8
REMARK VINA RESULT:      -6.3      4.698      5.791
REMARK  Name = 
REMARK  1 active torsions:
REMARK  status: ('A' for Active; 'I' for Inactive)
REMARK    1  A    between atoms: C_12  and  C_13
REMARK                            x       y       z     vdW  Elec       q    Type
REMARK                         _______ _______ _______ _____ _____    ______ ____
ROOT
ATOM      1  O   UNL     1      -0.281   8.455  21.890  0.00  0.00    +0.000 OA
ATOM      2  C   UNL     1       0.001   9.530  21.366  0.00  0.00    +0.000 A 
ATOM      3  C   UNL     1       0.793   9.529  20.127  0.00  0.00    +0.000 A 
ATOM      4  C   UNL     1       1.322   8.336  19.618  0.00  0.00    +0.000 A 
ATOM      5  C   UNL     1       2.048   8.359  18.430  0.00  0.00    +0.000 A 
ATOM      6  C   UNL     1       2.211   9.562  17.745  0.00  0.00    +0.000 A 
ATOM      7  C   UNL     1       1.684  10.749  18.269  0.00  0.00    +0.000 A 
ATOM      8  C   UNL     1       0.994  10.748  19.484  0.00  0.00    +0.000 A 
ATOM      9  N   UNL     1       0.561  11.962  20.036  0.00  0.00    +0.000 NA
ATOM     10  C   UNL     1      -0.078  11.940  21.161  0.00  0.00    +0.000 A 
ATOM     11  C   UNL     1      -0.525  13.186  21.792  0.00  0.00    +0.000 A 
ATOM     12  C   UNL     1      -0.348  14.593  21.460  0.00  0.00    +0.000 A 
ATOM     13  C   UNL     1      -0.978  15.391  22.403  0.00  0.00    +0.000 A 
ATOM     14  S   UNL     1      -1.703  14.513  23.664  0.00  0.00    +0.000 S 
ATOM     15  C   UNL     1      -1.225  13.035  22.977  0.00  0.00    +0.000 A 
ATOM     16  N   UNL     1      -1.539  11.876  23.608  0.00  0.00    +0.000 NA
ATOM     17  C   UNL     1      -1.106  10.808  23.019  0.00  0.00    +0.000 A 
ATOM     18  N   UNL     1      -0.389  10.768  21.843  0.00  0.00    +0.000 N 
ENDROOT
BRANCH  12  19
ATOM     19  C   UNL     1       0.369  15.240  20.354  0.00  0.00    +0.000 A 
ATOM     20  C   UNL     1       1.759  15.174  20.245  0.00  0.00    +0.000 A 
ATOM     21  C   UNL     1       2.437  15.854  19.219  0.00  0.00    +0.000 A 
ATOM     22  C   UNL     1       1.713  16.548  18.252  0.00  0.00    +0.000 A 
ATOM     23 CL   UNL     1       2.543  17.379  16.998  0.00  0.00    +0.000 Cl
ATOM     24  C   UNL     1       0.324  16.570  18.299  0.00  0.00    +0.000 A 
ATOM     25  C   UNL     1      -0.344  15.934  19.351  0.00  0.00    +0.000 A 
ENDBRANCH  12  19
TORSDOF 1
ENDMDL
MODEL 9
REMARK VINA RESULT:      -6.2      3.692      5.785
REMARK  Name = 
REMARK  1 active torsions:
REMARK  status: ('A' for Active; 'I' for Inactive)
REMARK    1  A    between atoms: C_12  and  C_13
REMARK                            x       y       z     vdW  Elec       q    Type
REMARK                         _______ _______ _______ _____ _____    ______ ____
ROOT
ATOM      1  O   UNL     1       0.163  14.689  22.798  0.00  0.00    +0.000 OA
ATOM      2  C   UNL     1      -0.248  14.102  21.799  0.00  0.00    +0.000 A 
ATOM      3  C   UNL     1       0.702  13.780  20.725  0.00  0.00    +0.000 A 
ATOM      4  C   UNL     1       2.025  14.239  20.779  0.00  0.00    +0.000 A 
ATOM      5  C   UNL     1       2.911  13.900  19.760  0.00  0.00    +0.000 A 
ATOM      6  C   UNL     1       2.482  13.080  18.717  0.00  0.00    +0.000 A 
ATOM      7  C   UNL     1       1.155  12.634  18.672  0.00  0.00    +0.000 A 
ATOM      8  C   UNL     1       0.243  13.006  19.662  0.00  0.00    +0.000 A 
ATOM      9  N   UNL     1      -1.102  12.628  19.542  0.00  0.00    +0.000 NA
ATOM     10  C   UNL     1      -1.931  12.981  20.471  0.00  0.00    +0.000 A 
ATOM     11  C   UNL     1      -3.353  12.634  20.375  0.00  0.00    +0.000 A 
ATOM     12  C   UNL     1      -4.154  11.980  19.350  0.00  0.00    +0.000 A 
ATOM     13  C   UNL     1      -5.478  11.898  19.756  0.00  0.00    +0.000 A 
ATOM     14  S   UNL     1      -5.774  12.619  21.266  0.00  0.00    +0.000 S 
ATOM     15  C   UNL     1      -4.137  13.038  21.443  0.00  0.00    +0.000 A 
ATOM     16  N   UNL     1      -3.739  13.708  22.552  0.00  0.00    +0.000 NA
ATOM     17  C   UNL     1      -2.479  14.005  22.578  0.00  0.00    +0.000 A 
ATOM     18  N   UNL     1      -1.554  13.692  21.605  0.00  0.00    +0.000 N 
ENDROOT
BRANCH  12  19
ATOM     19  C   UNL     1      -3.787  11.448  18.032  0.00  0.00    +0.000 A 
ATOM     20  C   UNL     1      -4.490  11.798  16.879  0.00  0.00    +0.000 A 
ATOM     21  C   UNL     1      -4.170  11.229  15.635  0.00  0.00    +0.000 A 
ATOM     22  C   UNL     1      -3.089  10.355  15.531  0.00  0.00    +0.000 A 
ATOM     23 CL   UNL     1      -2.698   9.661  14.008  0.00  0.00    +0.000 Cl
ATOM     24  C   UNL     1      -2.330  10.045  16.652  0.00  0.00    +0.000 A 
ATOM     25  C   UNL     1      -2.684  10.574  17.898  0.00  0.00    +0.000 A 
ENDBRANCH  12  19
TORSDOF 1
ENDMDL
