MODEL 1
REMARK VINA RESULT:      -7.2      0.000      0.000
REMARK  Name = 
REMARK  4 active torsions:
REMARK  status: ('A' for Active; 'I' for Inactive)
REMARK    1  A    between atoms: C_1  and  N_2
REMARK    2  A    between atoms: C_4  and  C_5
REMARK    3  A    between atoms: C_9  and  C_11
REMARK    4  A    between atoms: C_11  and  N_12
REMARK                            x       y       z     vdW  Elec       q    Type
REMARK                         _______ _______ _______ _____ _____    ______ ____
ROOT
ATOM      1  C   UNL     1       0.943  10.669  19.778  0.00  0.00    +0.000 C 
ATOM      2  C   UNL     1       1.664  10.619  18.421  0.00  0.00    +0.000 C 
ATOM      3  C   UNL     1       1.613   9.267  17.708  0.00  0.00    +0.000 C 
ATOM      4  N   UNL     1       1.836   8.167  18.641  0.00  0.00    +0.000 N 
ATOM      5  C   UNL     1       2.925   7.315  18.497  0.00  0.00    +0.000 C 
ATOM      6  O   UNL     1       3.768   7.468  17.601  0.00  0.00    +0.000 OA
ATOM      7  C   UNL     1       0.893   8.137  19.751  0.00  0.00    +0.000 C 
ATOM      8  C   UNL     1       1.102   9.379  20.599  0.00  0.00    +0.000 C 
ENDROOT
BRANCH   1  12
ATOM      9  C   UNL     1      -3.017  13.393  20.625  0.00  0.00    +0.000 C 
ATOM     10  N   UNL     1      -2.215  12.317  20.096  0.00  0.00    +0.000 N 
ATOM     11  N   UNL     1      -0.993  12.027  20.622  0.00  0.00    +0.000 NA
ATOM     12  C   UNL     1      -0.503  11.104  19.779  0.00  0.00    +0.000 A 
ATOM     13  C   UNL     1      -1.432  10.778  18.750  0.00  0.00    +0.000 A 
ATOM     14  C   UNL     1      -1.448   9.958  17.612  0.00  0.00    +0.000 A 
ATOM     15  C   UNL     1      -2.557  10.047  16.769  0.00  0.00    +0.000 A 
ATOM     16  C   UNL     1      -3.577  10.928  17.096  0.00  0.00    +0.000 A 
ATOM     17  N   UNL     1      -3.619  11.728  18.191  0.00  0.00    +0.000 NA
ATOM     18  C   UNL     1      -2.519  11.607  18.967  0.00  0.00    +0.000 A 
ENDBRANCH   1  12
BRANCH   5  19
ATOM     19  C   UNL     1       3.092   6.159  19.508  0.00  0.00    +0.000 C 
BRANCH  19  20
ATOM     20  N   UNL     1       2.327   4.952  19.117  0.00  0.00    +0.000 NA
ATOM     21  C   UNL     1       3.177   3.977  18.417  0.00  0.00    +0.000 C 
ATOM     22  C   UNL     1       2.342   2.795  17.928  0.00  0.00    +0.000 C 
ATOM     23  C   UNL     1       1.585   2.132  19.072  0.00  0.00    +0.000 C 
ATOM     24  C   UNL     1       0.793   3.166  19.863  0.00  0.00    +0.000 C 
ATOM     25  C   UNL     1       1.678   4.343  20.286  0.00  0.00    +0.000 C 
ENDBRANCH  19  20
ENDBRANCH   5  19
TORSDOF 3
ENDMDL
MODEL 2
REMARK VINA RESULT:      -7.1      1.262      2.513
REMARK  Name = 
REMARK  4 active torsions:
REMARK  status: ('A' for Active; 'I' for Inactive)
REMARK    1  A    between atoms: C_1  and  N_2
REMARK    2  A    between atoms: C_4  and  C_5
REMARK    3  A    between atoms: C_9  and  C_11
REMARK    4  A    between atoms: C_11  and  N_12
REMARK                            x       y       z     vdW  Elec       q    Type
REMARK                         _______ _______ _______ _____ _____    ______ ____
ROOT
ATOM      1  C   UNL     1       0.963  11.173  19.904  0.00  0.00    +0.000 C 
ATOM      2  C   UNL     1       1.653  11.016  18.539  0.00  0.00    +0.000 C 
ATOM      3  C   UNL     1       1.460   9.656  17.867  0.00  0.00    +0.000 C 
ATOM      4  N   UNL     1       1.592   8.566  18.829  0.00  0.00    +0.000 N 
ATOM      5  C   UNL     1       2.592   7.609  18.694  0.00  0.00    +0.000 C 
ATOM      6  O   UNL     1       3.430   7.655  17.782  0.00  0.00    +0.000 OA
ATOM      7  C   UNL     1       0.670   8.658  19.952  0.00  0.00    +0.000 C 
ATOM      8  C   UNL     1       1.012   9.898  20.760  0.00  0.00    +0.000 C 
ENDROOT
BRANCH   1  12
ATOM      9  C   UNL     1      -3.726  11.818  18.716  0.00  0.00    +0.000 C 
ATOM     10  N   UNL     1      -2.488  11.985  19.437  0.00  0.00    +0.000 N 
ATOM     11  N   UNL     1      -1.303  11.579  18.903  0.00  0.00    +0.000 NA
ATOM     12  C   UNL     1      -0.434  11.745  19.913  0.00  0.00    +0.000 A 
ATOM     13  C   UNL     1      -1.059  12.298  21.066  0.00  0.00    +0.000 A 
ATOM     14  C   UNL     1      -0.677  12.625  22.376  0.00  0.00    +0.000 A 
ATOM     15  C   UNL     1      -1.681  13.029  23.258  0.00  0.00    +0.000 A 
ATOM     16  C   UNL     1      -2.989  13.090  22.800  0.00  0.00    +0.000 A 
ATOM     17  N   UNL     1      -3.408  12.802  21.542  0.00  0.00    +0.000 NA
ATOM     18  C   UNL     1      -2.398  12.410  20.734  0.00  0.00    +0.000 A 
ENDBRANCH   1  12
BRANCH   5  19
ATOM     19  C   UNL     1       2.664   6.471  19.736  0.00  0.00    +0.000 C 
BRANCH  19  20
ATOM     20  N   UNL     1       2.000   5.233  19.266  0.00  0.00    +0.000 NA
ATOM     21  C   UNL     1       2.891   4.431  18.416  0.00  0.00    +0.000 C 
ATOM     22  C   UNL     1       2.148   3.218  17.856  0.00  0.00    +0.000 C 
ATOM     23  C   UNL     1       1.548   2.367  18.968  0.00  0.00    +0.000 C 
ATOM     24  C   UNL     1       0.714   3.226  19.912  0.00  0.00    +0.000 C 
ATOM     25  C   UNL     1       1.503   4.444  20.402  0.00  0.00    +0.000 C 
ENDBRANCH  19  20
ENDBRANCH   5  19
TORSDOF 3
ENDMDL
MODEL 3
REMARK VINA RESULT:      -7.1      2.464      3.377
REMARK  Name = 
REMARK  4 active torsions:
REMARK  status: ('A' for Active; 'I' for Inactive)
REMARK    1  A    between atoms: C_1  and  N_2
REMARK    2  A    between atoms: C_4  and  C_5
REMARK    3  A    between atoms: C_9  and  C_11
REMARK    4  A    between atoms: C_11  and  N_12
REMARK                            x       y       z     vdW  Elec       q    Type
REMARK                         _______ _______ _______ _____ _____    ______ ____
ROOT
ATOM      1  C   UNL     1       0.289  10.190  19.207  0.00  0.00    +0.000 C 
ATOM      2  C   UNL     1       0.161   9.447  20.547  0.00  0.00    +0.000 C 
ATOM      3  C   UNL     1       1.397   8.653  20.969  0.00  0.00    +0.000 C 
ATOM      4  N   UNL     1       1.974   7.929  19.840  0.00  0.00    +0.000 N 
ATOM      5  C   UNL     1       2.051   6.541  19.842  0.00  0.00    +0.000 C 
ATOM      6  O   UNL     1       1.606   5.858  20.776  0.00  0.00    +0.000 OA
ATOM      7  C   UNL     1       2.339   8.785  18.719  0.00  0.00    +0.000 C 
ATOM      8  C   UNL     1       1.074   9.401  18.147  0.00  0.00    +0.000 C 
ENDROOT
BRANCH   1  12
ATOM      9  C   UNL     1       2.784  14.212  18.016  0.00  0.00    +0.000 C 
ATOM     10  N   UNL     1       1.818  13.382  18.693  0.00  0.00    +0.000 N 
ATOM     11  N   UNL     1       1.916  12.024  18.667  0.00  0.00    +0.000 NA
ATOM     12  C   UNL     1       0.776  11.618  19.249  0.00  0.00    +0.000 A 
ATOM     13  C   UNL     1      -0.018  12.717  19.684  0.00  0.00    +0.000 A 
ATOM     14  C   UNL     1      -1.275  12.894  20.281  0.00  0.00    +0.000 A 
ATOM     15  C   UNL     1      -1.748  14.201  20.412  0.00  0.00    +0.000 A 
ATOM     16  C   UNL     1      -0.960  15.247  19.954  0.00  0.00    +0.000 A 
ATOM     17  N   UNL     1       0.267  15.131  19.387  0.00  0.00    +0.000 NA
ATOM     18  C   UNL     1       0.672  13.846  19.278  0.00  0.00    +0.000 A 
ENDBRANCH   1  12
BRANCH   5  19
ATOM     19  C   UNL     1       2.689   5.839  18.623  0.00  0.00    +0.000 C 
BRANCH  19  20
ATOM     20  N   UNL     1       2.737   4.367  18.782  0.00  0.00    +0.000 NA
ATOM     21  C   UNL     1       2.272   3.678  17.570  0.00  0.00    +0.000 C 
ATOM     22  C   UNL     1       2.225   2.167  17.798  0.00  0.00    +0.000 C 
ATOM     23  C   UNL     1       3.578   1.627  18.243  0.00  0.00    +0.000 C 
ATOM     24  C   UNL     1       4.109   2.419  19.433  0.00  0.00    +0.000 C 
ATOM     25  C   UNL     1       4.088   3.925  19.155  0.00  0.00    +0.000 C 
ENDBRANCH  19  20
ENDBRANCH   5  19
TORSDOF 3
ENDMDL
MODEL 4
REMARK VINA RESULT:      -7.0      2.620      3.983
REMARK  Name = 
REMARK  4 active torsions:
REMARK  status: ('A' for Active; 'I' for Inactive)
REMARK    1  A    between atoms: C_1  and  N_2
REMARK    2  A    between atoms: C_4  and  C_5
REMARK    3  A    between atoms: C_9  and  C_11
REMARK    4  A    between atoms: C_11  and  N_12
REMARK                            x       y       z     vdW  Elec       q    Type
REMARK                         _______ _______ _______ _____ _____    ______ ____
ROOT
ATOM      1  C   UNL     1       0.440   9.858  18.980  0.00  0.00    +0.000 C 
ATOM      2  C   UNL     1       0.390   8.993  20.251  0.00  0.00    +0.000 C 
ATOM      3  C   UNL     1       1.676   8.227  20.565  0.00  0.00    +0.000 C 
ATOM      4  N   UNL     1       2.250   7.637  19.360  0.00  0.00    +0.000 N 
ATOM      5  C   UNL     1       2.393   6.260  19.234  0.00  0.00    +0.000 C 
ATOM      6  O   UNL     1       2.011   5.474  20.114  0.00  0.00    +0.000 OA
ATOM      7  C   UNL     1       2.538   8.606  18.311  0.00  0.00    +0.000 C 
ATOM      8  C   UNL     1       1.228   9.206  17.833  0.00  0.00    +0.000 C 
ENDROOT
BRANCH   1  12
ATOM      9  C   UNL     1       2.690  14.094  18.081  0.00  0.00    +0.000 C 
ATOM     10  N   UNL     1       1.793  13.157  18.712  0.00  0.00    +0.000 N 
ATOM     11  N   UNL     1       1.955  11.814  18.555  0.00  0.00    +0.000 NA
ATOM     12  C   UNL     1       0.860  11.299  19.139  0.00  0.00    +0.000 A 
ATOM     13  C   UNL     1       0.033  12.311  19.703  0.00  0.00    +0.000 A 
ATOM     14  C   UNL     1      -1.205  12.368  20.360  0.00  0.00    +0.000 A 
ATOM     15  C   UNL     1      -1.734  13.631  20.630  0.00  0.00    +0.000 A 
ATOM     16  C   UNL     1      -1.016  14.754  20.244  0.00  0.00    +0.000 A 
ATOM     17  N   UNL     1       0.190  14.754  19.623  0.00  0.00    +0.000 NA
ATOM     18  C   UNL     1       0.652  13.506  19.380  0.00  0.00    +0.000 A 
ENDBRANCH   1  12
BRANCH   5  19
ATOM     19  C   UNL     1       3.025   5.702  17.940  0.00  0.00    +0.000 C 
BRANCH  19  20
ATOM     20  N   UNL     1       4.501   5.825  17.935  0.00  0.00    +0.000 NA
ATOM     21  C   UNL     1       5.096   5.241  19.146  0.00  0.00    +0.000 C 
ATOM     22  C   UNL     1       6.606   5.479  19.168  0.00  0.00    +0.000 C 
ATOM     23  C   UNL     1       7.278   4.931  17.916  0.00  0.00    +0.000 C 
ATOM     24  C   UNL     1       6.585   5.452  16.662  0.00  0.00    +0.000 C 
ATOM     25  C   UNL     1       5.072   5.221  16.723  0.00  0.00    +0.000 C 
ENDBRANCH  19  20
ENDBRANCH   5  19
TORSDOF 3
ENDMDL
MODEL 5
REMARK VINA RESULT:      -7.0      2.675      4.201
REMARK  Name = 
REMARK  4 active torsions:
REMARK  status: ('A' for Active; 'I' for Inactive)
REMARK    1  A    between atoms: C_1  and  N_2
REMARK    2  A    between atoms: C_4  and  C_5
REMARK    3  A    between atoms: C_9  and  C_11
REMARK    4  A    between atoms: C_11  and  N_12
REMARK                            x       y       z     vdW  Elec       q    Type
REMARK                         _______ _______ _______ _____ _____    ______ ____
ROOT
ATOM      1  C   UNL     1      -0.713  10.295  21.415  0.00  0.00    +0.000 C 
ATOM      2  C   UNL     1      -0.291   9.119  22.311  0.00  0.00    +0.000 C 
ATOM      3  C   UNL     1       1.149   8.642  22.121  0.00  0.00    +0.000 C 
ATOM      4  N   UNL     1       1.506   8.585  20.707  0.00  0.00    +0.000 N 
ATOM      5  C   UNL     1       1.861   7.383  20.105  0.00  0.00    +0.000 C 
ATOM      6  O   UNL     1       1.857   6.309  20.724  0.00  0.00    +0.000 OA
ATOM      7  C   UNL     1       1.347   9.854  20.009  0.00  0.00    +0.000 C 
ATOM      8  C   UNL     1      -0.127  10.219  19.996  0.00  0.00    +0.000 C 
ENDROOT
BRANCH   1  12
ATOM      9  C   UNL     1       0.813  14.917  21.780  0.00  0.00    +0.000 C 
ATOM     10  N   UNL     1       0.081  13.715  22.097  0.00  0.00    +0.000 N 
ATOM     11  N   UNL     1       0.461  12.507  21.596  0.00  0.00    +0.000 NA
ATOM     12  C   UNL     1      -0.535  11.688  21.970  0.00  0.00    +0.000 A 
ATOM     13  C   UNL     1      -1.519  12.367  22.744  0.00  0.00    +0.000 A 
ATOM     14  C   UNL     1      -2.750  12.048  23.335  0.00  0.00    +0.000 A 
ATOM     15  C   UNL     1      -3.480  13.092  23.907  0.00  0.00    +0.000 A 
ATOM     16  C   UNL     1      -2.955  14.376  23.866  0.00  0.00    +0.000 A 
ATOM     17  N   UNL     1      -1.764  14.733  23.324  0.00  0.00    +0.000 NA
ATOM     18  C   UNL     1      -1.104  13.687  22.780  0.00  0.00    +0.000 A 
ENDBRANCH   1  12
BRANCH   5  19
ATOM     19  C   UNL     1       2.246   7.396  18.609  0.00  0.00    +0.000 C 
BRANCH  19  20
ATOM     20  N   UNL     1       3.248   6.357  18.275  0.00  0.00    +0.000 NA
ATOM     21  C   UNL     1       2.609   5.136  17.763  0.00  0.00    +0.000 C 
ATOM     22  C   UNL     1       3.652   4.043  17.532  0.00  0.00    +0.000 C 
ATOM     23  C   UNL     1       4.756   4.512  16.593  0.00  0.00    +0.000 C 
ATOM     24  C   UNL     1       5.340   5.837  17.069  0.00  0.00    +0.000 C 
ATOM     25  C   UNL     1       4.240   6.873  17.322  0.00  0.00    +0.000 C 
ENDBRANCH  19  20
ENDBRANCH   5  19
TORSDOF 3
ENDMDL
MODEL 6
REMARK VINA RESULT:      -6.9      0.472      1.055
REMARK  Name = 
REMARK  4 active torsions:
REMARK  status: ('A' for Active; 'I' for Inactive)
REMARK    1  A    between atoms: C_1  and  N_2
REMARK    2  A    between atoms: C_4  and  C_5
REMARK    3  A    between atoms: C_9  and  C_11
REMARK    4  A    between atoms: C_11  and  N_12
REMARK                            x       y       z     vdW  Elec       q    Type
REMARK                         _______ _______ _______ _____ _____    ______ ____
ROOT
ATOM      1  C   UNL     1       1.124  10.487  19.545  0.00  0.00    +0.000 C 
ATOM      2  C   UNL     1       1.724  10.226  18.154  0.00  0.00    +0.000 C 
ATOM      3  C   UNL     1       1.642   8.776  17.674  0.00  0.00    +0.000 C 
ATOM      4  N   UNL     1       1.972   7.843  18.747  0.00  0.00    +0.000 N 
ATOM      5  C   UNL     1       3.064   6.988  18.643  0.00  0.00    +0.000 C 
ATOM      6  O   UNL     1       3.821   7.003  17.661  0.00  0.00    +0.000 OA
ATOM      7  C   UNL     1       1.131   7.984  19.928  0.00  0.00    +0.000 C 
ATOM      8  C   UNL     1       1.384   9.349  20.544  0.00  0.00    +0.000 C 
ENDROOT
BRANCH   1  12
ATOM      9  C   UNL     1      -2.841  13.115  20.640  0.00  0.00    +0.000 C 
ATOM     10  N   UNL     1      -2.042  12.078  20.034  0.00  0.00    +0.000 N 
ATOM     11  N   UNL     1      -0.802  11.776  20.511  0.00  0.00    +0.000 NA
ATOM     12  C   UNL     1      -0.326  10.904  19.608  0.00  0.00    +0.000 A 
ATOM     13  C   UNL     1      -1.279  10.621  18.588  0.00  0.00    +0.000 A 
ATOM     14  C   UNL     1      -1.317   9.861  17.410  0.00  0.00    +0.000 A 
ATOM     15  C   UNL     1      -2.450   9.980  16.603  0.00  0.00    +0.000 A 
ATOM     16  C   UNL     1      -3.470  10.830  17.003  0.00  0.00    +0.000 A 
ATOM     17  N   UNL     1      -3.490  11.572  18.138  0.00  0.00    +0.000 NA
ATOM     18  C   UNL     1      -2.368  11.424  18.878  0.00  0.00    +0.000 A 
ENDBRANCH   1  12
BRANCH   5  19
ATOM     19  C   UNL     1       3.346   6.012  19.806  0.00  0.00    +0.000 C 
BRANCH  19  20
ATOM     20  N   UNL     1       2.751   4.675  19.577  0.00  0.00    +0.000 NA
ATOM     21  C   UNL     1       1.619   4.425  20.481  0.00  0.00    +0.000 C 
ATOM     22  C   UNL     1       1.096   3.000  20.302  0.00  0.00    +0.000 C 
ATOM     23  C   UNL     1       0.706   2.725  18.855  0.00  0.00    +0.000 C 
ATOM     24  C   UNL     1       1.846   3.092  17.911  0.00  0.00    +0.000 C 
ATOM     25  C   UNL     1       2.351   4.514  18.173  0.00  0.00    +0.000 C 
ENDBRANCH  19  20
ENDBRANCH   5  19
TORSDOF 3
ENDMDL
MODEL 7
REMARK VINA RESULT:      -6.9      2.752      4.128
REMARK  Name = 
REMARK  4 active torsions:
REMARK  status: ('A' for Active; 'I' for Inactive)
REMARK    1  A    between atoms: C_1  and  N_2
REMARK    2  A    between atoms: C_4  and  C_5
REMARK    3  A    between atoms: C_9  and  C_11
REMARK    4  A    between atoms: C_11  and  N_12
REMARK                            x       y       z     vdW  Elec       q    Type
REMARK                         _______ _______ _______ _____ _____    ______ ____
ROOT
ATOM      1  C   UNL     1       0.026   9.826  19.946  0.00  0.00    +0.000 C 
ATOM      2  C   UNL     1       0.140   8.810  21.094  0.00  0.00    +0.000 C 
ATOM      3  C   UNL     1       1.492   8.106  21.207  0.00  0.00    +0.000 C 
ATOM      4  N   UNL     1       1.995   7.711  19.894  0.00  0.00    +0.000 N 
ATOM      5  C   UNL     1       2.211   6.374  19.582  0.00  0.00    +0.000 C 
ATOM      6  O   UNL     1       1.956   5.461  20.381  0.00  0.00    +0.000 OA
ATOM      7  C   UNL     1       2.131   8.820  18.959  0.00  0.00    +0.000 C 
ATOM      8  C   UNL     1       0.749   9.379  18.666  0.00  0.00    +0.000 C 
ENDROOT
BRANCH   1  12
ATOM      9  C   UNL     1       1.309  14.480  19.232  0.00  0.00    +0.000 C 
ATOM     10  N   UNL     1       0.869  13.301  19.937  0.00  0.00    +0.000 N 
ATOM     11  N   UNL     1       1.036  12.059  19.403  0.00  0.00    +0.000 NA
ATOM     12  C   UNL     1       0.368  11.263  20.254  0.00  0.00    +0.000 A 
ATOM     13  C   UNL     1      -0.179  11.994  21.347  0.00  0.00    +0.000 A 
ATOM     14  C   UNL     1      -0.980  11.713  22.463  0.00  0.00    +0.000 A 
ATOM     15  C   UNL     1      -1.415  12.793  23.233  0.00  0.00    +0.000 A 
ATOM     16  C   UNL     1      -1.034  14.075  22.863  0.00  0.00    +0.000 A 
ATOM     17  N   UNL     1      -0.249  14.399  21.805  0.00  0.00    +0.000 NA
ATOM     18  C   UNL     1       0.137  13.317  21.092  0.00  0.00    +0.000 A 
ENDBRANCH   1  12
BRANCH   5  19
ATOM     19  C   UNL     1       2.761   6.026  18.182  0.00  0.00    +0.000 C 
BRANCH  19  20
ATOM     20  N   UNL     1       4.242   6.023  18.143  0.00  0.00    +0.000 NA
ATOM     21  C   UNL     1       4.784   4.666  18.305  0.00  0.00    +0.000 C 
ATOM     22  C   UNL     1       6.310   4.704  18.373  0.00  0.00    +0.000 C 
ATOM     23  C   UNL     1       6.908   5.383  17.147  0.00  0.00    +0.000 C 
ATOM     24  C   UNL     1       6.262   6.745  16.918  0.00  0.00    +0.000 C 
ATOM     25  C   UNL     1       4.734   6.642  16.904  0.00  0.00    +0.000 C 
ENDBRANCH  19  20
ENDBRANCH   5  19
TORSDOF 3
ENDMDL
MODEL 8
REMARK VINA RESULT:      -6.8      2.343      3.630
REMARK  Name = 
REMARK  4 active torsions:
REMARK  status: ('A' for Active; 'I' for Inactive)
REMARK    1  A    between atoms: C_1  and  N_2
REMARK    2  A    between atoms: C_4  and  C_5
REMARK    3  A    between atoms: C_9  and  C_11
REMARK    4  A    between atoms: C_11  and  N_12
REMARK                            x       y       z     vdW  Elec       q    Type
REMARK                         _______ _______ _______ _____ _____    ______ ____
ROOT
ATOM      1  C   UNL     1      -0.292  10.200  20.251  0.00  0.00    +0.000 C 
ATOM      2  C   UNL     1      -0.054   9.315  21.485  0.00  0.00    +0.000 C 
ATOM      3  C   UNL     1       1.317   8.641  21.547  0.00  0.00    +0.000 C 
ATOM      4  N   UNL     1       1.706   8.112  20.243  0.00  0.00    +0.000 N 
ATOM      5  C   UNL     1       1.920   6.751  20.055  0.00  0.00    +0.000 C 
ATOM      6  O   UNL     1       1.757   5.927  20.967  0.00  0.00    +0.000 OA
ATOM      7  C   UNL     1       1.735   9.116  19.187  0.00  0.00    +0.000 C 
ATOM      8  C   UNL     1       0.322   9.625  18.964  0.00  0.00    +0.000 C 
ENDROOT
BRANCH   1  12
ATOM      9  C   UNL     1       0.778  14.775  18.931  0.00  0.00    +0.000 C 
ATOM     10  N   UNL     1       0.456  13.668  19.797  0.00  0.00    +0.000 N 
ATOM     11  N   UNL     1       0.589  12.380  19.372  0.00  0.00    +0.000 NA
ATOM     12  C   UNL     1       0.049  11.665  20.372  0.00  0.00    +0.000 A 
ATOM     13  C   UNL     1      -0.382  12.496  21.446  0.00  0.00    +0.000 A 
ATOM     14  C   UNL     1      -1.037  12.318  22.674  0.00  0.00    +0.000 A 
ATOM     15  C   UNL     1      -1.404  13.464  23.380  0.00  0.00    +0.000 A 
ATOM     16  C   UNL     1      -1.103  14.707  22.842  0.00  0.00    +0.000 A 
ATOM     17  N   UNL     1      -0.458  14.933  21.670  0.00  0.00    +0.000 NA
ATOM     18  C   UNL     1      -0.133  13.790  21.025  0.00  0.00    +0.000 A 
ENDBRANCH   1  12
BRANCH   5  19
ATOM     19  C   UNL     1       2.348   6.261  18.655  0.00  0.00    +0.000 C 
BRANCH  19  20
ATOM     20  N   UNL     1       2.609   4.803  18.624  0.00  0.00    +0.000 NA
ATOM     21  C   UNL     1       1.417   4.049  18.212  0.00  0.00    +0.000 C 
ATOM     22  C   UNL     1       1.679   2.545  18.296  0.00  0.00    +0.000 C 
ATOM     23  C   UNL     1       2.889   2.142  17.463  0.00  0.00    +0.000 C 
ATOM     24  C   UNL     1       4.096   3.004  17.816  0.00  0.00    +0.000 C 
ATOM     25  C   UNL     1       3.754   4.495  17.755  0.00  0.00    +0.000 C 
ENDBRANCH  19  20
ENDBRANCH   5  19
TORSDOF 3
ENDMDL
MODEL 9
REMARK VINA RESULT:      -6.7      2.139      7.705
REMARK  Name = 
REMARK  4 active torsions:
REMARK  status: ('A' for Active; 'I' for Inactive)
REMARK    1  A    between atoms: C_1  and  N_2
REMARK    2  A    between atoms: C_4  and  C_5
REMARK    3  A    between atoms: C_9  and  C_11
REMARK    4  A    between atoms: C_11  and  N_12
REMARK                            x       y       z     vdW  Elec       q    Type
REMARK                         _______ _______ _______ _____ _____    ______ ____
ROOT
ATOM      1  C   UNL     1       2.173   8.097  20.268  0.00  0.00    +0.000 C 
ATOM      2  C   UNL     1       1.472   8.516  21.571  0.00  0.00    +0.000 C 
ATOM      3  C   UNL     1      -0.021   8.817  21.437  0.00  0.00    +0.000 C 
ATOM      4  N   UNL     1      -0.300   9.592  20.231  0.00  0.00    +0.000 N 
ATOM      5  C   UNL     1      -0.854  10.864  20.309  0.00  0.00    +0.000 C 
ATOM      6  O   UNL     1      -1.101  11.410  21.395  0.00  0.00    +0.000 OA
ATOM      7  C   UNL     1       0.151   8.951  19.003  0.00  0.00    +0.000 C 
ATOM      8  C   UNL     1       1.667   8.859  19.033  0.00  0.00    +0.000 C 
ENDROOT
BRANCH   1  12
ATOM      9  C   UNL     1       0.814   3.423  19.917  0.00  0.00    +0.000 C 
ATOM     10  N   UNL     1       1.634   4.598  19.758  0.00  0.00    +0.000 N 
ATOM     11  N   UNL     1       1.415   5.716  20.505  0.00  0.00    +0.000 NA
ATOM     12  C   UNL     1       2.247   6.620  19.965  0.00  0.00    +0.000 A 
ATOM     13  C   UNL     1       3.024   6.063  18.909  0.00  0.00    +0.000 A 
ATOM     14  C   UNL     1       3.976   6.526  17.989  0.00  0.00    +0.000 A 
ATOM     15  C   UNL     1       4.397   5.639  16.997  0.00  0.00    +0.000 A 
ATOM     16  C   UNL     1       3.863   4.359  16.972  0.00  0.00    +0.000 A 
ATOM     17  N   UNL     1       2.955   3.858  17.846  0.00  0.00    +0.000 NA
ATOM     18  C   UNL     1       2.577   4.759  18.781  0.00  0.00    +0.000 A 
ENDBRANCH   1  12
BRANCH   5  19
ATOM     19  C   UNL     1      -1.141  11.623  18.995  0.00  0.00    +0.000 C 
BRANCH  19  20
ATOM     20  N   UNL     1      -2.443  11.245  18.399  0.00  0.00    +0.000 NA
ATOM     21  C   UNL     1      -3.546  12.033  18.966  0.00  0.00    +0.000 C 
ATOM     22  C   UNL     1      -4.888  11.548  18.417  0.00  0.00    +0.000 C 
ATOM     23  C   UNL     1      -4.918  11.591  16.894  0.00  0.00    +0.000 C 
ATOM     24  C   UNL     1      -3.709  10.866  16.312  0.00  0.00    +0.000 C 
ATOM     25  C   UNL     1      -2.403  11.369  16.935  0.00  0.00    +0.000 C 
ENDBRANCH  19  20
ENDBRANCH   5  19
TORSDOF 3
ENDMDL
