MODEL 1
REMARK VINA RESULT:      -8.9      0.000      0.000
REMARK  Name = 
REMARK  7 active torsions:
REMARK  status: ('A' for Active; 'I' for Inactive)
REMARK    1  A    between atoms: O_1  and  C_2
REMARK    2  A    between atoms: C_2  and  C_3
REMARK    3  A    between atoms: C_2  and  C_14
REMARK    4  A    between atoms: C_2  and  C_21
REMARK    5  A    between atoms: C_3  and  C_4
REMARK    6  A    between atoms: C_4  and  N_5
REMARK    7  A    between atoms: C_14  and  C_15
REMARK                            x       y       z     vdW  Elec       q    Type
REMARK                         _______ _______ _______ _____ _____    ______ ____
ROOT
ATOM      1  C   UNL     1       5.615   5.726  16.403  0.00  0.00    +0.000 C 
ENDROOT
BRANCH   1   2
ATOM      2  C   UNL     1       6.693   6.429  17.179  0.00  0.00    +0.000 A 
ATOM      3  C   UNL     1       7.431   6.109  18.305  0.00  0.00    +0.000 A 
ATOM      4  C   UNL     1       8.194   7.253  18.632  0.00  0.00    +0.000 A 
ATOM      5  C   UNL     1       7.895   8.197  17.679  0.00  0.00    +0.000 A 
ATOM      6  O   UNL     1       7.023   7.694  16.767  0.00  0.00    +0.000 OA
ENDBRANCH   1   2
BRANCH   1   7
ATOM      7  O   UNL     1       5.186   6.627  15.373  0.00  0.00    +0.000 OA
ATOM      8  H   UNL     1       4.422   7.118  15.716  0.00  0.00    +0.000 HD
ENDBRANCH   1   7
BRANCH   1   9
ATOM      9  C   UNL     1       4.387   5.359  17.281  0.00  0.00    +0.000 C 
BRANCH   9  10
ATOM     10  C   UNL     1       4.123   3.855  17.505  0.00  0.00    +0.000 C 
BRANCH  10  11
ATOM     11  N   UNL     1       4.137   3.474  18.936  0.00  0.00    +0.000 NA
ATOM     12  C   UNL     1       3.886   4.553  19.890  0.00  0.00    +0.000 C 
ATOM     13  C   UNL     1       2.460   4.757  20.446  0.00  0.00    +0.000 C 
ATOM     14  C   UNL     1       2.154   3.770  21.584  0.00  0.00    +0.000 C 
ATOM     15  C   UNL     1       1.665   2.421  21.074  0.00  0.00    +0.000 C 
ATOM     16  C   UNL     1       1.940   2.222  19.578  0.00  0.00    +0.000 C 
ATOM     17  C   UNL     1       1.156   3.283  18.798  0.00  0.00    +0.000 C 
ATOM     18  C   UNL     1       1.361   4.691  19.376  0.00  0.00    +0.000 C 
ATOM     19  C   UNL     1       3.456   2.211  19.248  0.00  0.00    +0.000 C 
ENDBRANCH  10  11
ENDBRANCH   9  10
ENDBRANCH   1   9
BRANCH   1  20
ATOM     20  C   UNL     1       6.144   4.396  15.772  0.00  0.00    +0.000 C 
BRANCH  20  21
ATOM     21  C   UNL     1       6.466   4.366  14.290  0.00  0.00    +0.000 A 
ATOM     22  C   UNL     1       7.519   5.147  13.783  0.00  0.00    +0.000 A 
ATOM     23  C   UNL     1       7.872   5.085  12.433  0.00  0.00    +0.000 A 
ATOM     24  C   UNL     1       7.172   4.243  11.572  0.00  0.00    +0.000 A 
ATOM     25  C   UNL     1       6.121   3.466  12.059  0.00  0.00    +0.000 A 
ATOM     26  C   UNL     1       5.768   3.529  13.413  0.00  0.00    +0.000 A 
ENDBRANCH  20  21
ENDBRANCH   1  20
TORSDOF 7
ENDMDL
MODEL 2
REMARK VINA RESULT:      -8.8      0.739      1.388
REMARK  Name = 
REMARK  7 active torsions:
REMARK  status: ('A' for Active; 'I' for Inactive)
REMARK    1  A    between atoms: O_1  and  C_2
REMARK    2  A    between atoms: C_2  and  C_3
REMARK    3  A    between atoms: C_2  and  C_14
REMARK    4  A    between atoms: C_2  and  C_21
REMARK    5  A    between atoms: C_3  and  C_4
REMARK    6  A    between atoms: C_4  and  N_5
REMARK    7  A    between atoms: C_14  and  C_15
REMARK                            x       y       z     vdW  Elec       q    Type
REMARK                         _______ _______ _______ _____ _____    ______ ____
ROOT
ATOM      1  C   UNL     1       5.293   6.185  16.313  0.00  0.00    +0.000 C 
ENDROOT
BRANCH   1   2
ATOM      2  C   UNL     1       6.489   6.610  17.119  0.00  0.00    +0.000 A 
ATOM      3  C   UNL     1       7.211   6.028  18.146  0.00  0.00    +0.000 A 
ATOM      4  C   UNL     1       8.143   6.994  18.588  0.00  0.00    +0.000 A 
ATOM      5  C   UNL     1       7.952   8.100  17.795  0.00  0.00    +0.000 A 
ATOM      6  O   UNL     1       6.985   7.863  16.871  0.00  0.00    +0.000 OA
ENDBRANCH   1   2
BRANCH   1   7
ATOM      7  O   UNL     1       5.216   7.067  15.185  0.00  0.00    +0.000 OA
ATOM      8  H   UNL     1       5.229   6.518  14.384  0.00  0.00    +0.000 HD
ENDBRANCH   1   7
BRANCH   1   9
ATOM      9  C   UNL     1       3.965   6.287  17.112  0.00  0.00    +0.000 C 
BRANCH   9  10
ATOM     10  C   UNL     1       3.394   4.966  17.673  0.00  0.00    +0.000 C 
BRANCH  10  11
ATOM     11  N   UNL     1       3.460   4.892  19.150  0.00  0.00    +0.000 NA
ATOM     12  C   UNL     1       2.233   5.239  19.866  0.00  0.00    +0.000 C 
ATOM     13  C   UNL     1       1.278   4.115  20.324  0.00  0.00    +0.000 C 
ATOM     14  C   UNL     1       1.769   3.456  21.622  0.00  0.00    +0.000 C 
ATOM     15  C   UNL     1       2.796   2.359  21.370  0.00  0.00    +0.000 C 
ATOM     16  C   UNL     1       3.378   2.411  19.953  0.00  0.00    +0.000 C 
ATOM     17  C   UNL     1       2.241   2.169  18.955  0.00  0.00    +0.000 C 
ATOM     18  C   UNL     1       1.017   3.047  19.251  0.00  0.00    +0.000 C 
ATOM     19  C   UNL     1       4.166   3.719  19.681  0.00  0.00    +0.000 C 
ENDBRANCH  10  11
ENDBRANCH   9  10
ENDBRANCH   1   9
BRANCH   1  20
ATOM     20  C   UNL     1       5.430   4.703  15.832  0.00  0.00    +0.000 C 
BRANCH  20  21
ATOM     21  C   UNL     1       6.013   4.430  14.459  0.00  0.00    +0.000 A 
ATOM     22  C   UNL     1       5.295   3.659  13.529  0.00  0.00    +0.000 A 
ATOM     23  C   UNL     1       5.787   3.449  12.238  0.00  0.00    +0.000 A 
ATOM     24  C   UNL     1       7.007   4.007  11.862  0.00  0.00    +0.000 A 
ATOM     25  C   UNL     1       7.734   4.769  12.776  0.00  0.00    +0.000 A 
ATOM     26  C   UNL     1       7.240   4.979  14.070  0.00  0.00    +0.000 A 
ENDBRANCH  20  21
ENDBRANCH   1  20
TORSDOF 7
ENDMDL
MODEL 3
REMARK VINA RESULT:      -8.7      0.696      1.299
REMARK  Name = 
REMARK  7 active torsions:
REMARK  status: ('A' for Active; 'I' for Inactive)
REMARK    1  A    between atoms: O_1  and  C_2
REMARK    2  A    between atoms: C_2  and  C_3
REMARK    3  A    between atoms: C_2  and  C_14
REMARK    4  A    between atoms: C_2  and  C_21
REMARK    5  A    between atoms: C_3  and  C_4
REMARK    6  A    between atoms: C_4  and  N_5
REMARK    7  A    between atoms: C_14  and  C_15
REMARK                            x       y       z     vdW  Elec       q    Type
REMARK                         _______ _______ _______ _____ _____    ______ ____
ROOT
ATOM      1  C   UNL     1       5.285   5.693  16.480  0.00  0.00    +0.000 C 
ENDROOT
BRANCH   1   2
ATOM      2  C   UNL     1       6.369   6.262  17.352  0.00  0.00    +0.000 A 
ATOM      3  C   UNL     1       7.158   7.398  17.285  0.00  0.00    +0.000 A 
ATOM      4  C   UNL     1       8.100   7.301  18.334  0.00  0.00    +0.000 A 
ATOM      5  C   UNL     1       7.822   6.127  18.991  0.00  0.00    +0.000 A 
ATOM      6  O   UNL     1       6.746   5.512  18.434  0.00  0.00    +0.000 OA
ENDBRANCH   1   2
BRANCH   1   7
ATOM      7  O   UNL     1       5.022   6.661  15.455  0.00  0.00    +0.000 OA
ATOM      8  H   UNL     1       4.102   6.539  15.168  0.00  0.00    +0.000 HD
ENDBRANCH   1   7
BRANCH   1   9
ATOM      9  C   UNL     1       3.967   5.427  17.258  0.00  0.00    +0.000 C 
BRANCH   9  10
ATOM     10  C   UNL     1       3.550   3.950  17.426  0.00  0.00    +0.000 C 
BRANCH  10  11
ATOM     11  N   UNL     1       3.767   3.442  18.799  0.00  0.00    +0.000 NA
ATOM     12  C   UNL     1       3.764   4.446  19.863  0.00  0.00    +0.000 C 
ATOM     13  C   UNL     1       2.471   4.695  20.668  0.00  0.00    +0.000 C 
ATOM     14  C   UNL     1       2.276   3.633  21.761  0.00  0.00    +0.000 C 
ATOM     15  C   UNL     1       1.601   2.371  21.239  0.00  0.00    +0.000 C 
ATOM     16  C   UNL     1       1.610   2.290  19.707  0.00  0.00    +0.000 C 
ATOM     17  C   UNL     1       0.798   3.467  19.157  0.00  0.00    +0.000 C 
ATOM     18  C   UNL     1       1.209   4.800  19.798  0.00  0.00    +0.000 C 
ATOM     19  C   UNL     1       3.045   2.206  19.124  0.00  0.00    +0.000 C 
ENDBRANCH  10  11
ENDBRANCH   9  10
ENDBRANCH   1   9
BRANCH   1  20
ATOM     20  C   UNL     1       5.724   4.334  15.841  0.00  0.00    +0.000 C 
BRANCH  20  21
ATOM     21  C   UNL     1       6.285   4.335  14.431  0.00  0.00    +0.000 A 
ATOM     22  C   UNL     1       5.640   3.607  13.417  0.00  0.00    +0.000 A 
ATOM     23  C   UNL     1       6.104   3.646  12.100  0.00  0.00    +0.000 A 
ATOM     24  C   UNL     1       7.222   4.414  11.781  0.00  0.00    +0.000 A 
ATOM     25  C   UNL     1       7.876   5.137  12.779  0.00  0.00    +0.000 A 
ATOM     26  C   UNL     1       7.410   5.097  14.099  0.00  0.00    +0.000 A 
ENDBRANCH  20  21
ENDBRANCH   1  20
TORSDOF 7
ENDMDL
MODEL 4
REMARK VINA RESULT:      -8.7      0.911      1.635
REMARK  Name = 
REMARK  7 active torsions:
REMARK  status: ('A' for Active; 'I' for Inactive)
REMARK    1  A    between atoms: O_1  and  C_2
REMARK    2  A    between atoms: C_2  and  C_3
REMARK    3  A    between atoms: C_2  and  C_14
REMARK    4  A    between atoms: C_2  and  C_21
REMARK    5  A    between atoms: C_3  and  C_4
REMARK    6  A    between atoms: C_4  and  N_5
REMARK    7  A    between atoms: C_14  and  C_15
REMARK                            x       y       z     vdW  Elec       q    Type
REMARK                         _______ _______ _______ _____ _____    ______ ____
ROOT
ATOM      1  C   UNL     1       5.337   6.175  16.331  0.00  0.00    +0.000 C 
ENDROOT
BRANCH   1   2
ATOM      2  C   UNL     1       6.529   6.629  17.126  0.00  0.00    +0.000 A 
ATOM      3  C   UNL     1       7.317   6.038  18.097  0.00  0.00    +0.000 A 
ATOM      4  C   UNL     1       8.202   7.035  18.568  0.00  0.00    +0.000 A 
ATOM      5  C   UNL     1       7.918   8.169  17.845  0.00  0.00    +0.000 A 
ATOM      6  O   UNL     1       6.938   7.923  16.937  0.00  0.00    +0.000 OA
ENDBRANCH   1   2
BRANCH   1   7
ATOM      7  O   UNL     1       5.221   7.061  15.209  0.00  0.00    +0.000 OA
ATOM      8  H   UNL     1       5.711   6.662  14.472  0.00  0.00    +0.000 HD
ENDBRANCH   1   7
BRANCH   1   9
ATOM      9  C   UNL     1       4.015   6.233  17.145  0.00  0.00    +0.000 C 
BRANCH   9  10
ATOM     10  C   UNL     1       4.011   5.507  18.508  0.00  0.00    +0.000 C 
BRANCH  10  11
ATOM     11  N   UNL     1       2.646   5.223  19.006  0.00  0.00    +0.000 NA
ATOM     12  C   UNL     1       1.781   4.462  18.106  0.00  0.00    +0.000 C 
ATOM     13  C   UNL     1       1.654   2.934  18.287  0.00  0.00    +0.000 C 
ATOM     14  C   UNL     1       0.676   2.582  19.418  0.00  0.00    +0.000 C 
ATOM     15  C   UNL     1       1.335   2.600  20.791  0.00  0.00    +0.000 C 
ATOM     16  C   UNL     1       2.693   3.313  20.782  0.00  0.00    +0.000 C 
ATOM     17  C   UNL     1       3.641   2.537  19.863  0.00  0.00    +0.000 C 
ATOM     18  C   UNL     1       2.997   2.221  18.505  0.00  0.00    +0.000 C 
ATOM     19  C   UNL     1       2.572   4.816  20.414  0.00  0.00    +0.000 C 
ENDBRANCH  10  11
ENDBRANCH   9  10
ENDBRANCH   1   9
BRANCH   1  20
ATOM     20  C   UNL     1       5.510   4.700  15.839  0.00  0.00    +0.000 C 
BRANCH  20  21
ATOM     21  C   UNL     1       5.997   4.453  14.424  0.00  0.00    +0.000 A 
ATOM     22  C   UNL     1       7.224   4.990  13.998  0.00  0.00    +0.000 A 
ATOM     23  C   UNL     1       7.719   4.721  12.720  0.00  0.00    +0.000 A 
ATOM     24  C   UNL     1       6.991   3.913  11.850  0.00  0.00    +0.000 A 
ATOM     25  C   UNL     1       5.769   3.378  12.256  0.00  0.00    +0.000 A 
ATOM     26  C   UNL     1       5.273   3.647  13.538  0.00  0.00    +0.000 A 
ENDBRANCH  20  21
ENDBRANCH   1  20
TORSDOF 7
ENDMDL
MODEL 5
REMARK VINA RESULT:      -8.7      0.907      1.928
REMARK  Name = 
REMARK  7 active torsions:
REMARK  status: ('A' for Active; 'I' for Inactive)
REMARK    1  A    between atoms: O_1  and  C_2
REMARK    2  A    between atoms: C_2  and  C_3
REMARK    3  A    between atoms: C_2  and  C_14
REMARK    4  A    between atoms: C_2  and  C_21
REMARK    5  A    between atoms: C_3  and  C_4
REMARK    6  A    between atoms: C_4  and  N_5
REMARK    7  A    between atoms: C_14  and  C_15
REMARK                            x       y       z     vdW  Elec       q    Type
REMARK                         _______ _______ _______ _____ _____    ______ ____
ROOT
ATOM      1  C   UNL     1       5.371   6.216  16.347  0.00  0.00    +0.000 C 
ENDROOT
BRANCH   1   2
ATOM      2  C   UNL     1       6.555   6.649  17.166  0.00  0.00    +0.000 A 
ATOM      3  C   UNL     1       7.278   6.067  18.192  0.00  0.00    +0.000 A 
ATOM      4  C   UNL     1       8.194   7.041  18.650  0.00  0.00    +0.000 A 
ATOM      5  C   UNL     1       7.993   8.152  17.867  0.00  0.00    +0.000 A 
ATOM      6  O   UNL     1       7.036   7.911  16.934  0.00  0.00    +0.000 OA
ENDBRANCH   1   2
BRANCH   1   7
ATOM      7  O   UNL     1       5.308   7.088  15.211  0.00  0.00    +0.000 OA
ATOM      8  H   UNL     1       6.075   6.890  14.649  0.00  0.00    +0.000 HD
ENDBRANCH   1   7
BRANCH   1   9
ATOM      9  C   UNL     1       4.032   6.323  17.128  0.00  0.00    +0.000 C 
BRANCH   9  10
ATOM     10  C   UNL     1       4.049   5.850  18.598  0.00  0.00    +0.000 C 
BRANCH  10  11
ATOM     11  N   UNL     1       2.725   5.387  19.070  0.00  0.00    +0.000 NA
ATOM     12  C   UNL     1       1.859   4.782  18.059  0.00  0.00    +0.000 C 
ATOM     13  C   UNL     1       1.819   3.245  17.917  0.00  0.00    +0.000 C 
ATOM     14  C   UNL     1       0.913   2.605  18.980  0.00  0.00    +0.000 C 
ATOM     15  C   UNL     1       1.633   2.374  20.302  0.00  0.00    +0.000 C 
ATOM     16  C   UNL     1       2.951   3.153  20.399  0.00  0.00    +0.000 C 
ATOM     17  C   UNL     1       3.894   2.645  19.303  0.00  0.00    +0.000 C 
ATOM     18  C   UNL     1       3.206   2.584  17.932  0.00  0.00    +0.000 C 
ATOM     19  C   UNL     1       2.737   4.690  20.362  0.00  0.00    +0.000 C 
ENDBRANCH  10  11
ENDBRANCH   9  10
ENDBRANCH   1   9
BRANCH   1  20
ATOM     20  C   UNL     1       5.515   4.730  15.881  0.00  0.00    +0.000 C 
BRANCH  20  21
ATOM     21  C   UNL     1       6.064   4.447  14.496  0.00  0.00    +0.000 A 
ATOM     22  C   UNL     1       5.318   3.676  13.587  0.00  0.00    +0.000 A 
ATOM     23  C   UNL     1       5.778   3.458  12.286  0.00  0.00    +0.000 A 
ATOM     24  C   UNL     1       6.992   4.007  11.878  0.00  0.00    +0.000 A 
ATOM     25  C   UNL     1       7.745   4.769  12.771  0.00  0.00    +0.000 A 
ATOM     26  C   UNL     1       7.284   4.987  14.075  0.00  0.00    +0.000 A 
ENDBRANCH  20  21
ENDBRANCH   1  20
TORSDOF 7
ENDMDL
MODEL 6
REMARK VINA RESULT:      -8.6      0.999      1.371
REMARK  Name = 
REMARK  7 active torsions:
REMARK  status: ('A' for Active; 'I' for Inactive)
REMARK    1  A    between atoms: O_1  and  C_2
REMARK    2  A    between atoms: C_2  and  C_3
REMARK    3  A    between atoms: C_2  and  C_14
REMARK    4  A    between atoms: C_2  and  C_21
REMARK    5  A    between atoms: C_3  and  C_4
REMARK    6  A    between atoms: C_4  and  N_5
REMARK    7  A    between atoms: C_14  and  C_15
REMARK                            x       y       z     vdW  Elec       q    Type
REMARK                         _______ _______ _______ _____ _____    ______ ____
ROOT
ATOM      1  C   UNL     1       5.133   6.184  16.470  0.00  0.00    +0.000 C 
ENDROOT
BRANCH   1   2
ATOM      2  C   UNL     1       6.297   6.533  17.356  0.00  0.00    +0.000 A 
ATOM      3  C   UNL     1       7.203   7.579  17.384  0.00  0.00    +0.000 A 
ATOM      4  C   UNL     1       8.158   7.265  18.378  0.00  0.00    +0.000 A 
ATOM      5  C   UNL     1       7.770   6.059  18.913  0.00  0.00    +0.000 A 
ATOM      6  O   UNL     1       6.619   5.629  18.334  0.00  0.00    +0.000 OA
ENDBRANCH   1   2
BRANCH   1   7
ATOM      7  O   UNL     1       5.145   7.115  15.380  0.00  0.00    +0.000 OA
ATOM      8  H   UNL     1       6.069   7.370  15.225  0.00  0.00    +0.000 HD
ENDBRANCH   1   7
BRANCH   1   9
ATOM      9  C   UNL     1       3.768   6.297  17.202  0.00  0.00    +0.000 C 
BRANCH   9  10
ATOM     10  C   UNL     1       3.164   4.983  17.743  0.00  0.00    +0.000 C 
BRANCH  10  11
ATOM     11  N   UNL     1       3.208   4.893  19.220  0.00  0.00    +0.000 NA
ATOM     12  C   UNL     1       1.939   5.106  19.914  0.00  0.00    +0.000 C 
ATOM     13  C   UNL     1       1.092   3.886  20.338  0.00  0.00    +0.000 C 
ATOM     14  C   UNL     1       1.621   3.259  21.637  0.00  0.00    +0.000 C 
ATOM     15  C   UNL     1       2.756   2.273  21.393  0.00  0.00    +0.000 C 
ATOM     16  C   UNL     1       3.357   2.404  19.988  0.00  0.00    +0.000 C 
ATOM     17  C   UNL     1       2.269   2.066  18.964  0.00  0.00    +0.000 C 
ATOM     18  C   UNL     1       0.958   2.814  19.247  0.00  0.00    +0.000 C 
ATOM     19  C   UNL     1       4.017   3.788  19.750  0.00  0.00    +0.000 C 
ENDBRANCH  10  11
ENDBRANCH   9  10
ENDBRANCH   1   9
BRANCH   1  20
ATOM     20  C   UNL     1       5.248   4.719  15.932  0.00  0.00    +0.000 C 
BRANCH  20  21
ATOM     21  C   UNL     1       5.840   4.491  14.554  0.00  0.00    +0.000 A 
ATOM     22  C   UNL     1       7.106   5.013  14.236  0.00  0.00    +0.000 A 
ATOM     23  C   UNL     1       7.695   4.760  12.995  0.00  0.00    +0.000 A 
ATOM     24  C   UNL     1       7.023   3.982  12.054  0.00  0.00    +0.000 A 
ATOM     25  C   UNL     1       5.763   3.462  12.354  0.00  0.00    +0.000 A 
ATOM     26  C   UNL     1       5.173   3.717  13.598  0.00  0.00    +0.000 A 
ENDBRANCH  20  21
ENDBRANCH   1  20
TORSDOF 7
ENDMDL
MODEL 7
REMARK VINA RESULT:      -8.5      0.725      1.258
REMARK  Name = 
REMARK  7 active torsions:
REMARK  status: ('A' for Active; 'I' for Inactive)
REMARK    1  A    between atoms: O_1  and  C_2
REMARK    2  A    between atoms: C_2  and  C_3
REMARK    3  A    between atoms: C_2  and  C_14
REMARK    4  A    between atoms: C_2  and  C_21
REMARK    5  A    between atoms: C_3  and  C_4
REMARK    6  A    between atoms: C_4  and  N_5
REMARK    7  A    between atoms: C_14  and  C_15
REMARK                            x       y       z     vdW  Elec       q    Type
REMARK                         _______ _______ _______ _____ _____    ______ ____
ROOT
ATOM      1  C   UNL     1       6.137   5.796  16.676  0.00  0.00    +0.000 C 
ENDROOT
BRANCH   1   2
ATOM      2  C   UNL     1       7.087   6.744  17.353  0.00  0.00    +0.000 A 
ATOM      3  C   UNL     1       7.891   6.659  18.477  0.00  0.00    +0.000 A 
ATOM      4  C   UNL     1       8.444   7.944  18.680  0.00  0.00    +0.000 A 
ATOM      5  C   UNL     1       7.964   8.733  17.662  0.00  0.00    +0.000 A 
ATOM      6  O   UNL     1       7.179   8.006  16.826  0.00  0.00    +0.000 OA
ENDBRANCH   1   2
BRANCH   1   7
ATOM      7  O   UNL     1       5.452   6.545  15.663  0.00  0.00    +0.000 OA
ATOM      8  H   UNL     1       5.368   5.972  14.884  0.00  0.00    +0.000 HD
ENDBRANCH   1   7
BRANCH   1   9
ATOM      9  C   UNL     1       5.082   5.206  17.652  0.00  0.00    +0.000 C 
BRANCH   9  10
ATOM     10  C   UNL     1       4.605   3.766  17.365  0.00  0.00    +0.000 C 
BRANCH  10  11
ATOM     11  N   UNL     1       4.013   3.108  18.551  0.00  0.00    +0.000 NA
ATOM     12  C   UNL     1       3.861   3.944  19.740  0.00  0.00    +0.000 C 
ATOM     13  C   UNL     1       2.502   4.619  20.025  0.00  0.00    +0.000 C 
ATOM     14  C   UNL     1       1.512   3.638  20.671  0.00  0.00    +0.000 C 
ATOM     15  C   UNL     1       0.773   2.790  19.644  0.00  0.00    +0.000 C 
ATOM     16  C   UNL     1       1.435   2.832  18.261  0.00  0.00    +0.000 C 
ATOM     17  C   UNL     1       1.380   4.273  17.743  0.00  0.00    +0.000 C 
ATOM     18  C   UNL     1       1.868   5.282  18.793  0.00  0.00    +0.000 C 
ATOM     19  C   UNL     1       2.867   2.235  18.268  0.00  0.00    +0.000 C 
ENDBRANCH  10  11
ENDBRANCH   9  10
ENDBRANCH   1   9
BRANCH   1  20
ATOM     20  C   UNL     1       6.898   4.590  16.035  0.00  0.00    +0.000 C 
BRANCH  20  21
ATOM     21  C   UNL     1       6.945   4.474  14.523  0.00  0.00    +0.000 A 
ATOM     22  C   UNL     1       6.096   3.571  13.860  0.00  0.00    +0.000 A 
ATOM     23  C   UNL     1       6.080   3.495  12.465  0.00  0.00    +0.000 A 
ATOM     24  C   UNL     1       6.916   4.320  11.716  0.00  0.00    +0.000 A 
ATOM     25  C   UNL     1       7.769   5.216  12.361  0.00  0.00    +0.000 A 
ATOM     26  C   UNL     1       7.784   5.292  13.759  0.00  0.00    +0.000 A 
ENDBRANCH  20  21
ENDBRANCH   1  20
TORSDOF 7
ENDMDL
MODEL 8
REMARK VINA RESULT:      -8.5      0.787      1.905
REMARK  Name = 
REMARK  7 active torsions:
REMARK  status: ('A' for Active; 'I' for Inactive)
REMARK    1  A    between atoms: O_1  and  C_2
REMARK    2  A    between atoms: C_2  and  C_3
REMARK    3  A    between atoms: C_2  and  C_14
REMARK    4  A    between atoms: C_2  and  C_21
REMARK    5  A    between atoms: C_3  and  C_4
REMARK    6  A    between atoms: C_4  and  N_5
REMARK    7  A    between atoms: C_14  and  C_15
REMARK                            x       y       z     vdW  Elec       q    Type
REMARK                         _______ _______ _______ _____ _____    ______ ____
ROOT
ATOM      1  C   UNL     1       5.674   5.739  16.299  0.00  0.00    +0.000 C 
ENDROOT
BRANCH   1   2
ATOM      2  C   UNL     1       6.714   6.452  17.116  0.00  0.00    +0.000 A 
ATOM      3  C   UNL     1       7.459   6.112  18.232  0.00  0.00    +0.000 A 
ATOM      4  C   UNL     1       8.167   7.272  18.620  0.00  0.00    +0.000 A 
ATOM      5  C   UNL     1       7.832   8.246  17.710  0.00  0.00    +0.000 A 
ATOM      6  O   UNL     1       6.989   7.749  16.768  0.00  0.00    +0.000 OA
ENDBRANCH   1   2
BRANCH   1   7
ATOM      7  O   UNL     1       5.300   6.625  15.235  0.00  0.00    +0.000 OA
ATOM      8  H   UNL     1       5.116   7.493  15.631  0.00  0.00    +0.000 HD
ENDBRANCH   1   7
BRANCH   1   9
ATOM      9  C   UNL     1       4.403   5.388  17.120  0.00  0.00    +0.000 C 
BRANCH   9  10
ATOM     10  C   UNL     1       3.938   3.916  17.077  0.00  0.00    +0.000 C 
BRANCH  10  11
ATOM     11  N   UNL     1       2.521   3.748  17.470  0.00  0.00    +0.000 NA
ATOM     12  C   UNL     1       2.148   2.429  17.978  0.00  0.00    +0.000 C 
ATOM     13  C   UNL     1       2.107   2.188  19.503  0.00  0.00    +0.000 C 
ATOM     14  C   UNL     1       0.805   2.720  20.121  0.00  0.00    +0.000 C 
ATOM     15  C   UNL     1       0.877   4.206  20.449  0.00  0.00    +0.000 C 
ATOM     16  C   UNL     1       2.057   4.904  19.762  0.00  0.00    +0.000 C 
ATOM     17  C   UNL     1       3.357   4.287  20.289  0.00  0.00    +0.000 C 
ATOM     18  C   UNL     1       3.322   2.752  20.254  0.00  0.00    +0.000 C 
ATOM     19  C   UNL     1       1.946   4.875  18.215  0.00  0.00    +0.000 C 
ENDBRANCH  10  11
ENDBRANCH   9  10
ENDBRANCH   1   9
BRANCH   1  20
ATOM     20  C   UNL     1       6.231   4.398  15.715  0.00  0.00    +0.000 C 
BRANCH  20  21
ATOM     21  C   UNL     1       6.593   4.335  14.243  0.00  0.00    +0.000 A 
ATOM     22  C   UNL     1       5.897   3.468  13.384  0.00  0.00    +0.000 A 
ATOM     23  C   UNL     1       6.172   3.441  12.015  0.00  0.00    +0.000 A 
ATOM     24  C   UNL     1       7.151   4.280  11.488  0.00  0.00    +0.000 A 
ATOM     25  C   UNL     1       7.855   5.142  12.330  0.00  0.00    +0.000 A 
ATOM     26  C   UNL     1       7.578   5.169  13.702  0.00  0.00    +0.000 A 
ENDBRANCH  20  21
ENDBRANCH   1  20
TORSDOF 7
ENDMDL
MODEL 9
REMARK VINA RESULT:      -8.5      0.826      1.680
REMARK  Name = 
REMARK  7 active torsions:
REMARK  status: ('A' for Active; 'I' for Inactive)
REMARK    1  A    between atoms: O_1  and  C_2
REMARK    2  A    between atoms: C_2  and  C_3
REMARK    3  A    between atoms: C_2  and  C_14
REMARK    4  A    between atoms: C_2  and  C_21
REMARK    5  A    between atoms: C_3  and  C_4
REMARK    6  A    between atoms: C_4  and  N_5
REMARK    7  A    between atoms: C_14  and  C_15
REMARK                            x       y       z     vdW  Elec       q    Type
REMARK                         _______ _______ _______ _____ _____    ______ ____
ROOT
ATOM      1  C   UNL     1       5.983   5.810  16.578  0.00  0.00    +0.000 C 
ENDROOT
BRANCH   1   2
ATOM      2  C   UNL     1       6.981   6.667  17.306  0.00  0.00    +0.000 A 
ATOM      3  C   UNL     1       7.747   6.493  18.445  0.00  0.00    +0.000 A 
ATOM      4  C   UNL     1       8.386   7.728  18.700  0.00  0.00    +0.000 A 
ATOM      5  C   UNL     1       7.991   8.577  17.694  0.00  0.00    +0.000 A 
ATOM      6  O   UNL     1       7.177   7.932  16.818  0.00  0.00    +0.000 OA
ENDBRANCH   1   2
BRANCH   1   7
ATOM      7  O   UNL     1       5.398   6.628  15.556  0.00  0.00    +0.000 OA
ATOM      8  H   UNL     1       6.086   7.235  15.240  0.00  0.00    +0.000 HD
ENDBRANCH   1   7
BRANCH   1   9
ATOM      9  C   UNL     1       4.850   5.292  17.506  0.00  0.00    +0.000 C 
BRANCH   9  10
ATOM     10  C   UNL     1       4.256   3.908  17.163  0.00  0.00    +0.000 C 
BRANCH  10  11
ATOM     11  N   UNL     1       2.796   3.833  17.400  0.00  0.00    +0.000 NA
ATOM     12  C   UNL     1       2.271   2.515  17.754  0.00  0.00    +0.000 C 
ATOM     13  C   UNL     1       2.052   2.160  19.241  0.00  0.00    +0.000 C 
ATOM     14  C   UNL     1       0.739   2.753  19.773  0.00  0.00    +0.000 C 
ATOM     15  C   UNL     1       0.892   4.196  20.234  0.00  0.00    +0.000 C 
ATOM     16  C   UNL     1       2.188   4.842  19.728  0.00  0.00    +0.000 C 
ATOM     17  C   UNL     1       3.373   4.075  20.324  0.00  0.00    +0.000 C 
ATOM     18  C   UNL     1       3.223   2.557  20.152  0.00  0.00    +0.000 C 
ATOM     19  C   UNL     1       2.237   4.944  18.181  0.00  0.00    +0.000 C 
ENDBRANCH  10  11
ENDBRANCH   9  10
ENDBRANCH   1   9
BRANCH   1  20
ATOM     20  C   UNL     1       6.668   4.556  15.942  0.00  0.00    +0.000 C 
BRANCH  20  21
ATOM     21  C   UNL     1       6.776   4.469  14.431  0.00  0.00    +0.000 A 
ATOM     22  C   UNL     1       7.705   5.269  13.745  0.00  0.00    +0.000 A 
ATOM     23  C   UNL     1       7.864   5.158  12.361  0.00  0.00    +0.000 A 
ATOM     24  C   UNL     1       7.092   4.245  11.646  0.00  0.00    +0.000 A 
ATOM     25  C   UNL     1       6.162   3.448  12.313  0.00  0.00    +0.000 A 
ATOM     26  C   UNL     1       6.003   3.560  13.700  0.00  0.00    +0.000 A 
ENDBRANCH  20  21
ENDBRANCH   1  20
TORSDOF 7
ENDMDL
