MODEL 1
REMARK VINA RESULT:      -9.1      0.000      0.000
REMARK  Name = 
REMARK  6 active torsions:
REMARK  status: ('A' for Active; 'I' for Inactive)
REMARK    1  A    between atoms: N_4  and  N_5
REMARK    2  A    between atoms: N_5  and  C_6
REMARK    3  A    between atoms: C_6  and  N_8
REMARK    4  A    between atoms: N_8  and  C_9
REMARK    5  A    between atoms: N_23  and  C_24
REMARK    6  A    between atoms: C_24  and  N_25
REMARK                            x       y       z     vdW  Elec       q    Type
REMARK                         _______ _______ _______ _____ _____    ______ ____
ROOT
ATOM      1  O   UNL     1       3.449   7.626  17.861  0.00  0.00    +0.000 OA
ATOM      2  C   UNL     1       3.146   6.550  18.333  0.00  0.00    +0.000 C 
ATOM      3  C   UNL     1       2.321   6.397  19.615  0.00  0.00    +0.000 C 
ATOM      4  N   UNL     1       1.659   7.242  20.332  0.00  0.00    +0.000 NA
ATOM      5  C   UNL     1       2.262   4.981  19.896  0.00  0.00    +0.000 A 
ATOM      6  C   UNL     1       1.727   4.364  21.009  0.00  0.00    +0.000 A 
ATOM      7  C   UNL     1       1.646   2.988  20.956  0.00  0.00    +0.000 A 
ATOM      8  F   UNL     1       1.183   2.316  22.017  0.00  0.00    +0.000 F 
ATOM      9  C   UNL     1       2.018   2.288  19.799  0.00  0.00    +0.000 A 
ATOM     10  C   UNL     1       2.573   2.956  18.691  0.00  0.00    +0.000 A 
ATOM     11  C   UNL     1       2.762   4.321  18.780  0.00  0.00    +0.000 A 
ATOM     12  N   UNL     1       3.379   5.240  17.898  0.00  0.00    +0.000 N 
ENDROOT
BRANCH   4  13
ATOM     13  N   UNL     1       1.681   8.548  20.004  0.00  0.00    +0.000 N 
ATOM     14  H   UNL     1       2.473   8.910  19.471  0.00  0.00    +0.000 HD
BRANCH  13  15
ATOM     15  C   UNL     1       0.780   9.431  20.581  0.00  0.00    +0.000 C 
ATOM     16  S   UNL     1       0.010   9.220  22.051  0.00  0.00    +0.000 S 
BRANCH  15  17
ATOM     17  N   UNL     1       0.490  10.542  19.825  0.00  0.00    +0.000 N 
ATOM     18  H   UNL     1       1.251  11.202  19.698  0.00  0.00    +0.000 HD
BRANCH  17  19
ATOM     19  C   UNL     1      -0.696  10.750  19.101  0.00  0.00    +0.000 A 
ATOM     20  C   UNL     1      -0.872  10.075  17.897  0.00  0.00    +0.000 A 
ATOM     21  C   UNL     1      -1.988  10.358  17.106  0.00  0.00    +0.000 A 
ATOM     22  C   UNL     1      -2.939  11.274  17.550  0.00  0.00    +0.000 A 
ATOM     23  F   UNL     1      -3.991  11.564  16.777  0.00  0.00    +0.000 F 
ATOM     24  C   UNL     1      -2.810  11.894  18.784  0.00  0.00    +0.000 A 
ATOM     25  C   UNL     1      -1.693  11.623  19.565  0.00  0.00    +0.000 A 
ENDBRANCH  17  19
ENDBRANCH  15  17
ENDBRANCH  13  15
ENDBRANCH   4  13
BRANCH  12  26
ATOM     26  C   UNL     1       4.137   4.894  16.710  0.00  0.00    +0.000 C 
BRANCH  26  27
ATOM     27  N   UNL     1       5.439   4.271  17.018  0.00  0.00    +0.000 NA
ATOM     28  C   UNL     1       6.324   5.219  17.752  0.00  0.00    +0.000 C 
ATOM     29  C   UNL     1       6.917   6.340  16.872  0.00  0.00    +0.000 C 
ATOM     30  O   UNL     1       7.609   5.811  15.736  0.00  0.00    +0.000 OA
ATOM     31  C   UNL     1       6.779   4.924  14.980  0.00  0.00    +0.000 C 
ATOM     32  C   UNL     1       6.216   3.795  15.856  0.00  0.00    +0.000 C 
ENDBRANCH  26  27
ENDBRANCH  12  26
TORSDOF 6
ENDMDL
MODEL 2
REMARK VINA RESULT:      -8.9      0.557      1.051
REMARK  Name = 
REMARK  6 active torsions:
REMARK  status: ('A' for Active; 'I' for Inactive)
REMARK    1  A    between atoms: N_4  and  N_5
REMARK    2  A    between atoms: N_5  and  C_6
REMARK    3  A    between atoms: C_6  and  N_8
REMARK    4  A    between atoms: N_8  and  C_9
REMARK    5  A    between atoms: N_23  and  C_24
REMARK    6  A    between atoms: C_24  and  N_25
REMARK                            x       y       z     vdW  Elec       q    Type
REMARK                         _______ _______ _______ _____ _____    ______ ____
ROOT
ATOM      1  O   UNL     1       3.414   7.710  17.917  0.00  0.00    +0.000 OA
ATOM      2  C   UNL     1       3.155   6.631  18.410  0.00  0.00    +0.000 C 
ATOM      3  C   UNL     1       2.320   6.469  19.684  0.00  0.00    +0.000 C 
ATOM      4  N   UNL     1       1.608   7.298  20.372  0.00  0.00    +0.000 NA
ATOM      5  C   UNL     1       2.323   5.059  19.997  0.00  0.00    +0.000 A 
ATOM      6  C   UNL     1       1.801   4.443  21.118  0.00  0.00    +0.000 A 
ATOM      7  C   UNL     1       1.786   3.064  21.096  0.00  0.00    +0.000 A 
ATOM      8  F   UNL     1       1.339   2.396  22.166  0.00  0.00    +0.000 F 
ATOM      9  C   UNL     1       2.207   2.356  19.960  0.00  0.00    +0.000 A 
ATOM     10  C   UNL     1       2.746   3.024  18.844  0.00  0.00    +0.000 A 
ATOM     11  C   UNL     1       2.869   4.398  18.904  0.00  0.00    +0.000 A 
ATOM     12  N   UNL     1       3.456   5.324  18.009  0.00  0.00    +0.000 N 
ENDROOT
BRANCH   4  13
ATOM     13  N   UNL     1       1.574   8.596  20.013  0.00  0.00    +0.000 N 
ATOM     14  H   UNL     1       2.347   8.978  19.466  0.00  0.00    +0.000 HD
BRANCH  13  15
ATOM     15  C   UNL     1       0.641   9.454  20.576  0.00  0.00    +0.000 C 
ATOM     16  S   UNL     1      -0.153   9.217  22.029  0.00  0.00    +0.000 S 
BRANCH  15  17
ATOM     17  N   UNL     1       0.340  10.562  19.820  0.00  0.00    +0.000 N 
ATOM     18  H   UNL     1       1.086  11.241  19.713  0.00  0.00    +0.000 HD
BRANCH  17  19
ATOM     19  C   UNL     1      -0.835  10.745  19.071  0.00  0.00    +0.000 A 
ATOM     20  C   UNL     1      -0.993  10.028  17.889  0.00  0.00    +0.000 A 
ATOM     21  C   UNL     1      -2.097  10.283  17.072  0.00  0.00    +0.000 A 
ATOM     22  C   UNL     1      -3.054  11.214  17.469  0.00  0.00    +0.000 A 
ATOM     23  F   UNL     1      -4.094  11.476  16.670  0.00  0.00    +0.000 F 
ATOM     24  C   UNL     1      -2.943  11.877  18.682  0.00  0.00    +0.000 A 
ATOM     25  C   UNL     1      -1.838  11.633  19.489  0.00  0.00    +0.000 A 
ENDBRANCH  17  19
ENDBRANCH  15  17
ENDBRANCH  13  15
ENDBRANCH   4  13
BRANCH  12  26
ATOM     26  C   UNL     1       4.246   4.988  16.840  0.00  0.00    +0.000 C 
BRANCH  26  27
ATOM     27  N   UNL     1       5.357   5.929  16.605  0.00  0.00    +0.000 NA
ATOM     28  C   UNL     1       5.995   5.683  15.282  0.00  0.00    +0.000 C 
ATOM     29  C   UNL     1       6.879   4.418  15.232  0.00  0.00    +0.000 C 
ATOM     30  O   UNL     1       7.879   4.429  16.257  0.00  0.00    +0.000 OA
ATOM     31  C   UNL     1       7.301   4.625  17.552  0.00  0.00    +0.000 C 
ATOM     32  C   UNL     1       6.447   5.901  17.602  0.00  0.00    +0.000 C 
ENDBRANCH  26  27
ENDBRANCH  12  26
TORSDOF 6
ENDMDL
MODEL 3
REMARK VINA RESULT:      -8.6      1.909      2.316
REMARK  Name = 
REMARK  6 active torsions:
REMARK  status: ('A' for Active; 'I' for Inactive)
REMARK    1  A    between atoms: N_4  and  N_5
REMARK    2  A    between atoms: N_5  and  C_6
REMARK    3  A    between atoms: C_6  and  N_8
REMARK    4  A    between atoms: N_8  and  C_9
REMARK    5  A    between atoms: N_23  and  C_24
REMARK    6  A    between atoms: C_24  and  N_25
REMARK                            x       y       z     vdW  Elec       q    Type
REMARK                         _______ _______ _______ _____ _____    ______ ____
ROOT
ATOM      1  O   UNL     1       3.475   7.542  17.884  0.00  0.00    +0.000 OA
ATOM      2  C   UNL     1       3.155   6.474  18.363  0.00  0.00    +0.000 C 
ATOM      3  C   UNL     1       2.356   6.341  19.663  0.00  0.00    +0.000 C 
ATOM      4  N   UNL     1       1.732   7.203  20.395  0.00  0.00    +0.000 NA
ATOM      5  C   UNL     1       2.266   4.928  19.945  0.00  0.00    +0.000 A 
ATOM      6  C   UNL     1       1.741   4.324  21.071  0.00  0.00    +0.000 A 
ATOM      7  C   UNL     1       1.623   2.951  21.020  0.00  0.00    +0.000 A 
ATOM      8  F   UNL     1       1.167   2.291  22.091  0.00  0.00    +0.000 F 
ATOM      9  C   UNL     1       1.951   2.242  19.854  0.00  0.00    +0.000 A 
ATOM     10  C   UNL     1       2.497   2.896  18.734  0.00  0.00    +0.000 A 
ATOM     11  C   UNL     1       2.724   4.255  18.819  0.00  0.00    +0.000 A 
ATOM     12  N   UNL     1       3.345   5.158  17.922  0.00  0.00    +0.000 N 
ENDROOT
BRANCH   4  13
ATOM     13  N   UNL     1       1.781   8.508  20.066  0.00  0.00    +0.000 N 
ATOM     14  H   UNL     1       2.667   8.906  19.751  0.00  0.00    +0.000 HD
BRANCH  13  15
ATOM     15  C   UNL     1       0.723   9.349  20.378  0.00  0.00    +0.000 C 
ATOM     16  S   UNL     1      -0.107   9.378  21.830  0.00  0.00    +0.000 S 
BRANCH  15  17
ATOM     17  N   UNL     1       0.326  10.185  19.361  0.00  0.00    +0.000 N 
ATOM     18  H   UNL     1      -0.448   9.856  18.794  0.00  0.00    +0.000 HD
BRANCH  17  19
ATOM     19  C   UNL     1       0.789  11.496  19.154  0.00  0.00    +0.000 A 
ATOM     20  C   UNL     1       0.029  12.557  19.635  0.00  0.00    +0.000 A 
ATOM     21  C   UNL     1       0.410  13.867  19.337  0.00  0.00    +0.000 A 
ATOM     22  C   UNL     1       1.572  14.102  18.605  0.00  0.00    +0.000 A 
ATOM     23  F   UNL     1       1.919  15.357  18.296  0.00  0.00    +0.000 F 
ATOM     24  C   UNL     1       2.376  13.052  18.188  0.00  0.00    +0.000 A 
ATOM     25  C   UNL     1       1.990  11.748  18.472  0.00  0.00    +0.000 A 
ENDBRANCH  17  19
ENDBRANCH  15  17
ENDBRANCH  13  15
ENDBRANCH   4  13
BRANCH  12  26
ATOM     26  C   UNL     1       4.066   4.794  16.718  0.00  0.00    +0.000 C 
BRANCH  26  27
ATOM     27  N   UNL     1       5.369   4.159  16.996  0.00  0.00    +0.000 NA
ATOM     28  C   UNL     1       6.240   5.060  17.802  0.00  0.00    +0.000 C 
ATOM     29  C   UNL     1       6.833   6.242  17.006  0.00  0.00    +0.000 C 
ATOM     30  O   UNL     1       7.541   5.796  15.844  0.00  0.00    +0.000 OA
ATOM     31  C   UNL     1       6.724   4.958  15.021  0.00  0.00    +0.000 C 
ATOM     32  C   UNL     1       6.160   3.768  15.813  0.00  0.00    +0.000 C 
ENDBRANCH  26  27
ENDBRANCH  12  26
TORSDOF 6
ENDMDL
MODEL 4
REMARK VINA RESULT:      -8.5      2.275      2.611
REMARK  Name = 
REMARK  6 active torsions:
REMARK  status: ('A' for Active; 'I' for Inactive)
REMARK    1  A    between atoms: N_4  and  N_5
REMARK    2  A    between atoms: N_5  and  C_6
REMARK    3  A    between atoms: C_6  and  N_8
REMARK    4  A    between atoms: N_8  and  C_9
REMARK    5  A    between atoms: N_23  and  C_24
REMARK    6  A    between atoms: C_24  and  N_25
REMARK                            x       y       z     vdW  Elec       q    Type
REMARK                         _______ _______ _______ _____ _____    ______ ____
ROOT
ATOM      1  O   UNL     1       3.465   7.501  17.833  0.00  0.00    +0.000 OA
ATOM      2  C   UNL     1       3.151   6.437  18.324  0.00  0.00    +0.000 C 
ATOM      3  C   UNL     1       2.342   6.314  19.620  0.00  0.00    +0.000 C 
ATOM      4  N   UNL     1       1.704   7.180  20.335  0.00  0.00    +0.000 NA
ATOM      5  C   UNL     1       2.264   4.903  19.920  0.00  0.00    +0.000 A 
ATOM      6  C   UNL     1       1.734   4.310  21.049  0.00  0.00    +0.000 A 
ATOM      7  C   UNL     1       1.630   2.935  21.015  0.00  0.00    +0.000 A 
ATOM      8  F   UNL     1       1.171   2.285  22.091  0.00  0.00    +0.000 F 
ATOM      9  C   UNL     1       1.974   2.213  19.862  0.00  0.00    +0.000 A 
ATOM     10  C   UNL     1       2.523   2.858  18.737  0.00  0.00    +0.000 A 
ATOM     11  C   UNL     1       2.737   4.220  18.806  0.00  0.00    +0.000 A 
ATOM     12  N   UNL     1       3.357   5.117  17.903  0.00  0.00    +0.000 N 
ENDROOT
BRANCH   4  13
ATOM     13  N   UNL     1       1.744   8.481  19.988  0.00  0.00    +0.000 N 
ATOM     14  H   UNL     1       2.550   8.829  19.469  0.00  0.00    +0.000 HD
BRANCH  13  15
ATOM     15  C   UNL     1       0.836   9.377  20.532  0.00  0.00    +0.000 C 
ATOM     16  S   UNL     1       0.119   9.251  22.038  0.00  0.00    +0.000 S 
BRANCH  15  17
ATOM     17  N   UNL     1       0.490  10.424  19.710  0.00  0.00    +0.000 N 
ATOM     18  H   UNL     1      -0.418  10.355  19.262  0.00  0.00    +0.000 HD
BRANCH  17  19
ATOM     19  C   UNL     1       1.207  11.625  19.571  0.00  0.00    +0.000 A 
ATOM     20  C   UNL     1       1.896  11.859  18.385  0.00  0.00    +0.000 A 
ATOM     21  C   UNL     1       2.709  12.989  18.274  0.00  0.00    +0.000 A 
ATOM     22  C   UNL     1       2.787  13.896  19.329  0.00  0.00    +0.000 A 
ATOM     23  F   UNL     1       3.589  14.961  19.230  0.00  0.00    +0.000 F 
ATOM     24  C   UNL     1       2.043  13.709  20.485  0.00  0.00    +0.000 A 
ATOM     25  C   UNL     1       1.245  12.577  20.601  0.00  0.00    +0.000 A 
ENDBRANCH  17  19
ENDBRANCH  15  17
ENDBRANCH  13  15
ENDBRANCH   4  13
BRANCH  12  26
ATOM     26  C   UNL     1       4.091   4.744  16.709  0.00  0.00    +0.000 C 
BRANCH  26  27
ATOM     27  N   UNL     1       5.412   4.157  17.006  0.00  0.00    +0.000 NA
ATOM     28  C   UNL     1       6.237   5.086  17.827  0.00  0.00    +0.000 C 
ATOM     29  C   UNL     1       6.799   6.292  17.044  0.00  0.00    +0.000 C 
ATOM     30  O   UNL     1       7.540   5.876  15.892  0.00  0.00    +0.000 OA
ATOM     31  C   UNL     1       6.767   5.011  15.054  0.00  0.00    +0.000 C 
ATOM     32  C   UNL     1       6.236   3.799  15.834  0.00  0.00    +0.000 C 
ENDBRANCH  26  27
ENDBRANCH  12  26
TORSDOF 6
ENDMDL
MODEL 5
REMARK VINA RESULT:      -8.3      2.170      2.545
REMARK  Name = 
REMARK  6 active torsions:
REMARK  status: ('A' for Active; 'I' for Inactive)
REMARK    1  A    between atoms: N_4  and  N_5
REMARK    2  A    between atoms: N_5  and  C_6
REMARK    3  A    between atoms: C_6  and  N_8
REMARK    4  A    between atoms: N_8  and  C_9
REMARK    5  A    between atoms: N_23  and  C_24
REMARK    6  A    between atoms: C_24  and  N_25
REMARK                            x       y       z     vdW  Elec       q    Type
REMARK                         _______ _______ _______ _____ _____    ______ ____
ROOT
ATOM      1  O   UNL     1       3.497   7.673  17.752  0.00  0.00    +0.000 OA
ATOM      2  C   UNL     1       3.165   6.623  18.262  0.00  0.00    +0.000 C 
ATOM      3  C   UNL     1       2.342   6.536  19.551  0.00  0.00    +0.000 C 
ATOM      4  N   UNL     1       1.706   7.424  20.241  0.00  0.00    +0.000 NA
ATOM      5  C   UNL     1       2.245   5.133  19.880  0.00  0.00    +0.000 A 
ATOM      6  C   UNL     1       1.697   4.569  21.015  0.00  0.00    +0.000 A 
ATOM      7  C   UNL     1       1.578   3.196  21.009  0.00  0.00    +0.000 A 
ATOM      8  F   UNL     1       1.100   2.573  22.094  0.00  0.00    +0.000 F 
ATOM      9  C   UNL     1       1.926   2.446  19.876  0.00  0.00    +0.000 A 
ATOM     10  C   UNL     1       2.494   3.060  18.743  0.00  0.00    +0.000 A 
ATOM     11  C   UNL     1       2.722   4.422  18.786  0.00  0.00    +0.000 A 
ATOM     12  N   UNL     1       3.361   5.293  17.871  0.00  0.00    +0.000 N 
ENDROOT
BRANCH   4  13
ATOM     13  N   UNL     1       1.763   8.717  19.867  0.00  0.00    +0.000 N 
ATOM     14  H   UNL     1       2.641   9.086  19.499  0.00  0.00    +0.000 HD
BRANCH  13  15
ATOM     15  C   UNL     1       0.737   9.588  20.201  0.00  0.00    +0.000 C 
ATOM     16  S   UNL     1      -0.520  10.048  19.198  0.00  0.00    +0.000 S 
BRANCH  15  17
ATOM     17  N   UNL     1       0.823  10.130  21.462  0.00  0.00    +0.000 N 
ATOM     18  H   UNL     1       1.648   9.880  21.997  0.00  0.00    +0.000 HD
BRANCH  17  19
ATOM     19  C   UNL     1      -0.040  11.105  21.992  0.00  0.00    +0.000 A 
ATOM     20  C   UNL     1      -1.056  10.703  22.852  0.00  0.00    +0.000 A 
ATOM     21  C   UNL     1      -1.994  11.638  23.293  0.00  0.00    +0.000 A 
ATOM     22  C   UNL     1      -1.877  12.973  22.911  0.00  0.00    +0.000 A 
ATOM     23  F   UNL     1      -2.793  13.861  23.312  0.00  0.00    +0.000 F 
ATOM     24  C   UNL     1      -0.822  13.396  22.116  0.00  0.00    +0.000 A 
ATOM     25  C   UNL     1       0.103  12.463  21.665  0.00  0.00    +0.000 A 
ENDBRANCH  17  19
ENDBRANCH  15  17
ENDBRANCH  13  15
ENDBRANCH   4  13
BRANCH  12  26
ATOM     26  C   UNL     1       4.104   4.886  16.693  0.00  0.00    +0.000 C 
BRANCH  26  27
ATOM     27  N   UNL     1       5.399   4.258  17.018  0.00  0.00    +0.000 NA
ATOM     28  C   UNL     1       6.258   5.185  17.806  0.00  0.00    +0.000 C 
ATOM     29  C   UNL     1       6.871   6.336  16.980  0.00  0.00    +0.000 C 
ATOM     30  O   UNL     1       7.598   5.847  15.848  0.00  0.00    +0.000 OA
ATOM     31  C   UNL     1       6.793   4.981  15.040  0.00  0.00    +0.000 C 
ATOM     32  C   UNL     1       6.211   3.822  15.864  0.00  0.00    +0.000 C 
ENDBRANCH  26  27
ENDBRANCH  12  26
TORSDOF 6
ENDMDL
MODEL 6
REMARK VINA RESULT:      -8.2      2.381      2.974
REMARK  Name = 
REMARK  6 active torsions:
REMARK  status: ('A' for Active; 'I' for Inactive)
REMARK    1  A    between atoms: N_4  and  N_5
REMARK    2  A    between atoms: N_5  and  C_6
REMARK    3  A    between atoms: C_6  and  N_8
REMARK    4  A    between atoms: N_8  and  C_9
REMARK    5  A    between atoms: N_23  and  C_24
REMARK    6  A    between atoms: C_24  and  N_25
REMARK                            x       y       z     vdW  Elec       q    Type
REMARK                         _______ _______ _______ _____ _____    ______ ____
ROOT
ATOM      1  O   UNL     1       3.419   7.709  17.921  0.00  0.00    +0.000 OA
ATOM      2  C   UNL     1       3.149   6.635  18.418  0.00  0.00    +0.000 C 
ATOM      3  C   UNL     1       2.292   6.483  19.678  0.00  0.00    +0.000 C 
ATOM      4  N   UNL     1       1.569   7.318  20.347  0.00  0.00    +0.000 NA
ATOM      5  C   UNL     1       2.287   5.075  20.002  0.00  0.00    +0.000 A 
ATOM      6  C   UNL     1       1.745   4.468  21.118  0.00  0.00    +0.000 A 
ATOM      7  C   UNL     1       1.728   3.090  21.106  0.00  0.00    +0.000 A 
ATOM      8  F   UNL     1       1.261   2.430  22.173  0.00  0.00    +0.000 F 
ATOM      9  C   UNL     1       2.168   2.372  19.984  0.00  0.00    +0.000 A 
ATOM     10  C   UNL     1       2.728   3.031  18.872  0.00  0.00    +0.000 A 
ATOM     11  C   UNL     1       2.852   4.405  18.924  0.00  0.00    +0.000 A 
ATOM     12  N   UNL     1       3.456   5.324  18.032  0.00  0.00    +0.000 N 
ENDROOT
BRANCH   4  13
ATOM     13  N   UNL     1       1.543   8.613  19.978  0.00  0.00    +0.000 N 
ATOM     14  H   UNL     1       2.230   8.948  19.301  0.00  0.00    +0.000 HD
BRANCH  13  15
ATOM     15  C   UNL     1       0.767   9.526  20.678  0.00  0.00    +0.000 C 
ATOM     16  S   UNL     1       0.176   9.319  22.229  0.00  0.00    +0.000 S 
BRANCH  15  17
ATOM     17  N   UNL     1       0.444  10.667  19.983  0.00  0.00    +0.000 N 
ATOM     18  H   UNL     1      -0.533  10.769  19.728  0.00  0.00    +0.000 HD
BRANCH  17  19
ATOM     19  C   UNL     1       1.307  11.750  19.744  0.00  0.00    +0.000 A 
ATOM     20  C   UNL     1       1.525  12.669  20.766  0.00  0.00    +0.000 A 
ATOM     21  C   UNL     1       2.283  13.814  20.512  0.00  0.00    +0.000 A 
ATOM     22  C   UNL     1       2.856  14.002  19.256  0.00  0.00    +0.000 A 
ATOM     23  F   UNL     1       3.558  15.113  19.007  0.00  0.00    +0.000 F 
ATOM     24  C   UNL     1       2.708  13.053  18.256  0.00  0.00    +0.000 A 
ATOM     25  C   UNL     1       1.942  11.920  18.504  0.00  0.00    +0.000 A 
ENDBRANCH  17  19
ENDBRANCH  15  17
ENDBRANCH  13  15
ENDBRANCH   4  13
BRANCH  12  26
ATOM     26  C   UNL     1       4.266   4.978  16.880  0.00  0.00    +0.000 C 
BRANCH  26  27
ATOM     27  N   UNL     1       5.360   5.937  16.636  0.00  0.00    +0.000 NA
ATOM     28  C   UNL     1       5.943   5.747  15.278  0.00  0.00    +0.000 C 
ATOM     29  C   UNL     1       6.832   4.493  15.142  0.00  0.00    +0.000 C 
ATOM     30  O   UNL     1       7.874   4.473  16.124  0.00  0.00    +0.000 OA
ATOM     31  C   UNL     1       7.351   4.614  17.449  0.00  0.00    +0.000 C 
ATOM     32  C   UNL     1       6.491   5.879  17.583  0.00  0.00    +0.000 C 
ENDBRANCH  26  27
ENDBRANCH  12  26
TORSDOF 6
ENDMDL
MODEL 7
REMARK VINA RESULT:      -8.2      1.743      2.213
REMARK  Name = 
REMARK  6 active torsions:
REMARK  status: ('A' for Active; 'I' for Inactive)
REMARK    1  A    between atoms: N_4  and  N_5
REMARK    2  A    between atoms: N_5  and  C_6
REMARK    3  A    between atoms: C_6  and  N_8
REMARK    4  A    between atoms: N_8  and  C_9
REMARK    5  A    between atoms: N_23  and  C_24
REMARK    6  A    between atoms: C_24  and  N_25
REMARK                            x       y       z     vdW  Elec       q    Type
REMARK                         _______ _______ _______ _____ _____    ______ ____
ROOT
ATOM      1  O   UNL     1       3.360   7.682  18.013  0.00  0.00    +0.000 OA
ATOM      2  C   UNL     1       3.116   6.591  18.486  0.00  0.00    +0.000 C 
ATOM      3  C   UNL     1       2.296   6.394  19.765  0.00  0.00    +0.000 C 
ATOM      4  N   UNL     1       1.583   7.202  20.477  0.00  0.00    +0.000 NA
ATOM      5  C   UNL     1       2.316   4.978  20.048  0.00  0.00    +0.000 A 
ATOM      6  C   UNL     1       1.812   4.333  21.161  0.00  0.00    +0.000 A 
ATOM      7  C   UNL     1       1.810   2.955  21.110  0.00  0.00    +0.000 A 
ATOM      8  F   UNL     1       1.381   2.260  22.170  0.00  0.00    +0.000 F 
ATOM      9  C   UNL     1       2.226   2.275  19.956  0.00  0.00    +0.000 A 
ATOM     10  C   UNL     1       2.747   2.971  18.848  0.00  0.00    +0.000 A 
ATOM     11  C   UNL     1       2.858   4.345  18.936  0.00  0.00    +0.000 A 
ATOM     12  N   UNL     1       3.426   5.296  18.054  0.00  0.00    +0.000 N 
ENDROOT
BRANCH   4  13
ATOM     13  N   UNL     1       1.533   8.506  20.146  0.00  0.00    +0.000 N 
ATOM     14  H   UNL     1       2.343   8.933  19.696  0.00  0.00    +0.000 HD
BRANCH  13  15
ATOM     15  C   UNL     1       0.507   9.310  20.622  0.00  0.00    +0.000 C 
ATOM     16  S   UNL     1      -0.000   9.408  22.213  0.00  0.00    +0.000 S 
BRANCH  15  17
ATOM     17  N   UNL     1      -0.151  10.041  19.661  0.00  0.00    +0.000 N 
ATOM     18  H   UNL     1      -0.986   9.613  19.274  0.00  0.00    +0.000 HD
BRANCH  17  19
ATOM     19  C   UNL     1       0.143  11.366  19.299  0.00  0.00    +0.000 A 
ATOM     20  C   UNL     1       1.381  11.895  19.648  0.00  0.00    +0.000 A 
ATOM     21  C   UNL     1       1.647  13.244  19.403  0.00  0.00    +0.000 A 
ATOM     22  C   UNL     1       0.692  14.036  18.768  0.00  0.00    +0.000 A 
ATOM     23  F   UNL     1       0.939  15.334  18.561  0.00  0.00    +0.000 F 
ATOM     24  C   UNL     1      -0.514  13.497  18.347  0.00  0.00    +0.000 A 
ATOM     25  C   UNL     1      -0.784  12.158  18.604  0.00  0.00    +0.000 A 
ENDBRANCH  17  19
ENDBRANCH  15  17
ENDBRANCH  13  15
ENDBRANCH   4  13
BRANCH  12  26
ATOM     26  C   UNL     1       4.207   4.992  16.871  0.00  0.00    +0.000 C 
BRANCH  26  27
ATOM     27  N   UNL     1       5.313   5.943  16.651  0.00  0.00    +0.000 NA
ATOM     28  C   UNL     1       5.932   5.742  15.310  0.00  0.00    +0.000 C 
ATOM     29  C   UNL     1       6.815   4.481  15.204  0.00  0.00    +0.000 C 
ATOM     30  O   UNL     1       7.831   4.459  16.214  0.00  0.00    +0.000 OA
ATOM     31  C   UNL     1       7.273   4.610  17.523  0.00  0.00    +0.000 C 
ATOM     32  C   UNL     1       6.418   5.882  17.629  0.00  0.00    +0.000 C 
ENDBRANCH  26  27
ENDBRANCH  12  26
TORSDOF 6
ENDMDL
MODEL 8
REMARK VINA RESULT:      -8.2      2.215      2.571
REMARK  Name = 
REMARK  6 active torsions:
REMARK  status: ('A' for Active; 'I' for Inactive)
REMARK    1  A    between atoms: N_4  and  N_5
REMARK    2  A    between atoms: N_5  and  C_6
REMARK    3  A    between atoms: C_6  and  N_8
REMARK    4  A    between atoms: N_8  and  C_9
REMARK    5  A    between atoms: N_23  and  C_24
REMARK    6  A    between atoms: C_24  and  N_25
REMARK                            x       y       z     vdW  Elec       q    Type
REMARK                         _______ _______ _______ _____ _____    ______ ____
ROOT
ATOM      1  O   UNL     1       3.529   7.684  17.901  0.00  0.00    +0.000 OA
ATOM      2  C   UNL     1       3.182   6.621  18.372  0.00  0.00    +0.000 C 
ATOM      3  C   UNL     1       2.366   6.499  19.663  0.00  0.00    +0.000 C 
ATOM      4  N   UNL     1       1.752   7.371  20.393  0.00  0.00    +0.000 NA
ATOM      5  C   UNL     1       2.245   5.086  19.938  0.00  0.00    +0.000 A 
ATOM      6  C   UNL     1       1.695   4.489  21.055  0.00  0.00    +0.000 A 
ATOM      7  C   UNL     1       1.550   3.119  20.997  0.00  0.00    +0.000 A 
ATOM      8  F   UNL     1       1.069   2.464  22.060  0.00  0.00    +0.000 F 
ATOM      9  C   UNL     1       1.875   2.408  19.832  0.00  0.00    +0.000 A 
ATOM     10  C   UNL     1       2.447   3.056  18.720  0.00  0.00    +0.000 A 
ATOM     11  C   UNL     1       2.700   4.410  18.813  0.00  0.00    +0.000 A 
ATOM     12  N   UNL     1       3.349   5.304  17.928  0.00  0.00    +0.000 N 
ENDROOT
BRANCH   4  13
ATOM     13  N   UNL     1       1.831   8.676  20.070  0.00  0.00    +0.000 N 
ATOM     14  H   UNL     1       2.709   9.172  20.230  0.00  0.00    +0.000 HD
BRANCH  13  15
ATOM     15  C   UNL     1       0.684   9.391  19.758  0.00  0.00    +0.000 C 
ATOM     16  S   UNL     1       0.229   9.892  18.229  0.00  0.00    +0.000 S 
BRANCH  15  17
ATOM     17  N   UNL     1      -0.097   9.734  20.837  0.00  0.00    +0.000 N 
ATOM     18  H   UNL     1      -0.494   8.960  21.360  0.00  0.00    +0.000 HD
BRANCH  17  19
ATOM     19  C   UNL     1      -0.251  11.032  21.353  0.00  0.00    +0.000 A 
ATOM     20  C   UNL     1       0.526  12.058  20.826  0.00  0.00    +0.000 A 
ATOM     21  C   UNL     1       0.474  13.328  21.405  0.00  0.00    +0.000 A 
ATOM     22  C   UNL     1      -0.391  13.570  22.470  0.00  0.00    +0.000 A 
ATOM     23  F   UNL     1      -0.418  14.779  23.040  0.00  0.00    +0.000 F 
ATOM     24  C   UNL     1      -1.226  12.573  22.950  0.00  0.00    +0.000 A 
ATOM     25  C   UNL     1      -1.164  11.305  22.384  0.00  0.00    +0.000 A 
ENDBRANCH  17  19
ENDBRANCH  15  17
ENDBRANCH  13  15
ENDBRANCH   4  13
BRANCH  12  26
ATOM     26  C   UNL     1       4.076   4.930  16.729  0.00  0.00    +0.000 C 
BRANCH  26  27
ATOM     27  N   UNL     1       5.359   4.262  17.019  0.00  0.00    +0.000 NA
ATOM     28  C   UNL     1       6.255   5.148  17.813  0.00  0.00    +0.000 C 
ATOM     29  C   UNL     1       6.884   6.301  17.003  0.00  0.00    +0.000 C 
ATOM     30  O   UNL     1       7.580   5.819  15.848  0.00  0.00    +0.000 OA
ATOM     31  C   UNL     1       6.740   4.993  15.035  0.00  0.00    +0.000 C 
ATOM     32  C   UNL     1       6.141   3.831  15.842  0.00  0.00    +0.000 C 
ENDBRANCH  26  27
ENDBRANCH  12  26
TORSDOF 6
ENDMDL
MODEL 9
REMARK VINA RESULT:      -8.1      2.014      2.465
REMARK  Name = 
REMARK  6 active torsions:
REMARK  status: ('A' for Active; 'I' for Inactive)
REMARK    1  A    between atoms: N_4  and  N_5
REMARK    2  A    between atoms: N_5  and  C_6
REMARK    3  A    between atoms: C_6  and  N_8
REMARK    4  A    between atoms: N_8  and  C_9
REMARK    5  A    between atoms: N_23  and  C_24
REMARK    6  A    between atoms: C_24  and  N_25
REMARK                            x       y       z     vdW  Elec       q    Type
REMARK                         _______ _______ _______ _____ _____    ______ ____
ROOT
ATOM      1  O   UNL     1       3.734   7.858  17.748  0.00  0.00    +0.000 OA
ATOM      2  C   UNL     1       3.284   6.819  18.187  0.00  0.00    +0.000 C 
ATOM      3  C   UNL     1       2.414   6.745  19.445  0.00  0.00    +0.000 C 
ATOM      4  N   UNL     1       1.846   7.652  20.168  0.00  0.00    +0.000 NA
ATOM      5  C   UNL     1       2.168   5.343  19.689  0.00  0.00    +0.000 A 
ATOM      6  C   UNL     1       1.529   4.775  20.774  0.00  0.00    +0.000 A 
ATOM      7  C   UNL     1       1.276   3.422  20.685  0.00  0.00    +0.000 A 
ATOM      8  F   UNL     1       0.704   2.792  21.718  0.00  0.00    +0.000 F 
ATOM      9  C   UNL     1       1.586   2.705  19.520  0.00  0.00    +0.000 A 
ATOM     10  C   UNL     1       2.250   3.321  18.442  0.00  0.00    +0.000 A 
ATOM     11  C   UNL     1       2.608   4.648  18.569  0.00  0.00    +0.000 A 
ATOM     12  N   UNL     1       3.360   5.500  17.724  0.00  0.00    +0.000 N 
ENDROOT
BRANCH   4  13
ATOM     13  N   UNL     1       2.042   8.951  19.872  0.00  0.00    +0.000 N 
ATOM     14  H   UNL     1       2.906   9.402  20.176  0.00  0.00    +0.000 HD
BRANCH  13  15
ATOM     15  C   UNL     1       0.999   9.724  19.384  0.00  0.00    +0.000 C 
ATOM     16  S   UNL     1       0.060   9.367  18.047  0.00  0.00    +0.000 S 
BRANCH  15  17
ATOM     17  N   UNL     1       0.779  10.899  20.064  0.00  0.00    +0.000 N 
ATOM     18  H   UNL     1       1.313  11.701  19.747  0.00  0.00    +0.000 HD
BRANCH  17  19
ATOM     19  C   UNL     1      -0.219  11.107  21.032  0.00  0.00    +0.000 A 
ATOM     20  C   UNL     1      -1.186  12.079  20.797  0.00  0.00    +0.000 A 
ATOM     21  C   UNL     1      -2.113  12.383  21.796  0.00  0.00    +0.000 A 
ATOM     22  C   UNL     1      -2.094  11.679  22.999  0.00  0.00    +0.000 A 
ATOM     23  F   UNL     1      -2.964  11.992  23.964  0.00  0.00    +0.000 F 
ATOM     24  C   UNL     1      -1.182  10.656  23.210  0.00  0.00    +0.000 A 
ATOM     25  C   UNL     1      -0.250  10.363  22.222  0.00  0.00    +0.000 A 
ENDBRANCH  17  19
ENDBRANCH  15  17
ENDBRANCH  13  15
ENDBRANCH   4  13
BRANCH  12  26
ATOM     26  C   UNL     1       4.099   5.086  16.546  0.00  0.00    +0.000 C 
BRANCH  26  27
ATOM     27  N   UNL     1       5.312   4.313  16.869  0.00  0.00    +0.000 NA
ATOM     28  C   UNL     1       6.282   5.139  17.641  0.00  0.00    +0.000 C 
ATOM     29  C   UNL     1       7.020   6.201  16.798  0.00  0.00    +0.000 C 
ATOM     30  O   UNL     1       7.675   5.617  15.666  0.00  0.00    +0.000 OA
ATOM     31  C   UNL     1       6.767   4.845  14.874  0.00  0.00    +0.000 C 
ATOM     32  C   UNL     1       6.058   3.772  15.715  0.00  0.00    +0.000 C 
ENDBRANCH  26  27
ENDBRANCH  12  26
TORSDOF 6
ENDMDL
