MODEL 1
REMARK VINA RESULT:      -7.2      0.000      0.000
REMARK  Name = 
REMARK  5 active torsions:
REMARK  status: ('A' for Active; 'I' for Inactive)
REMARK    1  A    between atoms: C_1  and  C_2
REMARK    2  A    between atoms: C_2  and  N_3
REMARK    3  A    between atoms: N_6  and  C_7
REMARK    4  A    between atoms: C_7  and  C_8
REMARK    5  A    between atoms: N_17  and  C_18
REMARK                            x       y       z     vdW  Elec       q    Type
REMARK                         _______ _______ _______ _____ _____    ______ ____
ROOT
ATOM      1  C   UNL     1       2.626   2.725  19.495  0.00  0.00    +0.000 C 
ATOM      2  C   UNL     1       1.682   3.026  20.659  0.00  0.00    +0.000 C 
ATOM      3  C   UNL     1       1.939   4.406  21.237  0.00  0.00    +0.000 C 
ATOM      4  C   UNL     1       2.068   5.453  20.160  0.00  0.00    +0.000 A 
ATOM      5  C   UNL     1       1.913   6.801  20.538  0.00  0.00    +0.000 A 
ATOM      6  C   UNL     1       2.032   7.820  19.601  0.00  0.00    +0.000 A 
ATOM      7  C   UNL     1       2.318   7.497  18.284  0.00  0.00    +0.000 A 
ATOM      8  C   UNL     1       2.485   6.157  17.908  0.00  0.00    +0.000 A 
ATOM      9  C   UNL     1       2.367   5.098  18.824  0.00  0.00    +0.000 A 
ATOM     10  N   UNL     1       2.481   3.763  18.449  0.00  0.00    +0.000 N 
ATOM     11  C   UNL     1       2.853   3.344  17.100  0.00  0.00    +0.000 C 
ENDROOT
BRANCH   1  12
ATOM     12  C   UNL     1       4.116   2.562  19.904  0.00  0.00    +0.000 C 
BRANCH  12  16
ATOM     13  N   UNL     1       6.723   4.257  17.997  0.00  0.00    +0.000 N 
ATOM     14  C   UNL     1       5.834   4.106  19.036  0.00  0.00    +0.000 C 
ATOM     15  O   UNL     1       5.714   4.909  19.954  0.00  0.00    +0.000 OA
ATOM     16  N   UNL     1       5.088   2.970  18.903  0.00  0.00    +0.000 N 
ATOM     17  H   UNL     1       7.112   3.388  17.659  0.00  0.00    +0.000 HD
ATOM     18  H   UNL     1       5.178   2.428  18.058  0.00  0.00    +0.000 HD
BRANCH  13  20
ATOM     19  C   UNL     1       7.055   6.520  17.100  0.00  0.00    +0.000 C 
ATOM     20  C   UNL     1       7.595   5.412  17.983  0.00  0.00    +0.000 C 
ENDBRANCH  13  20
ENDBRANCH  12  16
ENDBRANCH   1  12
TORSDOF 3
ENDMDL
MODEL 2
REMARK VINA RESULT:      -7.0      2.941      4.841
REMARK  Name = 
REMARK  5 active torsions:
REMARK  status: ('A' for Active; 'I' for Inactive)
REMARK    1  A    between atoms: C_1  and  C_2
REMARK    2  A    between atoms: C_2  and  N_3
REMARK    3  A    between atoms: N_6  and  C_7
REMARK    4  A    between atoms: C_7  and  C_8
REMARK    5  A    between atoms: N_17  and  C_18
REMARK                            x       y       z     vdW  Elec       q    Type
REMARK                         _______ _______ _______ _____ _____    ______ ____
ROOT
ATOM      1  C   UNL     1       5.262   6.178  16.175  0.00  0.00    +0.000 C 
ATOM      2  C   UNL     1       5.285   4.950  15.266  0.00  0.00    +0.000 C 
ATOM      3  C   UNL     1       5.266   3.664  16.072  0.00  0.00    +0.000 C 
ATOM      4  C   UNL     1       4.226   3.699  17.163  0.00  0.00    +0.000 A 
ATOM      5  C   UNL     1       3.824   2.470  17.722  0.00  0.00    +0.000 A 
ATOM      6  C   UNL     1       2.880   2.427  18.740  0.00  0.00    +0.000 A 
ATOM      7  C   UNL     1       2.342   3.614  19.214  0.00  0.00    +0.000 A 
ATOM      8  C   UNL     1       2.749   4.838  18.668  0.00  0.00    +0.000 A 
ATOM      9  C   UNL     1       3.697   4.924  17.633  0.00  0.00    +0.000 A 
ATOM     10  N   UNL     1       4.069   6.131  17.052  0.00  0.00    +0.000 N 
ATOM     11  C   UNL     1       3.605   7.428  17.541  0.00  0.00    +0.000 C 
ENDROOT
BRANCH   1  12
ATOM     12  C   UNL     1       6.553   6.379  17.016  0.00  0.00    +0.000 C 
BRANCH  12  16
ATOM     13  N   UNL     1       8.271   9.456  17.957  0.00  0.00    +0.000 N 
ATOM     14  C   UNL     1       7.964   8.118  18.051  0.00  0.00    +0.000 C 
ATOM     15  O   UNL     1       8.474   7.356  18.864  0.00  0.00    +0.000 OA
ATOM     16  N   UNL     1       7.007   7.754  17.148  0.00  0.00    +0.000 N 
ATOM     17  H   UNL     1       8.247   9.817  17.014  0.00  0.00    +0.000 HD
ATOM     18  H   UNL     1       6.565   8.470  16.595  0.00  0.00    +0.000 HD
BRANCH  13  20
ATOM     19  C   UNL     1       9.815  11.329  18.334  0.00  0.00    +0.000 C 
ATOM     20  C   UNL     1       9.272  10.009  18.844  0.00  0.00    +0.000 C 
ENDBRANCH  13  20
ENDBRANCH  12  16
ENDBRANCH   1  12
TORSDOF 3
ENDMDL
MODEL 3
REMARK VINA RESULT:      -6.9      2.782      5.737
REMARK  Name = 
REMARK  5 active torsions:
REMARK  status: ('A' for Active; 'I' for Inactive)
REMARK    1  A    between atoms: C_1  and  C_2
REMARK    2  A    between atoms: C_2  and  N_3
REMARK    3  A    between atoms: N_6  and  C_7
REMARK    4  A    between atoms: C_7  and  C_8
REMARK    5  A    between atoms: N_17  and  C_18
REMARK                            x       y       z     vdW  Elec       q    Type
REMARK                         _______ _______ _______ _____ _____    ______ ____
ROOT
ATOM      1  C   UNL     1       4.326   4.757  19.047  0.00  0.00    +0.000 C 
ATOM      2  C   UNL     1       3.606   3.582  18.386  0.00  0.00    +0.000 C 
ATOM      3  C   UNL     1       3.571   3.733  16.876  0.00  0.00    +0.000 C 
ATOM      4  C   UNL     1       4.915   4.125  16.318  0.00  0.00    +0.000 A 
ATOM      5  C   UNL     1       5.137   3.918  14.942  0.00  0.00    +0.000 A 
ATOM      6  C   UNL     1       6.347   4.267  14.357  0.00  0.00    +0.000 A 
ATOM      7  C   UNL     1       7.339   4.836  15.141  0.00  0.00    +0.000 A 
ATOM      8  C   UNL     1       7.117   5.054  16.508  0.00  0.00    +0.000 A 
ATOM      9  C   UNL     1       5.909   4.709  17.138  0.00  0.00    +0.000 A 
ATOM     10  N   UNL     1       5.699   4.876  18.503  0.00  0.00    +0.000 N 
ATOM     11  C   UNL     1       6.662   5.532  19.384  0.00  0.00    +0.000 C 
ENDROOT
BRANCH   1  12
ATOM     12  C   UNL     1       3.575   6.113  18.938  0.00  0.00    +0.000 C 
BRANCH  12  16
ATOM     13  N   UNL     1       1.308   7.717  21.304  0.00  0.00    +0.000 N 
ATOM     14  C   UNL     1       1.974   7.582  20.107  0.00  0.00    +0.000 C 
ATOM     15  O   UNL     1       1.850   8.357  19.167  0.00  0.00    +0.000 OA
ATOM     16  N   UNL     1       2.804   6.498  20.109  0.00  0.00    +0.000 N 
ATOM     17  H   UNL     1       1.055   6.839  21.734  0.00  0.00    +0.000 HD
ATOM     18  H   UNL     1       2.925   5.982  20.966  0.00  0.00    +0.000 HD
BRANCH  13  20
ATOM     19  C   UNL     1       0.416   9.376  22.881  0.00  0.00    +0.000 C 
ATOM     20  C   UNL     1       0.384   8.818  21.472  0.00  0.00    +0.000 C 
ENDBRANCH  13  20
ENDBRANCH  12  16
ENDBRANCH   1  12
TORSDOF 3
ENDMDL
MODEL 4
REMARK VINA RESULT:      -6.8      2.730      4.078
REMARK  Name = 
REMARK  5 active torsions:
REMARK  status: ('A' for Active; 'I' for Inactive)
REMARK    1  A    between atoms: C_1  and  C_2
REMARK    2  A    between atoms: C_2  and  N_3
REMARK    3  A    between atoms: N_6  and  C_7
REMARK    4  A    between atoms: C_7  and  C_8
REMARK    5  A    between atoms: N_17  and  C_18
REMARK                            x       y       z     vdW  Elec       q    Type
REMARK                         _______ _______ _______ _____ _____    ______ ____
ROOT
ATOM      1  C   UNL     1       3.496   4.551  17.263  0.00  0.00    +0.000 C 
ATOM      2  C   UNL     1       2.660   3.336  16.865  0.00  0.00    +0.000 C 
ATOM      3  C   UNL     1       2.654   2.285  17.960  0.00  0.00    +0.000 C 
ATOM      4  C   UNL     1       2.398   2.887  19.318  0.00  0.00    +0.000 A 
ATOM      5  C   UNL     1       1.977   2.023  20.348  0.00  0.00    +0.000 A 
ATOM      6  C   UNL     1       1.734   2.507  21.626  0.00  0.00    +0.000 A 
ATOM      7  C   UNL     1       1.922   3.855  21.887  0.00  0.00    +0.000 A 
ATOM      8  C   UNL     1       2.352   4.715  20.867  0.00  0.00    +0.000 A 
ATOM      9  C   UNL     1       2.603   4.266  19.559  0.00  0.00    +0.000 A 
ATOM     10  N   UNL     1       2.981   5.122  18.530  0.00  0.00    +0.000 N 
ATOM     11  C   UNL     1       3.270   6.539  18.737  0.00  0.00    +0.000 C 
ENDROOT
BRANCH   1  12
ATOM     12  C   UNL     1       5.021   4.275  17.367  0.00  0.00    +0.000 C 
BRANCH  12  16
ATOM     13  N   UNL     1       6.552   3.638  14.117  0.00  0.00    +0.000 N 
ATOM     14  C   UNL     1       5.934   4.405  15.078  0.00  0.00    +0.000 C 
ATOM     15  O   UNL     1       5.669   5.593  14.936  0.00  0.00    +0.000 OA
ATOM     16  N   UNL     1       5.631   3.675  16.191  0.00  0.00    +0.000 N 
ATOM     17  H   UNL     1       7.172   2.933  14.491  0.00  0.00    +0.000 HD
ATOM     18  H   UNL     1       5.785   2.679  16.174  0.00  0.00    +0.000 HD
BRANCH  13  20
ATOM     19  C   UNL     1       6.790   3.315  11.694  0.00  0.00    +0.000 C 
ATOM     20  C   UNL     1       6.944   4.259  12.870  0.00  0.00    +0.000 C 
ENDBRANCH  13  20
ENDBRANCH  12  16
ENDBRANCH   1  12
TORSDOF 3
ENDMDL
MODEL 5
REMARK VINA RESULT:      -6.6      2.020      3.590
REMARK  Name = 
REMARK  5 active torsions:
REMARK  status: ('A' for Active; 'I' for Inactive)
REMARK    1  A    between atoms: C_1  and  C_2
REMARK    2  A    between atoms: C_2  and  N_3
REMARK    3  A    between atoms: N_6  and  C_7
REMARK    4  A    between atoms: C_7  and  C_8
REMARK    5  A    between atoms: N_17  and  C_18
REMARK                            x       y       z     vdW  Elec       q    Type
REMARK                         _______ _______ _______ _____ _____    ______ ____
ROOT
ATOM      1  C   UNL     1       4.623   4.539  17.151  0.00  0.00    +0.000 C 
ATOM      2  C   UNL     1       4.090   3.192  16.666  0.00  0.00    +0.000 C 
ATOM      3  C   UNL     1       3.618   2.334  17.826  0.00  0.00    +0.000 C 
ATOM      4  C   UNL     1       2.760   3.113  18.791  0.00  0.00    +0.000 A 
ATOM      5  C   UNL     1       1.943   2.382  19.675  0.00  0.00    +0.000 A 
ATOM      6  C   UNL     1       1.136   3.033  20.599  0.00  0.00    +0.000 A 
ATOM      7  C   UNL     1       1.150   4.419  20.652  0.00  0.00    +0.000 A 
ATOM      8  C   UNL     1       1.971   5.147  19.781  0.00  0.00    +0.000 A 
ATOM      9  C   UNL     1       2.797   4.526  18.829  0.00  0.00    +0.000 A 
ATOM     10  N   UNL     1       3.577   5.244  17.927  0.00  0.00    +0.000 N 
ATOM     11  C   UNL     1       3.703   6.699  17.965  0.00  0.00    +0.000 C 
ENDROOT
BRANCH   1  12
ATOM     12  C   UNL     1       5.944   4.453  17.964  0.00  0.00    +0.000 C 
BRANCH  12  16
ATOM     13  N   UNL     1       7.529   7.726  18.246  0.00  0.00    +0.000 N 
ATOM     14  C   UNL     1       7.170   6.563  17.603  0.00  0.00    +0.000 C 
ATOM     15  O   UNL     1       7.459   6.309  16.440  0.00  0.00    +0.000 OA
ATOM     16  N   UNL     1       6.479   5.723  18.428  0.00  0.00    +0.000 N 
ATOM     17  H   UNL     1       6.843   8.057  18.909  0.00  0.00    +0.000 HD
ATOM     18  H   UNL     1       6.384   5.967  19.401  0.00  0.00    +0.000 HD
BRANCH  13  20
ATOM     19  C   UNL     1       8.756   9.847  18.417  0.00  0.00    +0.000 C 
ATOM     20  C   UNL     1       8.269   8.732  17.514  0.00  0.00    +0.000 C 
ENDBRANCH  13  20
ENDBRANCH  12  16
ENDBRANCH   1  12
TORSDOF 3
ENDMDL
MODEL 6
REMARK VINA RESULT:      -6.5      1.596      3.388
REMARK  Name = 
REMARK  5 active torsions:
REMARK  status: ('A' for Active; 'I' for Inactive)
REMARK    1  A    between atoms: C_1  and  C_2
REMARK    2  A    between atoms: C_2  and  N_3
REMARK    3  A    between atoms: N_6  and  C_7
REMARK    4  A    between atoms: C_7  and  C_8
REMARK    5  A    between atoms: N_17  and  C_18
REMARK                            x       y       z     vdW  Elec       q    Type
REMARK                         _______ _______ _______ _____ _____    ______ ____
ROOT
ATOM      1  C   UNL     1       3.674   4.360  16.961  0.00  0.00    +0.000 C 
ATOM      2  C   UNL     1       2.953   3.036  16.716  0.00  0.00    +0.000 C 
ATOM      3  C   UNL     1       3.006   2.141  17.941  0.00  0.00    +0.000 C 
ATOM      4  C   UNL     1       2.665   2.893  19.203  0.00  0.00    +0.000 A 
ATOM      5  C   UNL     1       2.291   2.139  20.332  0.00  0.00    +0.000 A 
ATOM      6  C   UNL     1       1.976   2.764  21.531  0.00  0.00    +0.000 A 
ATOM      7  C   UNL     1       2.044   4.146  21.612  0.00  0.00    +0.000 A 
ATOM      8  C   UNL     1       2.427   4.898  20.494  0.00  0.00    +0.000 A 
ATOM      9  C   UNL     1       2.749   4.304  19.261  0.00  0.00    +0.000 A 
ATOM     10  N   UNL     1       3.081   5.046  18.133  0.00  0.00    +0.000 N 
ATOM     11  C   UNL     1       3.246   6.498  18.153  0.00  0.00    +0.000 C 
ENDROOT
BRANCH   1  12
ATOM     12  C   UNL     1       5.214   4.232  17.123  0.00  0.00    +0.000 C 
BRANCH  12  16
ATOM     13  N   UNL     1       7.394   7.153  17.280  0.00  0.00    +0.000 N 
ATOM     14  C   UNL     1       6.717   6.071  17.793  0.00  0.00    +0.000 C 
ATOM     15  O   UNL     1       6.759   5.737  18.971  0.00  0.00    +0.000 OA
ATOM     16  N   UNL     1       5.976   5.437  16.837  0.00  0.00    +0.000 N 
ATOM     17  H   UNL     1       7.725   7.019  16.335  0.00  0.00    +0.000 HD
ATOM     18  H   UNL     1       5.915   5.849  15.920  0.00  0.00    +0.000 HD
BRANCH  13  20
ATOM     19  C   UNL     1       8.151   9.420  17.848  0.00  0.00    +0.000 C 
ATOM     20  C   UNL     1       8.231   7.939  18.161  0.00  0.00    +0.000 C 
ENDBRANCH  13  20
ENDBRANCH  12  16
ENDBRANCH   1  12
TORSDOF 3
ENDMDL
MODEL 7
REMARK VINA RESULT:      -6.5      3.162      4.044
REMARK  Name = 
REMARK  5 active torsions:
REMARK  status: ('A' for Active; 'I' for Inactive)
REMARK    1  A    between atoms: C_1  and  C_2
REMARK    2  A    between atoms: C_2  and  N_3
REMARK    3  A    between atoms: N_6  and  C_7
REMARK    4  A    between atoms: C_7  and  C_8
REMARK    5  A    between atoms: N_17  and  C_18
REMARK                            x       y       z     vdW  Elec       q    Type
REMARK                         _______ _______ _______ _____ _____    ______ ____
ROOT
ATOM      1  C   UNL     1       5.232   4.020  17.954  0.00  0.00    +0.000 C 
ATOM      2  C   UNL     1       5.537   4.966  19.115  0.00  0.00    +0.000 C 
ATOM      3  C   UNL     1       4.298   5.727  19.550  0.00  0.00    +0.000 C 
ATOM      4  C   UNL     1       3.101   4.821  19.690  0.00  0.00    +0.000 A 
ATOM      5  C   UNL     1       2.011   5.291  20.448  0.00  0.00    +0.000 A 
ATOM      6  C   UNL     1       0.870   4.515  20.609  0.00  0.00    +0.000 A 
ATOM      7  C   UNL     1       0.808   3.270  20.003  0.00  0.00    +0.000 A 
ATOM      8  C   UNL     1       1.886   2.805  19.238  0.00  0.00    +0.000 A 
ATOM      9  C   UNL     1       3.060   3.557  19.056  0.00  0.00    +0.000 A 
ATOM     10  N   UNL     1       4.154   3.081  18.341  0.00  0.00    +0.000 N 
ATOM     11  C   UNL     1       4.141   1.814  17.613  0.00  0.00    +0.000 C 
ENDROOT
BRANCH   1  12
ATOM     12  C   UNL     1       4.884   4.734  16.619  0.00  0.00    +0.000 C 
BRANCH  12  16
ATOM     13  N   UNL     1       6.065   3.450  13.415  0.00  0.00    +0.000 N 
ATOM     14  C   UNL     1       5.965   4.374  14.431  0.00  0.00    +0.000 C 
ATOM     15  O   UNL     1       6.552   5.449  14.435  0.00  0.00    +0.000 OA
ATOM     16  N   UNL     1       5.114   3.955  15.413  0.00  0.00    +0.000 N 
ATOM     17  H   UNL     1       6.025   2.490  13.728  0.00  0.00    +0.000 HD
ATOM     18  H   UNL     1       4.590   3.106  15.271  0.00  0.00    +0.000 HD
BRANCH  13  20
ATOM     19  C   UNL     1       7.118   2.526  11.397  0.00  0.00    +0.000 C 
ATOM     20  C   UNL     1       6.931   3.736  12.291  0.00  0.00    +0.000 C 
ENDBRANCH  13  20
ENDBRANCH  12  16
ENDBRANCH   1  12
TORSDOF 3
ENDMDL
MODEL 8
REMARK VINA RESULT:      -6.5      2.760      4.418
REMARK  Name = 
REMARK  5 active torsions:
REMARK  status: ('A' for Active; 'I' for Inactive)
REMARK    1  A    between atoms: C_1  and  C_2
REMARK    2  A    between atoms: C_2  and  N_3
REMARK    3  A    between atoms: N_6  and  C_7
REMARK    4  A    between atoms: C_7  and  C_8
REMARK    5  A    between atoms: N_17  and  C_18
REMARK                            x       y       z     vdW  Elec       q    Type
REMARK                         _______ _______ _______ _____ _____    ______ ____
ROOT
ATOM      1  C   UNL     1       4.493   6.724  18.402  0.00  0.00    +0.000 C 
ATOM      2  C   UNL     1       3.002   6.986  18.614  0.00  0.00    +0.000 C 
ATOM      3  C   UNL     1       2.151   5.970  17.874  0.00  0.00    +0.000 C 
ATOM      4  C   UNL     1       2.645   4.561  18.085  0.00  0.00    +0.000 A 
ATOM      5  C   UNL     1       1.755   3.507  17.801  0.00  0.00    +0.000 A 
ATOM      6  C   UNL     1       2.145   2.184  17.961  0.00  0.00    +0.000 A 
ATOM      7  C   UNL     1       3.433   1.907  18.392  0.00  0.00    +0.000 A 
ATOM      8  C   UNL     1       4.325   2.953  18.664  0.00  0.00    +0.000 A 
ATOM      9  C   UNL     1       3.966   4.304  18.521  0.00  0.00    +0.000 A 
ATOM     10  N   UNL     1       4.829   5.349  18.837  0.00  0.00    +0.000 N 
ATOM     11  C   UNL     1       6.221   5.142  19.227  0.00  0.00    +0.000 C 
ENDROOT
BRANCH   1  12
ATOM     12  C   UNL     1       4.989   6.977  16.952  0.00  0.00    +0.000 C 
BRANCH  12  16
ATOM     13  N   UNL     1       5.406   4.315  14.492  0.00  0.00    +0.000 N 
ATOM     14  C   UNL     1       5.811   5.389  15.251  0.00  0.00    +0.000 C 
ATOM     15  O   UNL     1       6.941   5.861  15.217  0.00  0.00    +0.000 OA
ATOM     16  N   UNL     1       4.794   5.876  16.021  0.00  0.00    +0.000 N 
ATOM     17  H   UNL     1       4.737   3.715  14.954  0.00  0.00    +0.000 HD
ATOM     18  H   UNL     1       3.869   5.495  15.901  0.00  0.00    +0.000 HD
BRANCH  13  20
ATOM     19  C   UNL     1       5.739   3.263  12.298  0.00  0.00    +0.000 C 
ATOM     20  C   UNL     1       6.364   3.676  13.616  0.00  0.00    +0.000 C 
ENDBRANCH  13  20
ENDBRANCH  12  16
ENDBRANCH   1  12
TORSDOF 3
ENDMDL
MODEL 9
REMARK VINA RESULT:      -6.5      2.600      3.976
REMARK  Name = 
REMARK  5 active torsions:
REMARK  status: ('A' for Active; 'I' for Inactive)
REMARK    1  A    between atoms: C_1  and  C_2
REMARK    2  A    between atoms: C_2  and  N_3
REMARK    3  A    between atoms: N_6  and  C_7
REMARK    4  A    between atoms: C_7  and  C_8
REMARK    5  A    between atoms: N_17  and  C_18
REMARK                            x       y       z     vdW  Elec       q    Type
REMARK                         _______ _______ _______ _____ _____    ______ ____
ROOT
ATOM      1  C   UNL     1       4.158   4.617  16.941  0.00  0.00    +0.000 C 
ATOM      2  C   UNL     1       3.508   3.259  16.677  0.00  0.00    +0.000 C 
ATOM      3  C   UNL     1       3.452   2.418  17.939  0.00  0.00    +0.000 C 
ATOM      4  C   UNL     1       2.952   3.208  19.122  0.00  0.00    +0.000 A 
ATOM      5  C   UNL     1       2.478   2.488  20.236  0.00  0.00    +0.000 A 
ATOM      6  C   UNL     1       2.013   3.150  21.365  0.00  0.00    +0.000 A 
ATOM      7  C   UNL     1       2.032   4.536  21.392  0.00  0.00    +0.000 A 
ATOM      8  C   UNL     1       2.513   5.254  20.289  0.00  0.00    +0.000 A 
ATOM      9  C   UNL     1       2.986   4.622  19.127  0.00  0.00    +0.000 A 
ATOM     10  N   UNL     1       3.419   5.329  18.010  0.00  0.00    +0.000 N 
ATOM     11  C   UNL     1       3.538   6.785  17.984  0.00  0.00    +0.000 C 
ENDROOT
BRANCH   1  12
ATOM     12  C   UNL     1       5.674   4.548  17.275  0.00  0.00    +0.000 C 
BRANCH  12  16
ATOM     13  N   UNL     1       7.579   5.420  14.289  0.00  0.00    +0.000 N 
ATOM     14  C   UNL     1       6.743   4.638  15.054  0.00  0.00    +0.000 C 
ATOM     15  O   UNL     1       6.248   3.587  14.665  0.00  0.00    +0.000 OA
ATOM     16  N   UNL     1       6.559   5.164  16.300  0.00  0.00    +0.000 N 
ATOM     17  H   UNL     1       7.475   6.411  14.451  0.00  0.00    +0.000 HD
ATOM     18  H   UNL     1       7.095   5.974  16.568  0.00  0.00    +0.000 HD
BRANCH  13  20
ATOM     19  C   UNL     1       8.252   6.181  12.052  0.00  0.00    +0.000 C 
ATOM     20  C   UNL     1       7.880   5.006  12.935  0.00  0.00    +0.000 C 
ENDBRANCH  13  20
ENDBRANCH  12  16
ENDBRANCH   1  12
TORSDOF 3
ENDMDL
