MODEL 1
REMARK VINA RESULT:      -8.3      0.000      0.000
REMARK  Name = 
REMARK  10 active torsions:
REMARK  status: ('A' for Active; 'I' for Inactive)
REMARK    1  A    between atoms: C_1  and  C_2
REMARK    2  A    between atoms: C_2  and  C_3
REMARK    3  A    between atoms: C_2  and  C_4
REMARK    4  A    between atoms: C_4  and  C_5
REMARK    5  A    between atoms: C_5  and  N_6
REMARK    6  A    between atoms: C_9  and  C_10
REMARK    7  A    between atoms: C_10  and  S_11
REMARK    8  A    between atoms: S_11  and  C_13
REMARK    9  A    between atoms: C_15  and  C_16
REMARK   10  A    between atoms: C_21  and  C_22
REMARK                            x       y       z     vdW  Elec       q    Type
REMARK                         _______ _______ _______ _____ _____    ______ ____
ROOT
ATOM      1  S   UNL     1       5.369   4.670  16.524  0.00  0.00    +0.000 S 
ATOM      2  O   UNL     1       5.047   3.165  16.190  0.00  0.00    +0.000 OA
ENDROOT
BRANCH   1   3
ATOM      3  C   UNL     1       4.054   5.217  17.646  0.00  0.00    +0.000 A 
ATOM      4  C   UNL     1       3.559   4.352  18.629  0.00  0.00    +0.000 A 
ATOM      5  C   UNL     1       2.593   4.793  19.548  0.00  0.00    +0.000 A 
ATOM      6  C   UNL     1       2.127   6.119  19.470  0.00  0.00    +0.000 A 
ATOM      7  C   UNL     1       2.609   6.997  18.485  0.00  0.00    +0.000 A 
ATOM      8  C   UNL     1       3.573   6.530  17.579  0.00  0.00    +0.000 A 
BRANCH   5   9
ATOM      9  C   UNL     1       2.059   3.881  20.631  0.00  0.00    +0.000 C 
ATOM     10  F   UNL     1       2.534   2.609  20.544  0.00  0.00    +0.000 F 
ATOM     11  F   UNL     1       2.374   4.318  21.879  0.00  0.00    +0.000 F 
ATOM     12  F   UNL     1       0.704   3.779  20.596  0.00  0.00    +0.000 F 
ENDBRANCH   5   9
BRANCH   7  13
ATOM     13  C   UNL     1       2.125   8.425  18.394  0.00  0.00    +0.000 C 
ATOM     14  F   UNL     1       3.090   9.298  17.995  0.00  0.00    +0.000 F 
ATOM     15  F   UNL     1       1.098   8.575  17.514  0.00  0.00    +0.000 F 
ATOM     16  F   UNL     1       1.671   8.892  19.589  0.00  0.00    +0.000 F 
ENDBRANCH   7  13
ENDBRANCH   1   3
BRANCH   1  17
ATOM     17  C   UNL     1       6.744   4.691  17.717  0.00  0.00    +0.000 C 
BRANCH  17  21
ATOM     18  N   UNL     1       8.930   8.957  18.929  0.00  0.00    +0.000 N 
ATOM     19  C   UNL     1       8.270   7.995  18.243  0.00  0.00    +0.000 A 
ATOM     20  C   UNL     1       8.023   6.718  18.795  0.00  0.00    +0.000 A 
ATOM     21  C   UNL     1       7.327   6.044  17.820  0.00  0.00    +0.000 A 
ATOM     22  O   UNL     1       7.165   6.865  16.749  0.00  0.00    +0.000 OA
ATOM     23  N   UNL     1       7.751   8.087  17.013  0.00  0.00    +0.000 NA
ATOM     24  H   UNL     1       9.116   8.816  19.915  0.00  0.00    +0.000 HD
BRANCH  18  25
ATOM     25  C   UNL     1       8.791  10.349  18.529  0.00  0.00    +0.000 C 
BRANCH  25  26
ATOM     26  C   UNL     1      10.139  10.924  18.078  0.00  0.00    +0.000 C 
BRANCH  26  28
ATOM     27  C   UNL     1      11.389  11.905  20.074  0.00  0.00    +0.000 C 
ATOM     28  C   UNL     1      10.580  12.206  18.813  0.00  0.00    +0.000 C 
ATOM     29  C   UNL     1      11.407  13.085  17.870  0.00  0.00    +0.000 C 
ENDBRANCH  26  28
ENDBRANCH  25  26
ENDBRANCH  18  25
ENDBRANCH  17  21
ENDBRANCH   1  17
TORSDOF 8
ENDMDL
MODEL 2
REMARK VINA RESULT:      -8.2      1.278      1.870
REMARK  Name = 
REMARK  10 active torsions:
REMARK  status: ('A' for Active; 'I' for Inactive)
REMARK    1  A    between atoms: C_1  and  C_2
REMARK    2  A    between atoms: C_2  and  C_3
REMARK    3  A    between atoms: C_2  and  C_4
REMARK    4  A    between atoms: C_4  and  C_5
REMARK    5  A    between atoms: C_5  and  N_6
REMARK    6  A    between atoms: C_9  and  C_10
REMARK    7  A    between atoms: C_10  and  S_11
REMARK    8  A    between atoms: S_11  and  C_13
REMARK    9  A    between atoms: C_15  and  C_16
REMARK   10  A    between atoms: C_21  and  C_22
REMARK                            x       y       z     vdW  Elec       q    Type
REMARK                         _______ _______ _______ _____ _____    ______ ____
ROOT
ATOM      1  S   UNL     1       5.938   4.888  15.631  0.00  0.00    +0.000 S 
ATOM      2  O   UNL     1       5.794   3.514  14.876  0.00  0.00    +0.000 OA
ENDROOT
BRANCH   1   3
ATOM      3  C   UNL     1       4.472   5.025  16.688  0.00  0.00    +0.000 A 
ATOM      4  C   UNL     1       3.875   3.877  17.220  0.00  0.00    +0.000 A 
ATOM      5  C   UNL     1       2.783   3.981  18.098  0.00  0.00    +0.000 A 
ATOM      6  C   UNL     1       2.295   5.256  18.438  0.00  0.00    +0.000 A 
ATOM      7  C   UNL     1       2.879   6.418  17.907  0.00  0.00    +0.000 A 
ATOM      8  C   UNL     1       3.967   6.286  17.031  0.00  0.00    +0.000 A 
BRANCH   5   9
ATOM      9  C   UNL     1       2.136   2.753  18.701  0.00  0.00    +0.000 C 
ATOM     10  F   UNL     1       2.041   2.807  20.057  0.00  0.00    +0.000 F 
ATOM     11  F   UNL     1       0.873   2.552  18.240  0.00  0.00    +0.000 F 
ATOM     12  F   UNL     1       2.828   1.616  18.419  0.00  0.00    +0.000 F 
ENDBRANCH   5   9
BRANCH   7  13
ATOM     13  C   UNL     1       2.372   7.794  18.269  0.00  0.00    +0.000 C 
ATOM     14  F   UNL     1       2.040   7.918  19.583  0.00  0.00    +0.000 F 
ATOM     15  F   UNL     1       3.284   8.772  18.019  0.00  0.00    +0.000 F 
ATOM     16  F   UNL     1       1.254   8.131  17.569  0.00  0.00    +0.000 F 
ENDBRANCH   7  13
ENDBRANCH   1   3
BRANCH   1  17
ATOM     17  C   UNL     1       7.178   4.671  16.945  0.00  0.00    +0.000 C 
BRANCH  17  21
ATOM     18  N   UNL     1       8.224   9.382  18.025  0.00  0.00    +0.000 N 
ATOM     19  C   UNL     1       8.082   8.039  18.114  0.00  0.00    +0.000 A 
ATOM     20  C   UNL     1       7.532   7.272  17.061  0.00  0.00    +0.000 A 
ATOM     21  C   UNL     1       7.571   5.976  17.515  0.00  0.00    +0.000 A 
ATOM     22  O   UNL     1       8.110   5.963  18.763  0.00  0.00    +0.000 OA
ATOM     23  N   UNL     1       8.432   7.252  19.137  0.00  0.00    +0.000 NA
ATOM     24  H   UNL     1       8.080   9.831  17.128  0.00  0.00    +0.000 HD
BRANCH  18  25
ATOM     25  C   UNL     1       9.159  10.066  18.905  0.00  0.00    +0.000 C 
BRANCH  25  26
ATOM     26  C   UNL     1       9.815  11.252  18.188  0.00  0.00    +0.000 C 
BRANCH  26  28
ATOM     27  C   UNL     1      11.904  12.665  17.801  0.00  0.00    +0.000 C 
ATOM     28  C   UNL     1      11.240  11.596  18.668  0.00  0.00    +0.000 C 
ATOM     29  C   UNL     1      11.195  12.070  20.124  0.00  0.00    +0.000 C 
ENDBRANCH  26  28
ENDBRANCH  25  26
ENDBRANCH  18  25
ENDBRANCH  17  21
ENDBRANCH   1  17
TORSDOF 8
ENDMDL
MODEL 3
REMARK VINA RESULT:      -8.2      0.409      3.404
REMARK  Name = 
REMARK  10 active torsions:
REMARK  status: ('A' for Active; 'I' for Inactive)
REMARK    1  A    between atoms: C_1  and  C_2
REMARK    2  A    between atoms: C_2  and  C_3
REMARK    3  A    between atoms: C_2  and  C_4
REMARK    4  A    between atoms: C_4  and  C_5
REMARK    5  A    between atoms: C_5  and  N_6
REMARK    6  A    between atoms: C_9  and  C_10
REMARK    7  A    between atoms: C_10  and  S_11
REMARK    8  A    between atoms: S_11  and  C_13
REMARK    9  A    between atoms: C_15  and  C_16
REMARK   10  A    between atoms: C_21  and  C_22
REMARK                            x       y       z     vdW  Elec       q    Type
REMARK                         _______ _______ _______ _____ _____    ______ ____
ROOT
ATOM      1  S   UNL     1       5.532   4.867  16.379  0.00  0.00    +0.000 S 
ATOM      2  O   UNL     1       5.190   3.382  15.980  0.00  0.00    +0.000 OA
ENDROOT
BRANCH   1   3
ATOM      3  C   UNL     1       4.233   5.377  17.536  0.00  0.00    +0.000 A 
ATOM      4  C   UNL     1       3.717   6.677  17.490  0.00  0.00    +0.000 A 
ATOM      5  C   UNL     1       2.660   7.057  18.334  0.00  0.00    +0.000 A 
ATOM      6  C   UNL     1       2.124   6.113  19.229  0.00  0.00    +0.000 A 
ATOM      7  C   UNL     1       2.636   4.806  19.292  0.00  0.00    +0.000 A 
ATOM      8  C   UNL     1       3.692   4.453  18.439  0.00  0.00    +0.000 A 
BRANCH   5   9
ATOM      9  C   UNL     1       2.074   8.451  18.285  0.00  0.00    +0.000 C 
ATOM     10  F   UNL     1       2.957   9.391  17.851  0.00  0.00    +0.000 F 
ATOM     11  F   UNL     1       0.997   8.533  17.460  0.00  0.00    +0.000 F 
ATOM     12  F   UNL     1       1.648   8.873  19.506  0.00  0.00    +0.000 F 
ENDBRANCH   5   9
BRANCH   7  13
ATOM     13  C   UNL     1       2.065   3.779  20.241  0.00  0.00    +0.000 C 
ATOM     14  F   UNL     1       0.723   3.907  20.432  0.00  0.00    +0.000 F 
ATOM     15  F   UNL     1       2.263   2.503  19.814  0.00  0.00    +0.000 F 
ATOM     16  F   UNL     1       2.627   3.856  21.479  0.00  0.00    +0.000 F 
ENDBRANCH   7  13
ENDBRANCH   1   3
BRANCH   1  17
ATOM     17  C   UNL     1       6.916   4.818  17.560  0.00  0.00    +0.000 C 
BRANCH  17  21
ATOM     18  N   UNL     1       9.025   9.011  19.117  0.00  0.00    +0.000 N 
ATOM     19  C   UNL     1       8.373   8.099  18.358  0.00  0.00    +0.000 A 
ATOM     20  C   UNL     1       8.171   6.770  18.794  0.00  0.00    +0.000 A 
ATOM     21  C   UNL     1       7.468   6.171  17.776  0.00  0.00    +0.000 A 
ATOM     22  O   UNL     1       7.260   7.083  16.790  0.00  0.00    +0.000 OA
ATOM     23  N   UNL     1       7.823   8.290  17.154  0.00  0.00    +0.000 NA
ATOM     24  H   UNL     1       9.238   8.784  20.081  0.00  0.00    +0.000 HD
BRANCH  18  25
ATOM     25  C   UNL     1       8.843  10.430  18.851  0.00  0.00    +0.000 C 
BRANCH  25  26
ATOM     26  C   UNL     1       9.987  10.975  17.989  0.00  0.00    +0.000 C 
BRANCH  26  28
ATOM     27  C   UNL     1      10.069  13.488  18.421  0.00  0.00    +0.000 C 
ATOM     28  C   UNL     1      10.773  12.146  18.614  0.00  0.00    +0.000 C 
ATOM     29  C   UNL     1      10.986  11.887  20.109  0.00  0.00    +0.000 C 
ENDBRANCH  26  28
ENDBRANCH  25  26
ENDBRANCH  18  25
ENDBRANCH  17  21
ENDBRANCH   1  17
TORSDOF 8
ENDMDL
MODEL 4
REMARK VINA RESULT:      -8.1      0.848      3.413
REMARK  Name = 
REMARK  10 active torsions:
REMARK  status: ('A' for Active; 'I' for Inactive)
REMARK    1  A    between atoms: C_1  and  C_2
REMARK    2  A    between atoms: C_2  and  C_3
REMARK    3  A    between atoms: C_2  and  C_4
REMARK    4  A    between atoms: C_4  and  C_5
REMARK    5  A    between atoms: C_5  and  N_6
REMARK    6  A    between atoms: C_9  and  C_10
REMARK    7  A    between atoms: C_10  and  S_11
REMARK    8  A    between atoms: S_11  and  C_13
REMARK    9  A    between atoms: C_15  and  C_16
REMARK   10  A    between atoms: C_21  and  C_22
REMARK                            x       y       z     vdW  Elec       q    Type
REMARK                         _______ _______ _______ _____ _____    ______ ____
ROOT
ATOM      1  S   UNL     1       5.477   5.644  16.139  0.00  0.00    +0.000 S 
ATOM      2  O   UNL     1       5.158   4.222  15.541  0.00  0.00    +0.000 OA
ENDROOT
BRANCH   1   3
ATOM      3  C   UNL     1       4.115   6.018  17.275  0.00  0.00    +0.000 A 
ATOM      4  C   UNL     1       3.588   7.312  17.345  0.00  0.00    +0.000 A 
ATOM      5  C   UNL     1       2.486   7.592  18.170  0.00  0.00    +0.000 A 
ATOM      6  C   UNL     1       1.914   6.552  18.926  0.00  0.00    +0.000 A 
ATOM      7  C   UNL     1       2.435   5.248  18.872  0.00  0.00    +0.000 A 
ATOM      8  C   UNL     1       3.538   4.997  18.041  0.00  0.00    +0.000 A 
BRANCH   5   9
ATOM      9  C   UNL     1       1.888   8.980  18.244  0.00  0.00    +0.000 C 
ATOM     10  F   UNL     1       2.721   9.949  17.779  0.00  0.00    +0.000 F 
ATOM     11  F   UNL     1       0.740   9.090  17.525  0.00  0.00    +0.000 F 
ATOM     12  F   UNL     1       1.572   9.336  19.518  0.00  0.00    +0.000 F 
ENDBRANCH   5   9
BRANCH   7  13
ATOM     13  C   UNL     1       1.828   4.120  19.672  0.00  0.00    +0.000 C 
ATOM     14  F   UNL     1       1.422   3.071  18.904  0.00  0.00    +0.000 F 
ATOM     15  F   UNL     1       2.691   3.603  20.587  0.00  0.00    +0.000 F 
ATOM     16  F   UNL     1       0.728   4.518  20.369  0.00  0.00    +0.000 F 
ENDBRANCH   7  13
ENDBRANCH   1   3
BRANCH   1  17
ATOM     17  C   UNL     1       6.792   5.441  17.380  0.00  0.00    +0.000 C 
BRANCH  17  21
ATOM     18  N   UNL     1       9.187   9.361  19.211  0.00  0.00    +0.000 N 
ATOM     19  C   UNL     1       8.450   8.559  18.407  0.00  0.00    +0.000 A 
ATOM     20  C   UNL     1       8.207   7.203  18.722  0.00  0.00    +0.000 A 
ATOM     21  C   UNL     1       7.421   6.740  17.694  0.00  0.00    +0.000 A 
ATOM     22  O   UNL     1       7.205   7.755  16.815  0.00  0.00    +0.000 OA
ATOM     23  N   UNL     1       7.845   8.893  17.262  0.00  0.00    +0.000 NA
ATOM     24  H   UNL     1       9.440   9.029  20.135  0.00  0.00    +0.000 HD
BRANCH  18  25
ATOM     25  C   UNL     1       9.060  10.806  19.096  0.00  0.00    +0.000 C 
BRANCH  25  26
ATOM     26  C   UNL     1      10.035  11.357  18.050  0.00  0.00    +0.000 C 
BRANCH  26  28
ATOM     27  C   UNL     1      11.935  11.712  19.715  0.00  0.00    +0.000 C 
ATOM     28  C   UNL     1      11.096  12.333  18.598  0.00  0.00    +0.000 C 
ATOM     29  C   UNL     1      12.014  12.793  17.461  0.00  0.00    +0.000 C 
ENDBRANCH  26  28
ENDBRANCH  25  26
ENDBRANCH  18  25
ENDBRANCH  17  21
ENDBRANCH   1  17
TORSDOF 8
ENDMDL
MODEL 5
REMARK VINA RESULT:      -8.0      0.594      1.249
REMARK  Name = 
REMARK  10 active torsions:
REMARK  status: ('A' for Active; 'I' for Inactive)
REMARK    1  A    between atoms: C_1  and  C_2
REMARK    2  A    between atoms: C_2  and  C_3
REMARK    3  A    between atoms: C_2  and  C_4
REMARK    4  A    between atoms: C_4  and  C_5
REMARK    5  A    between atoms: C_5  and  N_6
REMARK    6  A    between atoms: C_9  and  C_10
REMARK    7  A    between atoms: C_10  and  S_11
REMARK    8  A    between atoms: S_11  and  C_13
REMARK    9  A    between atoms: C_15  and  C_16
REMARK   10  A    between atoms: C_21  and  C_22
REMARK                            x       y       z     vdW  Elec       q    Type
REMARK                         _______ _______ _______ _____ _____    ______ ____
ROOT
ATOM      1  S   UNL     1       5.346   4.446  16.495  0.00  0.00    +0.000 S 
ATOM      2  O   UNL     1       4.979   2.938  16.221  0.00  0.00    +0.000 OA
ENDROOT
BRANCH   1   3
ATOM      3  C   UNL     1       4.126   5.039  17.698  0.00  0.00    +0.000 A 
ATOM      4  C   UNL     1       3.731   4.224  18.764  0.00  0.00    +0.000 A 
ATOM      5  C   UNL     1       2.841   4.704  19.739  0.00  0.00    +0.000 A 
ATOM      6  C   UNL     1       2.351   6.019  19.632  0.00  0.00    +0.000 A 
ATOM      7  C   UNL     1       2.733   6.848  18.564  0.00  0.00    +0.000 A 
ATOM      8  C   UNL     1       3.621   6.342  17.603  0.00  0.00    +0.000 A 
BRANCH   5   9
ATOM      9  C   UNL     1       2.417   3.846  20.912  0.00  0.00    +0.000 C 
ATOM     10  F   UNL     1       2.425   4.514  22.097  0.00  0.00    +0.000 F 
ATOM     11  F   UNL     1       1.160   3.350  20.764  0.00  0.00    +0.000 F 
ATOM     12  F   UNL     1       3.231   2.770  21.082  0.00  0.00    +0.000 F 
ENDBRANCH   5   9
BRANCH   7  13
ATOM     13  C   UNL     1       2.222   8.263  18.440  0.00  0.00    +0.000 C 
ATOM     14  F   UNL     1       1.749   8.771  19.612  0.00  0.00    +0.000 F 
ATOM     15  F   UNL     1       3.179   9.131  18.015  0.00  0.00    +0.000 F 
ATOM     16  F   UNL     1       1.196   8.364  17.551  0.00  0.00    +0.000 F 
ENDBRANCH   7  13
ENDBRANCH   1   3
BRANCH   1  17
ATOM     17  C   UNL     1       6.805   4.471  17.583  0.00  0.00    +0.000 C 
BRANCH  17  21
ATOM     18  N   UNL     1       8.709   8.839  18.904  0.00  0.00    +0.000 N 
ATOM     19  C   UNL     1       8.175   7.832  18.173  0.00  0.00    +0.000 A 
ATOM     20  C   UNL     1       7.874   6.574  18.742  0.00  0.00    +0.000 A 
ATOM     21  C   UNL     1       7.341   5.842  17.708  0.00  0.00    +0.000 A 
ATOM     22  O   UNL     1       7.323   6.612  16.588  0.00  0.00    +0.000 OA
ATOM     23  N   UNL     1       7.841   7.858  16.879  0.00  0.00    +0.000 NA
ATOM     24  H   UNL     1       8.751   8.745  19.912  0.00  0.00    +0.000 HD
BRANCH  18  25
ATOM     25  C   UNL     1       8.604  10.209  18.425  0.00  0.00    +0.000 C 
BRANCH  25  26
ATOM     26  C   UNL     1       9.940  10.946  18.583  0.00  0.00    +0.000 C 
BRANCH  26  28
ATOM     27  C   UNL     1       9.369  13.432  18.509  0.00  0.00    +0.000 C 
ATOM     28  C   UNL     1      10.053  12.266  17.795  0.00  0.00    +0.000 C 
ATOM     29  C   UNL     1      11.528  12.604  17.559  0.00  0.00    +0.000 C 
ENDBRANCH  26  28
ENDBRANCH  25  26
ENDBRANCH  18  25
ENDBRANCH  17  21
ENDBRANCH   1  17
TORSDOF 8
ENDMDL
MODEL 6
REMARK VINA RESULT:      -8.0      0.795      1.393
REMARK  Name = 
REMARK  10 active torsions:
REMARK  status: ('A' for Active; 'I' for Inactive)
REMARK    1  A    between atoms: C_1  and  C_2
REMARK    2  A    between atoms: C_2  and  C_3
REMARK    3  A    between atoms: C_2  and  C_4
REMARK    4  A    between atoms: C_4  and  C_5
REMARK    5  A    between atoms: C_5  and  N_6
REMARK    6  A    between atoms: C_9  and  C_10
REMARK    7  A    between atoms: C_10  and  S_11
REMARK    8  A    between atoms: S_11  and  C_13
REMARK    9  A    between atoms: C_15  and  C_16
REMARK   10  A    between atoms: C_21  and  C_22
REMARK                            x       y       z     vdW  Elec       q    Type
REMARK                         _______ _______ _______ _____ _____    ______ ____
ROOT
ATOM      1  S   UNL     1       5.383   5.580  16.211  0.00  0.00    +0.000 S 
ATOM      2  O   UNL     1       5.007   4.172  15.614  0.00  0.00    +0.000 OA
ENDROOT
BRANCH   1   3
ATOM      3  C   UNL     1       4.072   5.978  17.398  0.00  0.00    +0.000 A 
ATOM      4  C   UNL     1       3.700   5.050  18.377  0.00  0.00    +0.000 A 
ATOM      5  C   UNL     1       2.736   5.379  19.344  0.00  0.00    +0.000 A 
ATOM      6  C   UNL     1       2.147   6.657  19.319  0.00  0.00    +0.000 A 
ATOM      7  C   UNL     1       2.506   7.598  18.339  0.00  0.00    +0.000 A 
ATOM      8  C   UNL     1       3.470   7.242  17.383  0.00  0.00    +0.000 A 
BRANCH   5   9
ATOM      9  C   UNL     1       2.335   4.397  20.424  0.00  0.00    +0.000 C 
ATOM     10  F   UNL     1       2.462   4.900  21.682  0.00  0.00    +0.000 F 
ATOM     11  F   UNL     1       1.041   3.996  20.306  0.00  0.00    +0.000 F 
ATOM     12  F   UNL     1       3.086   3.265  20.395  0.00  0.00    +0.000 F 
ENDBRANCH   5   9
BRANCH   7  13
ATOM     13  C   UNL     1       1.889   8.976  18.304  0.00  0.00    +0.000 C 
ATOM     14  F   UNL     1       1.510   9.429  19.530  0.00  0.00    +0.000 F 
ATOM     15  F   UNL     1       2.734   9.916  17.801  0.00  0.00    +0.000 F 
ATOM     16  F   UNL     1       0.770   9.019  17.529  0.00  0.00    +0.000 F 
ENDBRANCH   7  13
ENDBRANCH   1   3
BRANCH   1  17
ATOM     17  C   UNL     1       6.736   5.332  17.403  0.00  0.00    +0.000 C 
BRANCH  17  21
ATOM     18  N   UNL     1       9.191   9.199  19.267  0.00  0.00    +0.000 N 
ATOM     19  C   UNL     1       8.454   8.412  18.450  0.00  0.00    +0.000 A 
ATOM     20  C   UNL     1       8.163   7.066  18.769  0.00  0.00    +0.000 A 
ATOM     21  C   UNL     1       7.393   6.617  17.724  0.00  0.00    +0.000 A 
ATOM     22  O   UNL     1       7.230   7.629  16.832  0.00  0.00    +0.000 OA
ATOM     23  N   UNL     1       7.890   8.753  17.286  0.00  0.00    +0.000 NA
ATOM     24  H   UNL     1       9.410   8.869  20.200  0.00  0.00    +0.000 HD
BRANCH  18  25
ATOM     25  C   UNL     1       9.109  10.646  19.137  0.00  0.00    +0.000 C 
BRANCH  25  26
ATOM     26  C   UNL     1      10.244  11.328  19.910  0.00  0.00    +0.000 C 
BRANCH  26  28
ATOM     27  C   UNL     1      10.915  12.131  17.582  0.00  0.00    +0.000 C 
ATOM     28  C   UNL     1      11.080  12.331  19.089  0.00  0.00    +0.000 C 
ATOM     29  C   UNL     1      10.685  13.763  19.463  0.00  0.00    +0.000 C 
ENDBRANCH  26  28
ENDBRANCH  25  26
ENDBRANCH  18  25
ENDBRANCH  17  21
ENDBRANCH   1  17
TORSDOF 8
ENDMDL
MODEL 7
REMARK VINA RESULT:      -8.0      0.675      1.103
REMARK  Name = 
REMARK  10 active torsions:
REMARK  status: ('A' for Active; 'I' for Inactive)
REMARK    1  A    between atoms: C_1  and  C_2
REMARK    2  A    between atoms: C_2  and  C_3
REMARK    3  A    between atoms: C_2  and  C_4
REMARK    4  A    between atoms: C_4  and  C_5
REMARK    5  A    between atoms: C_5  and  N_6
REMARK    6  A    between atoms: C_9  and  C_10
REMARK    7  A    between atoms: C_10  and  S_11
REMARK    8  A    between atoms: S_11  and  C_13
REMARK    9  A    between atoms: C_15  and  C_16
REMARK   10  A    between atoms: C_21  and  C_22
REMARK                            x       y       z     vdW  Elec       q    Type
REMARK                         _______ _______ _______ _____ _____    ______ ____
ROOT
ATOM      1  S   UNL     1       5.300   5.412  16.187  0.00  0.00    +0.000 S 
ATOM      2  O   UNL     1       4.925   3.991  15.620  0.00  0.00    +0.000 OA
ENDROOT
BRANCH   1   3
ATOM      3  C   UNL     1       4.012   5.815  17.397  0.00  0.00    +0.000 A 
ATOM      4  C   UNL     1       3.633   4.878  18.365  0.00  0.00    +0.000 A 
ATOM      5  C   UNL     1       2.688   5.210  19.350  0.00  0.00    +0.000 A 
ATOM      6  C   UNL     1       2.125   6.499  19.353  0.00  0.00    +0.000 A 
ATOM      7  C   UNL     1       2.489   7.449  18.384  0.00  0.00    +0.000 A 
ATOM      8  C   UNL     1       3.434   7.090  17.410  0.00  0.00    +0.000 A 
BRANCH   5   9
ATOM      9  C   UNL     1       2.281   4.218  20.418  0.00  0.00    +0.000 C 
ATOM     10  F   UNL     1       1.009   3.760  20.269  0.00  0.00    +0.000 F 
ATOM     11  F   UNL     1       3.081   3.119  20.438  0.00  0.00    +0.000 F 
ATOM     12  F   UNL     1       2.343   4.753  21.667  0.00  0.00    +0.000 F 
ENDBRANCH   5   9
BRANCH   7  13
ATOM     13  C   UNL     1       1.898   8.839  18.379  0.00  0.00    +0.000 C 
ATOM     14  F   UNL     1       2.766   9.792  17.940  0.00  0.00    +0.000 F 
ATOM     15  F   UNL     1       0.799   8.939  17.584  0.00  0.00    +0.000 F 
ATOM     16  F   UNL     1       1.506   9.236  19.620  0.00  0.00    +0.000 F 
ENDBRANCH   7  13
ENDBRANCH   1   3
BRANCH   1  17
ATOM     17  C   UNL     1       6.682   5.197  17.351  0.00  0.00    +0.000 C 
BRANCH  17  21
ATOM     18  N   UNL     1       9.079   9.130  19.150  0.00  0.00    +0.000 N 
ATOM     19  C   UNL     1       8.357   8.317  18.344  0.00  0.00    +0.000 A 
ATOM     20  C   UNL     1       8.078   6.975  18.691  0.00  0.00    +0.000 A 
ATOM     21  C   UNL     1       7.322   6.495  17.649  0.00  0.00    +0.000 A 
ATOM     22  O   UNL     1       7.156   7.485  16.733  0.00  0.00    +0.000 OA
ATOM     23  N   UNL     1       7.800   8.626  17.169  0.00  0.00    +0.000 NA
ATOM     24  H   UNL     1       9.293   8.823  20.092  0.00  0.00    +0.000 HD
BRANCH  18  25
ATOM     25  C   UNL     1       8.982  10.573  18.988  0.00  0.00    +0.000 C 
BRANCH  25  26
ATOM     26  C   UNL     1      10.139  11.104  18.133  0.00  0.00    +0.000 C 
BRANCH  26  28
ATOM     27  C   UNL     1       9.286  13.509  18.132  0.00  0.00    +0.000 C 
ATOM     28  C   UNL     1      10.486  12.590  18.358  0.00  0.00    +0.000 C 
ATOM     29  C   UNL     1      11.024  12.787  19.779  0.00  0.00    +0.000 C 
ENDBRANCH  26  28
ENDBRANCH  25  26
ENDBRANCH  18  25
ENDBRANCH  17  21
ENDBRANCH   1  17
TORSDOF 8
ENDMDL
MODEL 8
REMARK VINA RESULT:      -8.0      3.682      7.001
REMARK  Name = 
REMARK  10 active torsions:
REMARK  status: ('A' for Active; 'I' for Inactive)
REMARK    1  A    between atoms: C_1  and  C_2
REMARK    2  A    between atoms: C_2  and  C_3
REMARK    3  A    between atoms: C_2  and  C_4
REMARK    4  A    between atoms: C_4  and  C_5
REMARK    5  A    between atoms: C_5  and  N_6
REMARK    6  A    between atoms: C_9  and  C_10
REMARK    7  A    between atoms: C_10  and  S_11
REMARK    8  A    between atoms: S_11  and  C_13
REMARK    9  A    between atoms: C_15  and  C_16
REMARK   10  A    between atoms: C_21  and  C_22
REMARK                            x       y       z     vdW  Elec       q    Type
REMARK                         _______ _______ _______ _____ _____    ______ ____
ROOT
ATOM      1  S   UNL     1       6.963   4.887  19.002  0.00  0.00    +0.000 S 
ATOM      2  O   UNL     1       7.413   5.618  20.323  0.00  0.00    +0.000 OA
ENDROOT
BRANCH   1   3
ATOM      3  C   UNL     1       5.153   4.969  18.985  0.00  0.00    +0.000 A 
ATOM      4  C   UNL     1       4.503   6.194  18.796  0.00  0.00    +0.000 A 
ATOM      5  C   UNL     1       3.102   6.254  18.710  0.00  0.00    +0.000 A 
ATOM      6  C   UNL     1       2.357   5.065  18.814  0.00  0.00    +0.000 A 
ATOM      7  C   UNL     1       2.994   3.828  19.010  0.00  0.00    +0.000 A 
ATOM      8  C   UNL     1       4.394   3.797  19.095  0.00  0.00    +0.000 A 
BRANCH   5   9
ATOM      9  C   UNL     1       2.381   7.566  18.485  0.00  0.00    +0.000 C 
ATOM     10  F   UNL     1       1.390   7.482  17.558  0.00  0.00    +0.000 F 
ATOM     11  F   UNL     1       1.800   8.039  19.619  0.00  0.00    +0.000 F 
ATOM     12  F   UNL     1       3.219   8.545  18.052  0.00  0.00    +0.000 F 
ENDBRANCH   5   9
BRANCH   7  13
ATOM     13  C   UNL     1       2.208   2.543  19.115  0.00  0.00    +0.000 C 
ATOM     14  F   UNL     1       1.026   2.576  18.441  0.00  0.00    +0.000 F 
ATOM     15  F   UNL     1       2.888   1.471  18.627  0.00  0.00    +0.000 F 
ATOM     16  F   UNL     1       1.893   2.237  20.404  0.00  0.00    +0.000 F 
ENDBRANCH   7  13
ENDBRANCH   1   3
BRANCH   1  17
ATOM     17  C   UNL     1       7.281   6.014  17.609  0.00  0.00    +0.000 C 
BRANCH  17  21
ATOM     18  N   UNL     1       6.095   3.384  13.592  0.00  0.00    +0.000 N 
ATOM     19  C   UNL     1       6.157   4.372  14.516  0.00  0.00    +0.000 A 
ATOM     20  C   UNL     1       6.943   4.256  15.685  0.00  0.00    +0.000 A 
ATOM     21  C   UNL     1       6.762   5.447  16.347  0.00  0.00    +0.000 A 
ATOM     22  O   UNL     1       5.921   6.230  15.622  0.00  0.00    +0.000 OA
ATOM     23  N   UNL     1       5.544   5.560  14.475  0.00  0.00    +0.000 NA
ATOM     24  H   UNL     1       6.744   2.609  13.660  0.00  0.00    +0.000 HD
BRANCH  18  25
ATOM     25  C   UNL     1       5.649   3.690  12.242  0.00  0.00    +0.000 C 
BRANCH  25  26
ATOM     26  C   UNL     1       5.347   2.404  11.463  0.00  0.00    +0.000 C 
BRANCH  26  28
ATOM     27  C   UNL     1       5.949  -0.042  11.053  0.00  0.00    +0.000 C 
ATOM     28  C   UNL     1       6.439   1.318  11.549  0.00  0.00    +0.000 C 
ATOM     29  C   UNL     1       7.663   1.751  10.736  0.00  0.00    +0.000 C 
ENDBRANCH  26  28
ENDBRANCH  25  26
ENDBRANCH  18  25
ENDBRANCH  17  21
ENDBRANCH   1  17
TORSDOF 8
ENDMDL
MODEL 9
REMARK VINA RESULT:      -7.8      3.970      6.305
REMARK  Name = 
REMARK  10 active torsions:
REMARK  status: ('A' for Active; 'I' for Inactive)
REMARK    1  A    between atoms: C_1  and  C_2
REMARK    2  A    between atoms: C_2  and  C_3
REMARK    3  A    between atoms: C_2  and  C_4
REMARK    4  A    between atoms: C_4  and  C_5
REMARK    5  A    between atoms: C_5  and  N_6
REMARK    6  A    between atoms: C_9  and  C_10
REMARK    7  A    between atoms: C_10  and  S_11
REMARK    8  A    between atoms: S_11  and  C_13
REMARK    9  A    between atoms: C_15  and  C_16
REMARK   10  A    between atoms: C_21  and  C_22
REMARK                            x       y       z     vdW  Elec       q    Type
REMARK                         _______ _______ _______ _____ _____    ______ ____
ROOT
ATOM      1  S   UNL     1       7.217   6.029  18.366  0.00  0.00    +0.000 S 
ATOM      2  O   UNL     1       7.323   7.189  17.306  0.00  0.00    +0.000 OA
ENDROOT
BRANCH   1   3
ATOM      3  C   UNL     1       5.446   5.684  18.544  0.00  0.00    +0.000 A 
ATOM      4  C   UNL     1       5.013   4.463  19.073  0.00  0.00    +0.000 A 
ATOM      5  C   UNL     1       3.646   4.218  19.281  0.00  0.00    +0.000 A 
ATOM      6  C   UNL     1       2.713   5.218  18.951  0.00  0.00    +0.000 A 
ATOM      7  C   UNL     1       3.130   6.447  18.413  0.00  0.00    +0.000 A 
ATOM      8  C   UNL     1       4.502   6.664  18.214  0.00  0.00    +0.000 A 
BRANCH   5   9
ATOM      9  C   UNL     1       3.159   2.913  19.871  0.00  0.00    +0.000 C 
ATOM     10  F   UNL     1       3.958   2.442  20.866  0.00  0.00    +0.000 F 
ATOM     11  F   UNL     1       1.912   3.017  20.403  0.00  0.00    +0.000 F 
ATOM     12  F   UNL     1       3.092   1.922  18.943  0.00  0.00    +0.000 F 
ENDBRANCH   5   9
BRANCH   7  13
ATOM     13  C   UNL     1       2.141   7.533  18.061  0.00  0.00    +0.000 C 
ATOM     14  F   UNL     1       1.660   8.197  19.147  0.00  0.00    +0.000 F 
ATOM     15  F   UNL     1       2.673   8.483  17.246  0.00  0.00    +0.000 F 
ATOM     16  F   UNL     1       1.050   7.043  17.410  0.00  0.00    +0.000 F 
ENDBRANCH   7  13
ENDBRANCH   1   3
BRANCH   1  17
ATOM     17  C   UNL     1       7.694   4.479  17.541  0.00  0.00    +0.000 C 
BRANCH  17  21
ATOM     18  N   UNL     1       5.047   3.637  13.450  0.00  0.00    +0.000 N 
ATOM     19  C   UNL     1       5.994   4.093  14.303  0.00  0.00    +0.000 A 
ATOM     20  C   UNL     1       5.978   3.774  15.679  0.00  0.00    +0.000 A 
ATOM     21  C   UNL     1       7.090   4.395  16.195  0.00  0.00    +0.000 A 
ATOM     22  O   UNL     1       7.734   5.047  15.192  0.00  0.00    +0.000 OA
ATOM     23  N   UNL     1       7.052   4.856  14.007  0.00  0.00    +0.000 NA
ATOM     24  H   UNL     1       4.400   2.926  13.771  0.00  0.00    +0.000 HD
BRANCH  18  25
ATOM     25  C   UNL     1       5.317   3.614  12.020  0.00  0.00    +0.000 C 
BRANCH  25  26
ATOM     26  C   UNL     1       5.014   2.231  11.430  0.00  0.00    +0.000 C 
BRANCH  26  28
ATOM     27  C   UNL     1       7.555   2.173  11.205  0.00  0.00    +0.000 C 
ATOM     28  C   UNL     1       6.235   1.488  10.852  0.00  0.00    +0.000 C 
ATOM     29  C   UNL     1       6.253   0.044  11.364  0.00  0.00    +0.000 C 
ENDBRANCH  26  28
ENDBRANCH  25  26
ENDBRANCH  18  25
ENDBRANCH  17  21
ENDBRANCH   1  17
TORSDOF 8
ENDMDL
