MODEL 1
REMARK VINA RESULT:      -7.0      0.000      0.000
REMARK  Name = 
REMARK  8 active torsions:
REMARK  status: ('A' for Active; 'I' for Inactive)
REMARK    1  A    between atoms: C_1  and  N_2
REMARK    2  A    between atoms: N_2  and  C_19
REMARK    3  A    between atoms: C_3  and  C_5
REMARK    4  A    between atoms: C_5  and  C_6
REMARK    5  A    between atoms: C_6  and  C_7
REMARK    6  A    between atoms: C_7  and  O_8
REMARK    7  A    between atoms: O_8  and  C_9
REMARK    8  A    between atoms: C_14  and  O_15
REMARK                            x       y       z     vdW  Elec       q    Type
REMARK                         _______ _______ _______ _____ _____    ______ ____
ROOT
ATOM      1  C   UNL     1       5.092   7.178  17.147  0.00  0.00    +0.000 C 
ENDROOT
BRANCH   1   2
ATOM      2  C   UNL     1       5.925   6.112  17.835  0.00  0.00    +0.000 C 
BRANCH   2   3
ATOM      3  C   UNL     1       5.490   4.739  17.334  0.00  0.00    +0.000 C 
BRANCH   3   6
ATOM      4  C   UNL     1       2.970   3.478  17.016  0.00  0.00    +0.000 C 
ATOM      5  N   UNL     1       3.645   3.367  18.313  0.00  0.00    +0.000 N 
ATOM      6  C   UNL     1       4.951   3.871  18.458  0.00  0.00    +0.000 C 
ATOM      7  O   UNL     1       5.655   3.662  19.442  0.00  0.00    +0.000 OA
BRANCH   5   8
ATOM      8  C   UNL     1       3.230   2.255  19.222  0.00  0.00    +0.000 C 
ATOM      9  C   UNL     1       3.404   2.529  20.736  0.00  0.00    +0.000 C 
ATOM     10  C   UNL     1       2.467   3.626  21.225  0.00  0.00    +0.000 C 
ATOM     11  C   UNL     1       1.010   3.251  20.974  0.00  0.00    +0.000 C 
ATOM     12  C   UNL     1       0.761   2.848  19.525  0.00  0.00    +0.000 C 
ATOM     13  C   UNL     1       1.765   1.797  19.034  0.00  0.00    +0.000 C 
ENDBRANCH   5   8
ENDBRANCH   3   6
ENDBRANCH   2   3
ENDBRANCH   1   2
BRANCH   1  14
ATOM     14  O   UNL     1       3.729   6.760  17.102  0.00  0.00    +0.000 OA
BRANCH  14  15
ATOM     15  C   UNL     1       2.952   7.291  18.099  0.00  0.00    +0.000 A 
ATOM     16  C   UNL     1       2.744   6.682  19.336  0.00  0.00    +0.000 A 
ATOM     17  C   UNL     1       1.940   7.287  20.306  0.00  0.00    +0.000 A 
ATOM     18  C   UNL     1       1.342   8.528  20.035  0.00  0.00    +0.000 A 
ATOM     19  N   UNL     1       0.518   9.223  20.901  0.00  0.00    +0.000 NA
ATOM     20  C   UNL     1       0.146  10.331  20.317  0.00  0.00    +0.000 A 
ATOM     21  S   UNL     1       0.728  10.639  18.756  0.00  0.00    +0.000 S 
ATOM     22  C   UNL     1       1.578   9.138  18.797  0.00  0.00    +0.000 A 
ATOM     23  C   UNL     1       2.388   8.543  17.821  0.00  0.00    +0.000 A 
BRANCH  20  24
ATOM     24  O   UNL     1      -0.651  11.154  20.968  0.00  0.00    +0.000 OA
ATOM     25  H   UNL     1      -1.029  10.555  21.636  0.00  0.00    +0.000 HD
ENDBRANCH  20  24
ENDBRANCH  14  15
ENDBRANCH   1  14
TORSDOF 7
ENDMDL
MODEL 2
REMARK VINA RESULT:      -7.0      1.687      4.197
REMARK  Name = 
REMARK  8 active torsions:
REMARK  status: ('A' for Active; 'I' for Inactive)
REMARK    1  A    between atoms: C_1  and  N_2
REMARK    2  A    between atoms: N_2  and  C_19
REMARK    3  A    between atoms: C_3  and  C_5
REMARK    4  A    between atoms: C_5  and  C_6
REMARK    5  A    between atoms: C_6  and  C_7
REMARK    6  A    between atoms: C_7  and  O_8
REMARK    7  A    between atoms: O_8  and  C_9
REMARK    8  A    between atoms: C_14  and  O_15
REMARK                            x       y       z     vdW  Elec       q    Type
REMARK                         _______ _______ _______ _____ _____    ______ ____
ROOT
ATOM      1  C   UNL     1       1.234   4.508  20.347  0.00  0.00    +0.000 C 
ENDROOT
BRANCH   1   2
ATOM      2  C   UNL     1       1.415   3.599  19.146  0.00  0.00    +0.000 C 
BRANCH   2   3
ATOM      3  C   UNL     1       2.863   3.123  19.095  0.00  0.00    +0.000 C 
BRANCH   3   6
ATOM      4  C   UNL     1       5.423   4.302  19.410  0.00  0.00    +0.000 C 
ATOM      5  N   UNL     1       4.798   4.340  18.084  0.00  0.00    +0.000 N 
ATOM      6  C   UNL     1       3.590   3.651  17.869  0.00  0.00    +0.000 C 
ATOM      7  O   UNL     1       3.094   3.476  16.759  0.00  0.00    +0.000 OA
BRANCH   5   8
ATOM      8  C   UNL     1       5.684   4.562  16.901  0.00  0.00    +0.000 C 
ATOM      9  C   UNL     1       5.455   5.885  16.131  0.00  0.00    +0.000 C 
ATOM     10  C   UNL     1       5.832   7.102  16.968  0.00  0.00    +0.000 C 
ATOM     11  C   UNL     1       7.297   7.043  17.386  0.00  0.00    +0.000 C 
ATOM     12  C   UNL     1       7.654   5.719  18.052  0.00  0.00    +0.000 C 
ATOM     13  C   UNL     1       7.196   4.511  17.225  0.00  0.00    +0.000 C 
ENDBRANCH   5   8
ENDBRANCH   3   6
ENDBRANCH   2   3
ENDBRANCH   1   2
BRANCH   1  14
ATOM     14  O   UNL     1       2.344   5.399  20.441  0.00  0.00    +0.000 OA
BRANCH  14  15
ATOM     15  C   UNL     1       2.099   6.646  19.923  0.00  0.00    +0.000 A 
ATOM     16  C   UNL     1       2.405   7.023  18.616  0.00  0.00    +0.000 A 
ATOM     17  C   UNL     1       2.123   8.312  18.157  0.00  0.00    +0.000 A 
ATOM     18  C   UNL     1       1.516   9.237  19.022  0.00  0.00    +0.000 A 
ATOM     19  N   UNL     1       1.197  10.543  18.697  0.00  0.00    +0.000 NA
ATOM     20  C   UNL     1       0.650  11.106  19.741  0.00  0.00    +0.000 A 
ATOM     21  S   UNL     1       0.461  10.169  21.140  0.00  0.00    +0.000 S 
ATOM     22  C   UNL     1       1.195   8.838  20.325  0.00  0.00    +0.000 A 
ATOM     23  C   UNL     1       1.467   7.545  20.791  0.00  0.00    +0.000 A 
BRANCH  20  24
ATOM     24  O   UNL     1       0.265  12.364  19.654  0.00  0.00    +0.000 OA
ATOM     25  H   UNL     1       1.123  12.822  19.704  0.00  0.00    +0.000 HD
ENDBRANCH  20  24
ENDBRANCH  14  15
ENDBRANCH   1  14
TORSDOF 7
ENDMDL
MODEL 3
REMARK VINA RESULT:      -6.8      6.211      7.193
REMARK  Name = 
REMARK  8 active torsions:
REMARK  status: ('A' for Active; 'I' for Inactive)
REMARK    1  A    between atoms: C_1  and  N_2
REMARK    2  A    between atoms: N_2  and  C_19
REMARK    3  A    between atoms: C_3  and  C_5
REMARK    4  A    between atoms: C_5  and  C_6
REMARK    5  A    between atoms: C_6  and  C_7
REMARK    6  A    between atoms: C_7  and  O_8
REMARK    7  A    between atoms: O_8  and  C_9
REMARK    8  A    between atoms: C_14  and  O_15
REMARK                            x       y       z     vdW  Elec       q    Type
REMARK                         _______ _______ _______ _____ _____    ______ ____
ROOT
ATOM      1  C   UNL     1       8.112   8.892  17.992  0.00  0.00    +0.000 C 
ENDROOT
BRANCH   1   2
ATOM      2  C   UNL     1       8.097   7.392  18.219  0.00  0.00    +0.000 C 
BRANCH   2   3
ATOM      3  C   UNL     1       7.104   6.752  17.254  0.00  0.00    +0.000 C 
BRANCH   3   6
ATOM      4  C   UNL     1       4.294   6.387  17.143  0.00  0.00    +0.000 C 
ATOM      5  N   UNL     1       5.096   5.394  17.864  0.00  0.00    +0.000 N 
ATOM      6  C   UNL     1       6.500   5.480  17.825  0.00  0.00    +0.000 C 
ATOM      7  O   UNL     1       7.247   4.598  18.240  0.00  0.00    +0.000 OA
BRANCH   5   8
ATOM      8  C   UNL     1       4.494   4.045  18.095  0.00  0.00    +0.000 C 
ATOM      9  C   UNL     1       4.159   3.705  19.568  0.00  0.00    +0.000 C 
ATOM     10  C   UNL     1       3.041   4.584  20.114  0.00  0.00    +0.000 C 
ATOM     11  C   UNL     1       1.769   4.423  19.288  0.00  0.00    +0.000 C 
ATOM     12  C   UNL     1       2.020   4.624  17.798  0.00  0.00    +0.000 C 
ATOM     13  C   UNL     1       3.199   3.784  17.289  0.00  0.00    +0.000 C 
ENDBRANCH   5   8
ENDBRANCH   3   6
ENDBRANCH   2   3
ENDBRANCH   1   2
BRANCH   1  14
ATOM     14  O   UNL     1       9.096   9.490  18.834  0.00  0.00    +0.000 OA
BRANCH  14  15
ATOM     15  C   UNL     1       9.359  10.803  18.536  0.00  0.00    +0.000 A 
ATOM     16  C   UNL     1       8.505  11.622  17.797  0.00  0.00    +0.000 A 
ATOM     17  C   UNL     1       8.839  12.953  17.535  0.00  0.00    +0.000 A 
ATOM     18  C   UNL     1      10.045  13.475  18.029  0.00  0.00    +0.000 A 
ATOM     19  N   UNL     1      10.497  14.767  17.830  0.00  0.00    +0.000 NA
ATOM     20  C   UNL     1      11.650  14.898  18.429  0.00  0.00    +0.000 A 
ATOM     21  S   UNL     1      12.270  13.557  19.258  0.00  0.00    +0.000 S 
ATOM     22  C   UNL     1      10.882  12.648  18.788  0.00  0.00    +0.000 A 
ATOM     23  C   UNL     1      10.552  11.314  19.061  0.00  0.00    +0.000 A 
BRANCH  20  24
ATOM     24  O   UNL     1      12.268  16.061  18.367  0.00  0.00    +0.000 OA
ATOM     25  H   UNL     1      12.791  16.034  19.188  0.00  0.00    +0.000 HD
ENDBRANCH  20  24
ENDBRANCH  14  15
ENDBRANCH   1  14
TORSDOF 7
ENDMDL
MODEL 4
REMARK VINA RESULT:      -6.7      1.739      4.064
REMARK  Name = 
REMARK  8 active torsions:
REMARK  status: ('A' for Active; 'I' for Inactive)
REMARK    1  A    between atoms: C_1  and  N_2
REMARK    2  A    between atoms: N_2  and  C_19
REMARK    3  A    between atoms: C_3  and  C_5
REMARK    4  A    between atoms: C_5  and  C_6
REMARK    5  A    between atoms: C_6  and  C_7
REMARK    6  A    between atoms: C_7  and  O_8
REMARK    7  A    between atoms: O_8  and  C_9
REMARK    8  A    between atoms: C_14  and  O_15
REMARK                            x       y       z     vdW  Elec       q    Type
REMARK                         _______ _______ _______ _____ _____    ______ ____
ROOT
ATOM      1  C   UNL     1       1.930   4.297  20.015  0.00  0.00    +0.000 C 
ENDROOT
BRANCH   1   2
ATOM      2  C   UNL     1       2.752   3.126  20.522  0.00  0.00    +0.000 C 
BRANCH   2   3
ATOM      3  C   UNL     1       3.659   2.631  19.400  0.00  0.00    +0.000 C 
BRANCH   3   6
ATOM      4  C   UNL     1       3.476   3.855  16.848  0.00  0.00    +0.000 C 
ATOM      5  N   UNL     1       4.639   4.163  17.686  0.00  0.00    +0.000 N 
ATOM      6  C   UNL     1       4.691   3.674  19.004  0.00  0.00    +0.000 C 
ATOM      7  O   UNL     1       5.529   4.029  19.829  0.00  0.00    +0.000 OA
BRANCH   5   8
ATOM      8  C   UNL     1       5.407   5.410  17.383  0.00  0.00    +0.000 C 
ATOM      9  C   UNL     1       6.948   5.277  17.433  0.00  0.00    +0.000 C 
ATOM     10  C   UNL     1       7.476   4.373  16.325  0.00  0.00    +0.000 C 
ATOM     11  C   UNL     1       7.090   4.912  14.952  0.00  0.00    +0.000 C 
ATOM     12  C   UNL     1       5.595   5.191  14.842  0.00  0.00    +0.000 C 
ATOM     13  C   UNL     1       5.075   6.039  16.009  0.00  0.00    +0.000 C 
ENDBRANCH   5   8
ENDBRANCH   3   6
ENDBRANCH   2   3
ENDBRANCH   1   2
BRANCH   1  14
ATOM     14  O   UNL     1       2.287   5.475  20.737  0.00  0.00    +0.000 OA
BRANCH  14  15
ATOM     15  C   UNL     1       2.111   6.636  20.027  0.00  0.00    +0.000 A 
ATOM     16  C   UNL     1       2.457   6.790  18.685  0.00  0.00    +0.000 A 
ATOM     17  C   UNL     1       2.245   8.004  18.025  0.00  0.00    +0.000 A 
ATOM     18  C   UNL     1       1.666   9.078  18.720  0.00  0.00    +0.000 A 
ATOM     19  N   UNL     1       1.415  10.330  18.189  0.00  0.00    +0.000 NA
ATOM     20  C   UNL     1       0.876  11.072  19.119  0.00  0.00    +0.000 A 
ATOM     21  S   UNL     1       0.618  10.374  20.641  0.00  0.00    +0.000 S 
ATOM     22  C   UNL     1       1.303   8.901  20.061  0.00  0.00    +0.000 A 
ATOM     23  C   UNL     1       1.506   7.686  20.728  0.00  0.00    +0.000 A 
BRANCH  20  24
ATOM     24  O   UNL     1       0.553  12.317  18.829  0.00  0.00    +0.000 OA
ATOM     25  H   UNL     1       1.073  12.801  19.494  0.00  0.00    +0.000 HD
ENDBRANCH  20  24
ENDBRANCH  14  15
ENDBRANCH   1  14
TORSDOF 7
ENDMDL
MODEL 5
REMARK VINA RESULT:      -6.6      1.152      1.555
REMARK  Name = 
REMARK  8 active torsions:
REMARK  status: ('A' for Active; 'I' for Inactive)
REMARK    1  A    between atoms: C_1  and  N_2
REMARK    2  A    between atoms: N_2  and  C_19
REMARK    3  A    between atoms: C_3  and  C_5
REMARK    4  A    between atoms: C_5  and  C_6
REMARK    5  A    between atoms: C_6  and  C_7
REMARK    6  A    between atoms: C_7  and  O_8
REMARK    7  A    between atoms: O_8  and  C_9
REMARK    8  A    between atoms: C_14  and  O_15
REMARK                            x       y       z     vdW  Elec       q    Type
REMARK                         _______ _______ _______ _____ _____    ______ ____
ROOT
ATOM      1  C   UNL     1       4.258   6.507  18.067  0.00  0.00    +0.000 C 
ENDROOT
BRANCH   1   2
ATOM      2  C   UNL     1       4.832   6.005  16.755  0.00  0.00    +0.000 C 
BRANCH   2   3
ATOM      3  C   UNL     1       5.491   4.649  16.986  0.00  0.00    +0.000 C 
BRANCH   3   6
ATOM      4  C   UNL     1       3.071   3.178  16.837  0.00  0.00    +0.000 C 
ATOM      5  N   UNL     1       3.698   3.356  18.151  0.00  0.00    +0.000 N 
ATOM      6  C   UNL     1       4.962   3.967  18.236  0.00  0.00    +0.000 C 
ATOM      7  O   UNL     1       5.638   3.993  19.262  0.00  0.00    +0.000 OA
BRANCH   5   8
ATOM      8  C   UNL     1       3.317   2.404  19.240  0.00  0.00    +0.000 C 
ATOM      9  C   UNL     1       3.378   2.974  20.678  0.00  0.00    +0.000 C 
ATOM     10  C   UNL     1       2.331   4.058  20.903  0.00  0.00    +0.000 C 
ATOM     11  C   UNL     1       0.925   3.515  20.666  0.00  0.00    +0.000 C 
ATOM     12  C   UNL     1       0.795   2.824  19.313  0.00  0.00    +0.000 C 
ATOM     13  C   UNL     1       1.906   1.792  19.080  0.00  0.00    +0.000 C 
ENDBRANCH   5   8
ENDBRANCH   3   6
ENDBRANCH   2   3
ENDBRANCH   1   2
BRANCH   1  14
ATOM     14  O   UNL     1       2.833   6.500  17.996  0.00  0.00    +0.000 OA
BRANCH  14  15
ATOM     15  C   UNL     1       2.247   7.638  18.491  0.00  0.00    +0.000 A 
ATOM     16  C   UNL     1       1.911   8.746  17.714  0.00  0.00    +0.000 A 
ATOM     17  C   UNL     1       1.313   9.870  18.289  0.00  0.00    +0.000 A 
ATOM     18  C   UNL     1       1.039   9.880  19.666  0.00  0.00    +0.000 A 
ATOM     19  N   UNL     1       0.464  10.931  20.358  0.00  0.00    +0.000 NA
ATOM     20  C   UNL     1       0.362  10.591  21.614  0.00  0.00    +0.000 A 
ATOM     21  S   UNL     1       0.907   9.051  22.067  0.00  0.00    +0.000 S 
ATOM     22  C   UNL     1       1.362   8.752  20.430  0.00  0.00    +0.000 A 
ATOM     23  C   UNL     1       1.955   7.618  19.861  0.00  0.00    +0.000 A 
BRANCH  20  24
ATOM     24  O   UNL     1      -0.163  11.452  22.464  0.00  0.00    +0.000 OA
ATOM     25  H   UNL     1      -0.959  11.728  21.976  0.00  0.00    +0.000 HD
ENDBRANCH  20  24
ENDBRANCH  14  15
ENDBRANCH   1  14
TORSDOF 7
ENDMDL
MODEL 6
REMARK VINA RESULT:      -6.6      6.153      6.989
REMARK  Name = 
REMARK  8 active torsions:
REMARK  status: ('A' for Active; 'I' for Inactive)
REMARK    1  A    between atoms: C_1  and  N_2
REMARK    2  A    between atoms: N_2  and  C_19
REMARK    3  A    between atoms: C_3  and  C_5
REMARK    4  A    between atoms: C_5  and  C_6
REMARK    5  A    between atoms: C_6  and  C_7
REMARK    6  A    between atoms: C_7  and  O_8
REMARK    7  A    between atoms: O_8  and  C_9
REMARK    8  A    between atoms: C_14  and  O_15
REMARK                            x       y       z     vdW  Elec       q    Type
REMARK                         _______ _______ _______ _____ _____    ______ ____
ROOT
ATOM      1  C   UNL     1       8.255   8.947  18.183  0.00  0.00    +0.000 C 
ENDROOT
BRANCH   1   2
ATOM      2  C   UNL     1       8.163   7.437  18.297  0.00  0.00    +0.000 C 
BRANCH   2   3
ATOM      3  C   UNL     1       6.994   6.943  17.450  0.00  0.00    +0.000 C 
BRANCH   3   6
ATOM      4  C   UNL     1       4.225   6.387  17.203  0.00  0.00    +0.000 C 
ATOM      5  N   UNL     1       5.067   5.423  17.918  0.00  0.00    +0.000 N 
ATOM      6  C   UNL     1       6.461   5.609  17.943  0.00  0.00    +0.000 C 
ATOM      7  O   UNL     1       7.253   4.764  18.356  0.00  0.00    +0.000 OA
BRANCH   5   8
ATOM      8  C   UNL     1       4.555   4.027  18.070  0.00  0.00    +0.000 C 
ATOM      9  C   UNL     1       4.228   3.587  19.518  0.00  0.00    +0.000 C 
ATOM     10  C   UNL     1       3.047   4.359  20.093  0.00  0.00    +0.000 C 
ATOM     11  C   UNL     1       1.798   4.158  19.242  0.00  0.00    +0.000 C 
ATOM     12  C   UNL     1       2.051   4.454  17.768  0.00  0.00    +0.000 C 
ATOM     13  C   UNL     1       3.289   3.723  17.233  0.00  0.00    +0.000 C 
ENDBRANCH   5   8
ENDBRANCH   3   6
ENDBRANCH   2   3
ENDBRANCH   1   2
BRANCH   1  14
ATOM     14  O   UNL     1       9.051   9.457  19.252  0.00  0.00    +0.000 OA
BRANCH  14  15
ATOM     15  C   UNL     1       9.511  10.732  19.042  0.00  0.00    +0.000 A 
ATOM     16  C   UNL     1       9.921  11.221  17.801  0.00  0.00    +0.000 A 
ATOM     17  C   UNL     1      10.375  12.535  17.663  0.00  0.00    +0.000 A 
ATOM     18  C   UNL     1      10.411  13.377  18.787  0.00  0.00    +0.000 A 
ATOM     19  N   UNL     1      10.849  14.689  18.787  0.00  0.00    +0.000 NA
ATOM     20  C   UNL     1      10.742  15.159  20.001  0.00  0.00    +0.000 A 
ATOM     21  S   UNL     1      10.126  14.130  21.199  0.00  0.00    +0.000 S 
ATOM     22  C   UNL     1       9.975  12.880  20.021  0.00  0.00    +0.000 A 
ATOM     23  C   UNL     1       9.511  11.566  20.167  0.00  0.00    +0.000 A 
BRANCH  20  24
ATOM     24  O   UNL     1      11.108  16.404  20.233  0.00  0.00    +0.000 OA
ATOM     25  H   UNL     1      11.817  16.267  20.886  0.00  0.00    +0.000 HD
ENDBRANCH  20  24
ENDBRANCH  14  15
ENDBRANCH   1  14
TORSDOF 7
ENDMDL
MODEL 7
REMARK VINA RESULT:      -6.5      2.874      7.131
REMARK  Name = 
REMARK  8 active torsions:
REMARK  status: ('A' for Active; 'I' for Inactive)
REMARK    1  A    between atoms: C_1  and  N_2
REMARK    2  A    between atoms: N_2  and  C_19
REMARK    3  A    between atoms: C_3  and  C_5
REMARK    4  A    between atoms: C_5  and  C_6
REMARK    5  A    between atoms: C_6  and  C_7
REMARK    6  A    between atoms: C_7  and  O_8
REMARK    7  A    between atoms: O_8  and  C_9
REMARK    8  A    between atoms: C_14  and  O_15
REMARK                            x       y       z     vdW  Elec       q    Type
REMARK                         _______ _______ _______ _____ _____    ______ ____
ROOT
ATOM      1  C   UNL     1       2.849   4.015  19.273  0.00  0.00    +0.000 C 
ENDROOT
BRANCH   1   2
ATOM      2  C   UNL     1       1.699   4.922  19.669  0.00  0.00    +0.000 C 
BRANCH   2   3
ATOM      3  C   UNL     1       2.256   6.157  20.370  0.00  0.00    +0.000 C 
BRANCH   3   6
ATOM      4  C   UNL     1       0.907   8.408  21.444  0.00  0.00    +0.000 C 
ATOM      5  N   UNL     1       1.327   8.452  20.039  0.00  0.00    +0.000 N 
ATOM      6  C   UNL     1       2.110   7.406  19.519  0.00  0.00    +0.000 C 
ATOM      7  O   UNL     1       2.656   7.447  18.419  0.00  0.00    +0.000 OA
BRANCH   5   8
ATOM      8  C   UNL     1       1.448   9.794  19.390  0.00  0.00    +0.000 C 
ATOM      9  C   UNL     1       0.855   9.903  17.965  0.00  0.00    +0.000 C 
ATOM     10  C   UNL     1      -0.661   9.754  17.968  0.00  0.00    +0.000 C 
ATOM     11  C   UNL     1      -1.312  10.825  18.837  0.00  0.00    +0.000 C 
ATOM     12  C   UNL     1      -0.709  10.876  20.236  0.00  0.00    +0.000 C 
ATOM     13  C   UNL     1       0.823  10.950  20.205  0.00  0.00    +0.000 C 
ENDBRANCH   5   8
ENDBRANCH   3   6
ENDBRANCH   2   3
ENDBRANCH   1   2
BRANCH   1  14
ATOM     14  O   UNL     1       4.071   4.548  19.781  0.00  0.00    +0.000 OA
BRANCH  14  15
ATOM     15  C   UNL     1       5.004   4.818  18.812  0.00  0.00    +0.000 A 
ATOM     16  C   UNL     1       6.262   5.363  19.068  0.00  0.00    +0.000 A 
ATOM     17  C   UNL     1       7.162   5.608  18.028  0.00  0.00    +0.000 A 
ATOM     18  C   UNL     1       6.799   5.292  16.709  0.00  0.00    +0.000 A 
ATOM     19  N   UNL     1       7.590   5.496  15.593  0.00  0.00    +0.000 NA
ATOM     20  C   UNL     1       6.932   5.088  14.541  0.00  0.00    +0.000 A 
ATOM     21  S   UNL     1       5.383   4.442  14.775  0.00  0.00    +0.000 S 
ATOM     22  C   UNL     1       5.542   4.725  16.470  0.00  0.00    +0.000 A 
ATOM     23  C   UNL     1       4.635   4.469  17.506  0.00  0.00    +0.000 A 
BRANCH  20  24
ATOM     24  O   UNL     1       7.502   5.190  13.357  0.00  0.00    +0.000 OA
ATOM     25  H   UNL     1       6.736   5.058  12.772  0.00  0.00    +0.000 HD
ENDBRANCH  20  24
ENDBRANCH  14  15
ENDBRANCH   1  14
TORSDOF 7
ENDMDL
MODEL 8
REMARK VINA RESULT:      -6.5      5.753      6.621
REMARK  Name = 
REMARK  8 active torsions:
REMARK  status: ('A' for Active; 'I' for Inactive)
REMARK    1  A    between atoms: C_1  and  N_2
REMARK    2  A    between atoms: N_2  and  C_19
REMARK    3  A    between atoms: C_3  and  C_5
REMARK    4  A    between atoms: C_5  and  C_6
REMARK    5  A    between atoms: C_6  and  C_7
REMARK    6  A    between atoms: C_7  and  O_8
REMARK    7  A    between atoms: O_8  and  C_9
REMARK    8  A    between atoms: C_14  and  O_15
REMARK                            x       y       z     vdW  Elec       q    Type
REMARK                         _______ _______ _______ _____ _____    ______ ____
ROOT
ATOM      1  C   UNL     1       7.874   8.725  17.804  0.00  0.00    +0.000 C 
ENDROOT
BRANCH   1   2
ATOM      2  C   UNL     1       7.448   7.276  17.653  0.00  0.00    +0.000 C 
BRANCH   2   3
ATOM      3  C   UNL     1       5.999   7.229  17.179  0.00  0.00    +0.000 C 
BRANCH   3   6
ATOM      4  C   UNL     1       3.320   6.820  18.012  0.00  0.00    +0.000 C 
ATOM      5  N   UNL     1       4.152   5.644  17.742  0.00  0.00    +0.000 N 
ATOM      6  C   UNL     1       5.440   5.817  17.205  0.00  0.00    +0.000 C 
ATOM      7  O   UNL     1       6.130   4.893  16.780  0.00  0.00    +0.000 OA
BRANCH   5   8
ATOM      8  C   UNL     1       3.459   4.347  17.469  0.00  0.00    +0.000 C 
ATOM      9  C   UNL     1       4.010   3.119  18.233  0.00  0.00    +0.000 C 
ATOM     10  C   UNL     1       3.769   3.229  19.733  0.00  0.00    +0.000 C 
ATOM     11  C   UNL     1       2.280   3.349  20.038  0.00  0.00    +0.000 C 
ATOM     12  C   UNL     1       1.616   4.464  19.238  0.00  0.00    +0.000 C 
ATOM     13  C   UNL     1       1.936   4.374  17.741  0.00  0.00    +0.000 C 
ENDBRANCH   5   8
ENDBRANCH   3   6
ENDBRANCH   2   3
ENDBRANCH   1   2
BRANCH   1  14
ATOM     14  O   UNL     1       8.895   8.819  18.796  0.00  0.00    +0.000 OA
BRANCH  14  15
ATOM     15  C   UNL     1       9.206  10.107  19.152  0.00  0.00    +0.000 A 
ATOM     16  C   UNL     1       9.132  10.597  20.455  0.00  0.00    +0.000 A 
ATOM     17  C   UNL     1       9.468  11.923  20.742  0.00  0.00    +0.000 A 
ATOM     18  C   UNL     1       9.895  12.769  19.706  0.00  0.00    +0.000 A 
ATOM     19  N   UNL     1      10.243  14.099  19.854  0.00  0.00    +0.000 NA
ATOM     20  C   UNL     1      10.586  14.569  18.685  0.00  0.00    +0.000 A 
ATOM     21  S   UNL     1      10.538  13.512  17.360  0.00  0.00    +0.000 S 
ATOM     22  C   UNL     1       9.986  12.256  18.406  0.00  0.00    +0.000 A 
ATOM     23  C   UNL     1       9.657  10.928  18.110  0.00  0.00    +0.000 A 
BRANCH  20  24
ATOM     24  O   UNL     1      10.957  15.830  18.592  0.00  0.00    +0.000 OA
ATOM     25  H   UNL     1      11.799  15.809  19.079  0.00  0.00    +0.000 HD
ENDBRANCH  20  24
ENDBRANCH  14  15
ENDBRANCH   1  14
TORSDOF 7
ENDMDL
MODEL 9
REMARK VINA RESULT:      -6.5      6.208      9.634
REMARK  Name = 
REMARK  8 active torsions:
REMARK  status: ('A' for Active; 'I' for Inactive)
REMARK    1  A    between atoms: C_1  and  N_2
REMARK    2  A    between atoms: N_2  and  C_19
REMARK    3  A    between atoms: C_3  and  C_5
REMARK    4  A    between atoms: C_5  and  C_6
REMARK    5  A    between atoms: C_6  and  C_7
REMARK    6  A    between atoms: C_7  and  O_8
REMARK    7  A    between atoms: O_8  and  C_9
REMARK    8  A    between atoms: C_14  and  O_15
REMARK                            x       y       z     vdW  Elec       q    Type
REMARK                         _______ _______ _______ _____ _____    ______ ____
ROOT
ATOM      1  C   UNL     1       7.782   7.778  17.725  0.00  0.00    +0.000 C 
ENDROOT
BRANCH   1   2
ATOM      2  C   UNL     1       8.625   8.726  18.560  0.00  0.00    +0.000 C 
BRANCH   2   3
ATOM      3  C   UNL     1       8.451  10.145  18.030  0.00  0.00    +0.000 C 
BRANCH   3   6
ATOM      4  C   UNL     1       8.229  12.906  17.424  0.00  0.00    +0.000 C 
ATOM      5  N   UNL     1       9.280  12.480  18.353  0.00  0.00    +0.000 N 
ATOM      6  C   UNL     1       9.331  11.138  18.771  0.00  0.00    +0.000 C 
ATOM      7  O   UNL     1      10.054  10.734  19.678  0.00  0.00    +0.000 OA
BRANCH   5   8
ATOM      8  C   UNL     1       9.861  13.510  19.269  0.00  0.00    +0.000 C 
ATOM      9  C   UNL     1      11.385  13.400  19.518  0.00  0.00    +0.000 C 
ATOM     10  C   UNL     1      12.189  13.693  18.257  0.00  0.00    +0.000 C 
ATOM     11  C   UNL     1      11.893  15.094  17.735  0.00  0.00    +0.000 C 
ATOM     12  C   UNL     1      10.398  15.343  17.567  0.00  0.00    +0.000 C 
ATOM     13  C   UNL     1       9.603  14.969  18.825  0.00  0.00    +0.000 C 
ENDBRANCH   5   8
ENDBRANCH   3   6
ENDBRANCH   2   3
ENDBRANCH   1   2
BRANCH   1  14
ATOM     14  O   UNL     1       7.581   6.563  18.445  0.00  0.00    +0.000 OA
BRANCH  14  15
ATOM     15  C   UNL     1       6.497   5.839  18.019  0.00  0.00    +0.000 A 
ATOM     16  C   UNL     1       5.888   6.002  16.774  0.00  0.00    +0.000 A 
ATOM     17  C   UNL     1       4.786   5.225  16.408  0.00  0.00    +0.000 A 
ATOM     18  C   UNL     1       4.291   4.260  17.300  0.00  0.00    +0.000 A 
ATOM     19  N   UNL     1       3.204   3.438  17.065  0.00  0.00    +0.000 NA
ATOM     20  C   UNL     1       3.033   2.672  18.109  0.00  0.00    +0.000 A 
ATOM     21  S   UNL     1       4.111   2.845  19.406  0.00  0.00    +0.000 S 
ATOM     22  C   UNL     1       4.927   4.092  18.537  0.00  0.00    +0.000 A 
ATOM     23  C   UNL     1       6.036   4.861  18.910  0.00  0.00    +0.000 A 
BRANCH  20  24
ATOM     24  O   UNL     1       2.042   1.802  18.101  0.00  0.00    +0.000 OA
ATOM     25  H   UNL     1       1.657   1.971  17.224  0.00  0.00    +0.000 HD
ENDBRANCH  20  24
ENDBRANCH  14  15
ENDBRANCH   1  14
TORSDOF 7
ENDMDL
