MODEL 1
REMARK VINA RESULT:      -8.2      0.000      0.000
REMARK  Name = 
REMARK  6 active torsions:
REMARK  status: ('A' for Active; 'I' for Inactive)
REMARK    1  A    between atoms: C_2  and  C_3
REMARK    2  A    between atoms: C_3  and  O_4
REMARK    3  A    between atoms: O_4  and  C_5
REMARK    4  A    between atoms: C_5  and  C_7
REMARK    5  A    between atoms: C_9  and  C_10
REMARK    6  A    between atoms: C_10  and  C_12
REMARK                            x       y       z     vdW  Elec       q    Type
REMARK                         _______ _______ _______ _____ _____    ______ ____
ROOT
ATOM      1  C   UNL     1       6.035   4.931  15.821  0.00  0.00    +0.000 A 
ATOM      2  C   UNL     1       4.644   5.224  16.005  0.00  0.00    +0.000 A 
ATOM      3  C   UNL     1       4.385   5.542  17.328  0.00  0.00    +0.000 A 
ATOM      4  N   UNL     1       5.591   5.405  18.006  0.00  0.00    +0.000 N 
ATOM      5  C   UNL     1       5.865   5.620  19.367  0.00  0.00    +0.000 A 
ATOM      6  C   UNL     1       7.123   5.517  19.826  0.00  0.00    +0.000 A 
ATOM      7  C   UNL     1       8.176   5.156  18.900  0.00  0.00    +0.000 A 
ATOM      8  C   UNL     1       7.926   4.923  17.598  0.00  0.00    +0.000 A 
ATOM      9  C   UNL     1       6.597   5.055  17.084  0.00  0.00    +0.000 A 
ENDROOT
BRANCH   1  10
ATOM     10  C   UNL     1       6.636   4.603  14.515  0.00  0.00    +0.000 C 
ATOM     11  O   UNL     1       7.586   5.247  14.080  0.00  0.00    +0.000 OA
BRANCH  10  12
ATOM     12  O   UNL     1       6.079   3.545  13.846  0.00  0.00    +0.000 OA
BRANCH  12  13
ATOM     13  C   UNL     1       6.297   3.530  12.407  0.00  0.00    +0.000 C 
BRANCH  13  15
ATOM     14  C   UNL     1       3.827   3.156  11.090  0.00  0.00    +0.000 C 
ATOM     15  C   UNL     1       4.968   3.329  11.699  0.00  0.00    +0.000 C 
ENDBRANCH  13  15
ENDBRANCH  12  13
ENDBRANCH  10  12
ENDBRANCH   1  10
BRANCH   3  16
ATOM     16  C   UNL     1       3.105   5.923  17.936  0.00  0.00    +0.000 C 
ATOM     17  O   UNL     1       2.667   7.069  17.927  0.00  0.00    +0.000 OA
BRANCH  16  18
ATOM     18  C   UNL     1       2.277   4.879  18.629  0.00  0.00    +0.000 A 
ATOM     19  C   UNL     1       1.715   3.803  17.927  0.00  0.00    +0.000 A 
ATOM     20  C   UNL     1       0.956   2.838  18.598  0.00  0.00    +0.000 A 
ATOM     21  C   UNL     1       0.753   2.940  19.972  0.00  0.00    +0.000 A 
ATOM     22  C   UNL     1       1.284   4.021  20.676  0.00  0.00    +0.000 A 
ATOM     23  C   UNL     1       2.029   4.998  20.005  0.00  0.00    +0.000 A 
ENDBRANCH  16  18
ENDBRANCH   3  16
TORSDOF 6
ENDMDL
MODEL 2
REMARK VINA RESULT:      -8.0      2.140      6.674
REMARK  Name = 
REMARK  6 active torsions:
REMARK  status: ('A' for Active; 'I' for Inactive)
REMARK    1  A    between atoms: C_2  and  C_3
REMARK    2  A    between atoms: C_3  and  O_4
REMARK    3  A    between atoms: O_4  and  C_5
REMARK    4  A    between atoms: C_5  and  C_7
REMARK    5  A    between atoms: C_9  and  C_10
REMARK    6  A    between atoms: C_10  and  C_12
REMARK                            x       y       z     vdW  Elec       q    Type
REMARK                         _______ _______ _______ _____ _____    ______ ____
ROOT
ATOM      1  C   UNL     1       3.463   3.577  17.542  0.00  0.00    +0.000 A 
ATOM      2  C   UNL     1       4.722   3.412  16.877  0.00  0.00    +0.000 A 
ATOM      3  C   UNL     1       5.303   4.643  16.622  0.00  0.00    +0.000 A 
ATOM      4  N   UNL     1       4.401   5.601  17.072  0.00  0.00    +0.000 N 
ATOM      5  C   UNL     1       4.519   7.000  17.051  0.00  0.00    +0.000 A 
ATOM      6  C   UNL     1       3.571   7.767  17.614  0.00  0.00    +0.000 A 
ATOM      7  C   UNL     1       2.420   7.124  18.213  0.00  0.00    +0.000 A 
ATOM      8  C   UNL     1       2.280   5.784  18.220  0.00  0.00    +0.000 A 
ATOM      9  C   UNL     1       3.293   4.950  17.650  0.00  0.00    +0.000 A 
ENDROOT
BRANCH   1  10
ATOM     10  C   UNL     1       2.621   2.453  17.991  0.00  0.00    +0.000 C 
ATOM     11  O   UNL     1       3.123   1.379  18.309  0.00  0.00    +0.000 OA
BRANCH  10  12
ATOM     12  O   UNL     1       1.273   2.693  18.040  0.00  0.00    +0.000 OA
BRANCH  12  13
ATOM     13  C   UNL     1       0.621   2.346  19.295  0.00  0.00    +0.000 C 
BRANCH  13  15
ATOM     14  C   UNL     1       1.879   3.722  21.415  0.00  0.00    +0.000 C 
ATOM     15  C   UNL     1       1.299   3.087  20.436  0.00  0.00    +0.000 C 
ENDBRANCH  13  15
ENDBRANCH  12  13
ENDBRANCH  10  12
ENDBRANCH   1  10
BRANCH   3  16
ATOM     16  C   UNL     1       6.593   4.924  15.982  0.00  0.00    +0.000 C 
ATOM     17  O   UNL     1       7.565   5.366  16.586  0.00  0.00    +0.000 OA
BRANCH  16  18
ATOM     18  C   UNL     1       6.754   4.683  14.508  0.00  0.00    +0.000 A 
ATOM     19  C   UNL     1       7.673   5.415  13.741  0.00  0.00    +0.000 A 
ATOM     20  C   UNL     1       7.810   5.164  12.372  0.00  0.00    +0.000 A 
ATOM     21  C   UNL     1       7.033   4.184  11.759  0.00  0.00    +0.000 A 
ATOM     22  C   UNL     1       6.095   3.471  12.506  0.00  0.00    +0.000 A 
ATOM     23  C   UNL     1       5.943   3.731  13.873  0.00  0.00    +0.000 A 
ENDBRANCH  16  18
ENDBRANCH   3  16
TORSDOF 6
ENDMDL
MODEL 3
REMARK VINA RESULT:      -8.0      2.180      6.628
REMARK  Name = 
REMARK  6 active torsions:
REMARK  status: ('A' for Active; 'I' for Inactive)
REMARK    1  A    between atoms: C_2  and  C_3
REMARK    2  A    between atoms: C_3  and  O_4
REMARK    3  A    between atoms: O_4  and  C_5
REMARK    4  A    between atoms: C_5  and  C_7
REMARK    5  A    between atoms: C_9  and  C_10
REMARK    6  A    between atoms: C_10  and  C_12
REMARK                            x       y       z     vdW  Elec       q    Type
REMARK                         _______ _______ _______ _____ _____    ______ ____
ROOT
ATOM      1  C   UNL     1       3.579   3.610  17.483  0.00  0.00    +0.000 A 
ATOM      2  C   UNL     1       4.808   3.548  16.748  0.00  0.00    +0.000 A 
ATOM      3  C   UNL     1       5.291   4.822  16.502  0.00  0.00    +0.000 A 
ATOM      4  N   UNL     1       4.354   5.704  17.028  0.00  0.00    +0.000 N 
ATOM      5  C   UNL     1       4.378   7.108  17.045  0.00  0.00    +0.000 A 
ATOM      6  C   UNL     1       3.414   7.793  17.680  0.00  0.00    +0.000 A 
ATOM      7  C   UNL     1       2.342   7.057  18.319  0.00  0.00    +0.000 A 
ATOM      8  C   UNL     1       2.292   5.712  18.292  0.00  0.00    +0.000 A 
ATOM      9  C   UNL     1       3.324   4.964  17.644  0.00  0.00    +0.000 A 
ENDROOT
BRANCH   1  10
ATOM     10  C   UNL     1       2.839   2.419  17.941  0.00  0.00    +0.000 C 
ATOM     11  O   UNL     1       3.435   1.410  18.306  0.00  0.00    +0.000 OA
BRANCH  10  12
ATOM     12  O   UNL     1       1.472   2.524  17.942  0.00  0.00    +0.000 OA
BRANCH  12  13
ATOM     13  C   UNL     1       0.812   2.067  19.156  0.00  0.00    +0.000 C 
BRANCH  13  15
ATOM     14  C   UNL     1       1.724   3.595  21.349  0.00  0.00    +0.000 C 
ATOM     15  C   UNL     1       1.303   2.890  20.336  0.00  0.00    +0.000 C 
ENDBRANCH  13  15
ENDBRANCH  12  13
ENDBRANCH  10  12
ENDBRANCH   1  10
BRANCH   3  16
ATOM     16  C   UNL     1       6.523   5.207  15.804  0.00  0.00    +0.000 C 
ATOM     17  O   UNL     1       7.421   5.858  16.327  0.00  0.00    +0.000 OA
BRANCH  16  18
ATOM     18  C   UNL     1       6.713   4.811  14.368  0.00  0.00    +0.000 A 
ATOM     19  C   UNL     1       5.961   3.779  13.785  0.00  0.00    +0.000 A 
ATOM     20  C   UNL     1       6.150   3.437  12.442  0.00  0.00    +0.000 A 
ATOM     21  C   UNL     1       7.089   4.119  11.672  0.00  0.00    +0.000 A 
ATOM     22  C   UNL     1       7.862   5.127  12.248  0.00  0.00    +0.000 A 
ATOM     23  C   UNL     1       7.688   5.461  13.597  0.00  0.00    +0.000 A 
ENDBRANCH  16  18
ENDBRANCH   3  16
TORSDOF 6
ENDMDL
MODEL 4
REMARK VINA RESULT:      -8.0      2.262      6.649
REMARK  Name = 
REMARK  6 active torsions:
REMARK  status: ('A' for Active; 'I' for Inactive)
REMARK    1  A    between atoms: C_2  and  C_3
REMARK    2  A    between atoms: C_3  and  O_4
REMARK    3  A    between atoms: O_4  and  C_5
REMARK    4  A    between atoms: C_5  and  C_7
REMARK    5  A    between atoms: C_9  and  C_10
REMARK    6  A    between atoms: C_10  and  C_12
REMARK                            x       y       z     vdW  Elec       q    Type
REMARK                         _______ _______ _______ _____ _____    ______ ____
ROOT
ATOM      1  C   UNL     1       3.636   3.579  17.606  0.00  0.00    +0.000 A 
ATOM      2  C   UNL     1       4.872   3.498  16.883  0.00  0.00    +0.000 A 
ATOM      3  C   UNL     1       5.347   4.765  16.590  0.00  0.00    +0.000 A 
ATOM      4  N   UNL     1       4.399   5.660  17.073  0.00  0.00    +0.000 N 
ATOM      5  C   UNL     1       4.413   7.064  17.034  0.00  0.00    +0.000 A 
ATOM      6  C   UNL     1       3.438   7.766  17.635  0.00  0.00    +0.000 A 
ATOM      7  C   UNL     1       2.367   7.048  18.294  0.00  0.00    +0.000 A 
ATOM      8  C   UNL     1       2.327   5.702  18.320  0.00  0.00    +0.000 A 
ATOM      9  C   UNL     1       3.370   4.938  17.710  0.00  0.00    +0.000 A 
ENDROOT
BRANCH   1  10
ATOM     10  C   UNL     1       2.902   2.402  18.105  0.00  0.00    +0.000 C 
ATOM     11  O   UNL     1       1.766   2.155  17.710  0.00  0.00    +0.000 OA
BRANCH  10  12
ATOM     12  O   UNL     1       3.569   1.616  19.007  0.00  0.00    +0.000 OA
BRANCH  12  13
ATOM     13  C   UNL     1       3.984   2.285  20.232  0.00  0.00    +0.000 C 
BRANCH  13  15
ATOM     14  C   UNL     1       1.695   3.102  21.670  0.00  0.00    +0.000 C 
ATOM     15  C   UNL     1       2.752   2.725  21.006  0.00  0.00    +0.000 C 
ENDBRANCH  13  15
ENDBRANCH  12  13
ENDBRANCH  10  12
ENDBRANCH   1  10
BRANCH   3  16
ATOM     16  C   UNL     1       6.582   5.131  15.887  0.00  0.00    +0.000 C 
ATOM     17  O   UNL     1       7.509   5.735  16.417  0.00  0.00    +0.000 OA
BRANCH  16  18
ATOM     18  C   UNL     1       6.738   4.778  14.435  0.00  0.00    +0.000 A 
ATOM     19  C   UNL     1       7.677   5.425  13.619  0.00  0.00    +0.000 A 
ATOM     20  C   UNL     1       7.809   5.070  12.272  0.00  0.00    +0.000 A 
ATOM     21  C   UNL     1       7.006   4.067  11.732  0.00  0.00    +0.000 A 
ATOM     22  C   UNL     1       6.049   3.437  12.527  0.00  0.00    +0.000 A 
ATOM     23  C   UNL     1       5.903   3.802  13.871  0.00  0.00    +0.000 A 
ENDBRANCH  16  18
ENDBRANCH   3  16
TORSDOF 6
ENDMDL
MODEL 5
REMARK VINA RESULT:      -7.9      2.261      6.640
REMARK  Name = 
REMARK  6 active torsions:
REMARK  status: ('A' for Active; 'I' for Inactive)
REMARK    1  A    between atoms: C_2  and  C_3
REMARK    2  A    between atoms: C_3  and  O_4
REMARK    3  A    between atoms: O_4  and  C_5
REMARK    4  A    between atoms: C_5  and  C_7
REMARK    5  A    between atoms: C_9  and  C_10
REMARK    6  A    between atoms: C_10  and  C_12
REMARK                            x       y       z     vdW  Elec       q    Type
REMARK                         _______ _______ _______ _____ _____    ______ ____
ROOT
ATOM      1  C   UNL     1       3.619   3.576  17.608  0.00  0.00    +0.000 A 
ATOM      2  C   UNL     1       4.868   3.484  16.908  0.00  0.00    +0.000 A 
ATOM      3  C   UNL     1       5.352   4.746  16.609  0.00  0.00    +0.000 A 
ATOM      4  N   UNL     1       4.397   5.649  17.065  0.00  0.00    +0.000 N 
ATOM      5  C   UNL     1       4.415   7.052  17.010  0.00  0.00    +0.000 A 
ATOM      6  C   UNL     1       3.431   7.763  17.585  0.00  0.00    +0.000 A 
ATOM      7  C   UNL     1       2.347   7.056  18.233  0.00  0.00    +0.000 A 
ATOM      8  C   UNL     1       2.303   5.710  18.274  0.00  0.00    +0.000 A 
ATOM      9  C   UNL     1       3.355   4.936  17.692  0.00  0.00    +0.000 A 
ENDROOT
BRANCH   1  10
ATOM     10  C   UNL     1       2.873   2.406  18.107  0.00  0.00    +0.000 C 
ATOM     11  O   UNL     1       1.721   2.193  17.743  0.00  0.00    +0.000 OA
BRANCH  10  12
ATOM     12  O   UNL     1       3.549   1.588  18.974  0.00  0.00    +0.000 OA
BRANCH  12  13
ATOM     13  C   UNL     1       3.966   2.209  20.223  0.00  0.00    +0.000 C 
BRANCH  13  15
ATOM     14  C   UNL     1       1.684   3.043  21.661  0.00  0.00    +0.000 C 
ATOM     15  C   UNL     1       2.737   2.658  20.997  0.00  0.00    +0.000 C 
ENDBRANCH  13  15
ENDBRANCH  12  13
ENDBRANCH  10  12
ENDBRANCH   1  10
BRANCH   3  16
ATOM     16  C   UNL     1       6.600   5.101  15.924  0.00  0.00    +0.000 C 
ATOM     17  O   UNL     1       7.535   5.672  16.476  0.00  0.00    +0.000 OA
BRANCH  16  18
ATOM     18  C   UNL     1       6.760   4.777  14.467  0.00  0.00    +0.000 A 
ATOM     19  C   UNL     1       5.990   3.782  13.847  0.00  0.00    +0.000 A 
ATOM     20  C   UNL     1       6.151   3.507  12.485  0.00  0.00    +0.000 A 
ATOM     21  C   UNL     1       7.082   4.221  11.733  0.00  0.00    +0.000 A 
ATOM     22  C   UNL     1       7.874   5.193  12.345  0.00  0.00    +0.000 A 
ATOM     23  C   UNL     1       7.726   5.459  13.712  0.00  0.00    +0.000 A 
ENDBRANCH  16  18
ENDBRANCH   3  16
TORSDOF 6
ENDMDL
MODEL 6
REMARK VINA RESULT:      -7.8      0.683      1.277
REMARK  Name = 
REMARK  6 active torsions:
REMARK  status: ('A' for Active; 'I' for Inactive)
REMARK    1  A    between atoms: C_2  and  C_3
REMARK    2  A    between atoms: C_3  and  O_4
REMARK    3  A    between atoms: O_4  and  C_5
REMARK    4  A    between atoms: C_5  and  C_7
REMARK    5  A    between atoms: C_9  and  C_10
REMARK    6  A    between atoms: C_10  and  C_12
REMARK                            x       y       z     vdW  Elec       q    Type
REMARK                         _______ _______ _______ _____ _____    ______ ____
ROOT
ATOM      1  C   UNL     1       5.902   4.886  15.666  0.00  0.00    +0.000 A 
ATOM      2  C   UNL     1       4.524   5.213  15.892  0.00  0.00    +0.000 A 
ATOM      3  C   UNL     1       4.309   5.516  17.226  0.00  0.00    +0.000 A 
ATOM      4  N   UNL     1       5.528   5.335  17.869  0.00  0.00    +0.000 N 
ATOM      5  C   UNL     1       5.844   5.519  19.225  0.00  0.00    +0.000 A 
ATOM      6  C   UNL     1       7.110   5.374  19.649  0.00  0.00    +0.000 A 
ATOM      7  C   UNL     1       8.129   5.000  18.690  0.00  0.00    +0.000 A 
ATOM      8  C   UNL     1       7.837   4.796  17.391  0.00  0.00    +0.000 A 
ATOM      9  C   UNL     1       6.500   4.973  16.915  0.00  0.00    +0.000 A 
ENDROOT
BRANCH   1  10
ATOM     10  C   UNL     1       6.459   4.563  14.339  0.00  0.00    +0.000 C 
ATOM     11  O   UNL     1       7.355   5.244  13.851  0.00  0.00    +0.000 OA
BRANCH  10  12
ATOM     12  O   UNL     1       5.925   3.467  13.714  0.00  0.00    +0.000 OA
BRANCH  12  13
ATOM     13  C   UNL     1       5.814   3.565  12.265  0.00  0.00    +0.000 C 
BRANCH  13  15
ATOM     14  C   UNL     1       6.339   1.041  11.113  0.00  0.00    +0.000 C 
ATOM     15  C   UNL     1       6.097   2.207  11.646  0.00  0.00    +0.000 C 
ENDBRANCH  13  15
ENDBRANCH  12  13
ENDBRANCH  10  12
ENDBRANCH   1  10
BRANCH   3  16
ATOM     16  C   UNL     1       3.057   5.922  17.874  0.00  0.00    +0.000 C 
ATOM     17  O   UNL     1       2.626   7.070  17.852  0.00  0.00    +0.000 OA
BRANCH  16  18
ATOM     18  C   UNL     1       2.251   4.902  18.627  0.00  0.00    +0.000 A 
ATOM     19  C   UNL     1       1.989   5.040  19.998  0.00  0.00    +0.000 A 
ATOM     20  C   UNL     1       1.228   4.081  20.673  0.00  0.00    +0.000 A 
ATOM     21  C   UNL     1       0.723   2.979  19.987  0.00  0.00    +0.000 A 
ATOM     22  C   UNL     1       1.002   2.816  18.630  0.00  0.00    +0.000 A 
ATOM     23  C   UNL     1       1.778   3.766  17.954  0.00  0.00    +0.000 A 
ENDBRANCH  16  18
ENDBRANCH   3  16
TORSDOF 6
ENDMDL
MODEL 7
REMARK VINA RESULT:      -7.5      2.168      6.370
REMARK  Name = 
REMARK  6 active torsions:
REMARK  status: ('A' for Active; 'I' for Inactive)
REMARK    1  A    between atoms: C_2  and  C_3
REMARK    2  A    between atoms: C_3  and  O_4
REMARK    3  A    between atoms: O_4  and  C_5
REMARK    4  A    between atoms: C_5  and  C_7
REMARK    5  A    between atoms: C_9  and  C_10
REMARK    6  A    between atoms: C_10  and  C_12
REMARK                            x       y       z     vdW  Elec       q    Type
REMARK                         _______ _______ _______ _____ _____    ______ ____
ROOT
ATOM      1  C   UNL     1       4.536   4.154  19.029  0.00  0.00    +0.000 A 
ATOM      2  C   UNL     1       5.642   4.099  18.118  0.00  0.00    +0.000 A 
ATOM      3  C   UNL     1       5.675   5.234  17.324  0.00  0.00    +0.000 A 
ATOM      4  N   UNL     1       4.567   5.993  17.683  0.00  0.00    +0.000 N 
ATOM      5  C   UNL     1       4.152   7.237  17.180  0.00  0.00    +0.000 A 
ATOM      6  C   UNL     1       3.090   7.862  17.716  0.00  0.00    +0.000 A 
ATOM      7  C   UNL     1       2.374   7.217  18.796  0.00  0.00    +0.000 A 
ATOM      8  C   UNL     1       2.745   6.014  19.274  0.00  0.00    +0.000 A 
ATOM      9  C   UNL     1       3.888   5.345  18.735  0.00  0.00    +0.000 A 
ENDROOT
BRANCH   1  10
ATOM     10  C   UNL     1       4.257   3.116  20.039  0.00  0.00    +0.000 C 
ATOM     11  O   UNL     1       4.865   2.050  20.031  0.00  0.00    +0.000 OA
BRANCH  10  12
ATOM     12  O   UNL     1       3.303   3.428  20.972  0.00  0.00    +0.000 OA
BRANCH  12  13
ATOM     13  C   UNL     1       2.199   2.484  21.076  0.00  0.00    +0.000 C 
BRANCH  13  15
ATOM     14  C   UNL     1       0.646   2.602  18.720  0.00  0.00    +0.000 C 
ATOM     15  C   UNL     1       1.362   2.548  19.808  0.00  0.00    +0.000 C 
ENDBRANCH  13  15
ENDBRANCH  12  13
ENDBRANCH  10  12
ENDBRANCH   1  10
BRANCH   3  16
ATOM     16  C   UNL     1       6.647   5.587  16.284  0.00  0.00    +0.000 C 
ATOM     17  O   UNL     1       7.559   6.389  16.455  0.00  0.00    +0.000 OA
BRANCH  16  18
ATOM     18  C   UNL     1       6.532   4.962  14.923  0.00  0.00    +0.000 A 
ATOM     19  C   UNL     1       7.523   5.141  13.947  0.00  0.00    +0.000 A 
ATOM     20  C   UNL     1       7.396   4.539  12.691  0.00  0.00    +0.000 A 
ATOM     21  C   UNL     1       6.281   3.756  12.399  0.00  0.00    +0.000 A 
ATOM     22  C   UNL     1       5.276   3.595  13.352  0.00  0.00    +0.000 A 
ATOM     23  C   UNL     1       5.391   4.210  14.605  0.00  0.00    +0.000 A 
ENDBRANCH  16  18
ENDBRANCH   3  16
TORSDOF 6
ENDMDL
MODEL 8
REMARK VINA RESULT:      -7.5      2.399      4.642
REMARK  Name = 
REMARK  6 active torsions:
REMARK  status: ('A' for Active; 'I' for Inactive)
REMARK    1  A    between atoms: C_2  and  C_3
REMARK    2  A    between atoms: C_3  and  O_4
REMARK    3  A    between atoms: O_4  and  C_5
REMARK    4  A    between atoms: C_5  and  C_7
REMARK    5  A    between atoms: C_9  and  C_10
REMARK    6  A    between atoms: C_10  and  C_12
REMARK                            x       y       z     vdW  Elec       q    Type
REMARK                         _______ _______ _______ _____ _____    ______ ____
ROOT
ATOM      1  C   UNL     1       6.698   5.750  18.357  0.00  0.00    +0.000 A 
ATOM      2  C   UNL     1       5.398   6.045  18.885  0.00  0.00    +0.000 A 
ATOM      3  C   UNL     1       4.414   5.700  17.974  0.00  0.00    +0.000 A 
ATOM      4  N   UNL     1       5.075   5.234  16.843  0.00  0.00    +0.000 N 
ATOM      5  C   UNL     1       4.530   4.754  15.640  0.00  0.00    +0.000 A 
ATOM      6  C   UNL     1       5.335   4.263  14.684  0.00  0.00    +0.000 A 
ATOM      7  C   UNL     1       6.766   4.264  14.907  0.00  0.00    +0.000 A 
ATOM      8  C   UNL     1       7.305   4.742  16.045  0.00  0.00    +0.000 A 
ATOM      9  C   UNL     1       6.463   5.244  17.087  0.00  0.00    +0.000 A 
ENDROOT
BRANCH   1  10
ATOM     10  C   UNL     1       7.951   5.959  19.106  0.00  0.00    +0.000 C 
ATOM     11  O   UNL     1       8.457   5.047  19.753  0.00  0.00    +0.000 OA
BRANCH  10  12
ATOM     12  O   UNL     1       8.503   7.210  19.017  0.00  0.00    +0.000 OA
BRANCH  12  13
ATOM     13  C   UNL     1       7.992   8.043  17.938  0.00  0.00    +0.000 C 
BRANCH  13  15
ATOM     14  C   UNL     1       8.937  10.684  18.267  0.00  0.00    +0.000 C 
ATOM     15  C   UNL     1       8.501   9.464  18.116  0.00  0.00    +0.000 C 
ENDBRANCH  13  15
ENDBRANCH  12  13
ENDBRANCH  10  12
ENDBRANCH   1  10
BRANCH   3  16
ATOM     16  C   UNL     1       2.959   5.815  18.122  0.00  0.00    +0.000 C 
ATOM     17  O   UNL     1       2.316   6.788  17.742  0.00  0.00    +0.000 OA
BRANCH  16  18
ATOM     18  C   UNL     1       2.194   4.707  18.787  0.00  0.00    +0.000 A 
ATOM     19  C   UNL     1       1.943   4.714  20.167  0.00  0.00    +0.000 A 
ATOM     20  C   UNL     1       1.219   3.674  20.761  0.00  0.00    +0.000 A 
ATOM     21  C   UNL     1       0.743   2.621  19.983  0.00  0.00    +0.000 A 
ATOM     22  C   UNL     1       1.012   2.589  18.615  0.00  0.00    +0.000 A 
ATOM     23  C   UNL     1       1.751   3.619  18.020  0.00  0.00    +0.000 A 
ENDBRANCH  16  18
ENDBRANCH   3  16
TORSDOF 6
ENDMDL
MODEL 9
REMARK VINA RESULT:      -7.5      2.096      2.719
REMARK  Name = 
REMARK  6 active torsions:
REMARK  status: ('A' for Active; 'I' for Inactive)
REMARK    1  A    between atoms: C_2  and  C_3
REMARK    2  A    between atoms: C_3  and  O_4
REMARK    3  A    between atoms: O_4  and  C_5
REMARK    4  A    between atoms: C_5  and  C_7
REMARK    5  A    between atoms: C_9  and  C_10
REMARK    6  A    between atoms: C_10  and  C_12
REMARK                            x       y       z     vdW  Elec       q    Type
REMARK                         _______ _______ _______ _____ _____    ______ ____
ROOT
ATOM      1  C   UNL     1       5.413   4.650  15.964  0.00  0.00    +0.000 A 
ATOM      2  C   UNL     1       4.735   3.434  16.305  0.00  0.00    +0.000 A 
ATOM      3  C   UNL     1       3.646   3.696  17.118  0.00  0.00    +0.000 A 
ATOM      4  N   UNL     1       3.649   5.068  17.345  0.00  0.00    +0.000 N 
ATOM      5  C   UNL     1       2.748   5.838  18.099  0.00  0.00    +0.000 A 
ATOM      6  C   UNL     1       2.867   7.175  18.133  0.00  0.00    +0.000 A 
ATOM      7  C   UNL     1       3.952   7.798  17.403  0.00  0.00    +0.000 A 
ATOM      8  C   UNL     1       4.838   7.072  16.695  0.00  0.00    +0.000 A 
ATOM      9  C   UNL     1       4.712   5.649  16.624  0.00  0.00    +0.000 A 
ENDROOT
BRANCH   1  10
ATOM     10  C   UNL     1       6.586   4.711  15.071  0.00  0.00    +0.000 C 
ATOM     11  O   UNL     1       7.399   5.625  15.162  0.00  0.00    +0.000 OA
BRANCH  10  12
ATOM     12  O   UNL     1       6.704   3.689  14.165  0.00  0.00    +0.000 OA
BRANCH  12  13
ATOM     13  C   UNL     1       6.715   4.092  12.766  0.00  0.00    +0.000 C 
BRANCH  13  15
ATOM     14  C   UNL     1       4.384   3.125  11.499  0.00  0.00    +0.000 C 
ATOM     15  C   UNL     1       5.461   3.572  12.083  0.00  0.00    +0.000 C 
ENDBRANCH  13  15
ENDBRANCH  12  13
ENDBRANCH  10  12
ENDBRANCH   1  10
BRANCH   3  16
ATOM     16  C   UNL     1       2.677   2.744  17.673  0.00  0.00    +0.000 C 
ATOM     17  O   UNL     1       2.047   1.944  16.989  0.00  0.00    +0.000 OA
BRANCH  16  18
ATOM     18  C   UNL     1       2.409   2.741  19.151  0.00  0.00    +0.000 A 
ATOM     19  C   UNL     1       1.128   2.990  19.665  0.00  0.00    +0.000 A 
ATOM     20  C   UNL     1       0.903   2.971  21.045  0.00  0.00    +0.000 A 
ATOM     21  C   UNL     1       1.953   2.706  21.921  0.00  0.00    +0.000 A 
ATOM     22  C   UNL     1       3.237   2.486  21.423  0.00  0.00    +0.000 A 
ATOM     23  C   UNL     1       3.469   2.521  20.043  0.00  0.00    +0.000 A 
ENDBRANCH  16  18
ENDBRANCH   3  16
TORSDOF 6
ENDMDL
