MODEL 1
REMARK VINA RESULT:      -7.5      0.000      0.000
REMARK  Name = 
REMARK  5 active torsions:
REMARK  status: ('A' for Active; 'I' for Inactive)
REMARK    1  A    between atoms: C_1  and  C_2
REMARK    2  A    between atoms: C_2  and  O_3
REMARK    3  A    between atoms: O_3  and  C_4
REMARK    4  A    between atoms: C_7  and  N_8
REMARK    5  A    between atoms: C_12  and  C_13
REMARK                            x       y       z     vdW  Elec       q    Type
REMARK                         _______ _______ _______ _____ _____    ______ ____
ROOT
ATOM      1  N   UNL     1       5.459   4.156  16.941  0.00  0.00    +0.000 NA
ATOM      2  C   UNL     1       4.967   3.303  17.771  0.00  0.00    +0.000 C 
ATOM      3  N   UNL     1       4.203   2.235  17.398  0.00  0.00    +0.000 N 
ATOM      4  C   UNL     1       3.627   1.513  18.518  0.00  0.00    +0.000 C 
ATOM      5  C   UNL     1       3.926   2.462  19.702  0.00  0.00    +0.000 C 
ATOM      6  N   UNL     1       5.006   3.277  19.148  0.00  0.00    +0.000 N 
ATOM      7  H   UNL     1       3.869   2.151  16.449  0.00  0.00    +0.000 HD
ATOM      8  H   UNL     1       5.154   4.172  19.593  0.00  0.00    +0.000 HD
ENDROOT
BRANCH   1  12
ATOM      9  C   UNL     1       7.852   7.383  18.237  0.00  0.00    +0.000 A 
ATOM     10  C   UNL     1       8.026   6.126  18.804  0.00  0.00    +0.000 A 
ATOM     11  C   UNL     1       7.267   5.048  18.352  0.00  0.00    +0.000 A 
ATOM     12  C   UNL     1       6.257   5.221  17.399  0.00  0.00    +0.000 A 
ATOM     13  C   UNL     1       6.079   6.494  16.848  0.00  0.00    +0.000 A 
ATOM     14  C   UNL     1       6.875   7.573  17.259  0.00  0.00    +0.000 A 
BRANCH   9  15
ATOM     15  O   UNL     1       8.676   8.356  18.727  0.00  0.00    +0.000 OA
BRANCH  15  17
ATOM     16  C   UNL     1       9.409  10.607  18.916  0.00  0.00    +0.000 C 
ATOM     17  C   UNL     1       8.521   9.648  18.145  0.00  0.00    +0.000 C 
ENDBRANCH  15  17
ENDBRANCH   9  15
ENDBRANCH   1  12
BRANCH   5  18
ATOM     18  C   UNL     1       2.730   3.273  20.085  0.00  0.00    +0.000 A 
ATOM     19  C   UNL     1       1.379   2.988  20.142  0.00  0.00    +0.000 A 
ATOM     20  C   UNL     1       0.736   4.184  20.534  0.00  0.00    +0.000 A 
ATOM     21  C   UNL     1       1.733   5.118  20.698  0.00  0.00    +0.000 A 
ATOM     22  O   UNL     1       2.949   4.574  20.431  0.00  0.00    +0.000 OA
ENDBRANCH   5  18
TORSDOF 4
ENDMDL
MODEL 2
REMARK VINA RESULT:      -7.5      0.124      1.081
REMARK  Name = 
REMARK  5 active torsions:
REMARK  status: ('A' for Active; 'I' for Inactive)
REMARK    1  A    between atoms: C_1  and  C_2
REMARK    2  A    between atoms: C_2  and  O_3
REMARK    3  A    between atoms: O_3  and  C_4
REMARK    4  A    between atoms: C_7  and  N_8
REMARK    5  A    between atoms: C_12  and  C_13
REMARK                            x       y       z     vdW  Elec       q    Type
REMARK                         _______ _______ _______ _____ _____    ______ ____
ROOT
ATOM      1  N   UNL     1       5.469   4.123  16.896  0.00  0.00    +0.000 NA
ATOM      2  C   UNL     1       4.967   3.277  17.727  0.00  0.00    +0.000 C 
ATOM      3  N   UNL     1       4.180   2.225  17.356  0.00  0.00    +0.000 N 
ATOM      4  C   UNL     1       3.597   1.510  18.478  0.00  0.00    +0.000 C 
ATOM      5  C   UNL     1       3.923   2.449  19.663  0.00  0.00    +0.000 C 
ATOM      6  N   UNL     1       5.014   3.246  19.103  0.00  0.00    +0.000 N 
ATOM      7  H   UNL     1       3.838   2.150  16.409  0.00  0.00    +0.000 HD
ATOM      8  H   UNL     1       5.183   4.136  19.550  0.00  0.00    +0.000 HD
ENDROOT
BRANCH   1  12
ATOM      9  C   UNL     1       7.934   7.232  18.337  0.00  0.00    +0.000 A 
ATOM     10  C   UNL     1       6.965   7.509  17.380  0.00  0.00    +0.000 A 
ATOM     11  C   UNL     1       6.122   6.495  16.930  0.00  0.00    +0.000 A 
ATOM     12  C   UNL     1       6.290   5.171  17.351  0.00  0.00    +0.000 A 
ATOM     13  C   UNL     1       7.279   4.901  18.301  0.00  0.00    +0.000 A 
ATOM     14  C   UNL     1       8.098   5.925  18.799  0.00  0.00    +0.000 A 
BRANCH   9  15
ATOM     15  O   UNL     1       8.677   8.307  18.735  0.00  0.00    +0.000 OA
BRANCH  15  17
ATOM     16  C   UNL     1       9.336  10.585  18.625  0.00  0.00    +0.000 C 
ATOM     17  C   UNL     1       8.405   9.531  18.057  0.00  0.00    +0.000 C 
ENDBRANCH  15  17
ENDBRANCH   9  15
ENDBRANCH   1  12
BRANCH   5  18
ATOM     18  C   UNL     1       2.746   3.282  20.057  0.00  0.00    +0.000 A 
ATOM     19  C   UNL     1       1.389   3.026  20.114  0.00  0.00    +0.000 A 
ATOM     20  C   UNL     1       0.773   4.232  20.519  0.00  0.00    +0.000 A 
ATOM     21  C   UNL     1       1.790   5.142  20.689  0.00  0.00    +0.000 A 
ATOM     22  O   UNL     1       2.993   4.575  20.414  0.00  0.00    +0.000 OA
ENDBRANCH   5  18
TORSDOF 4
ENDMDL
MODEL 3
REMARK VINA RESULT:      -7.0      3.695      6.012
REMARK  Name = 
REMARK  5 active torsions:
REMARK  status: ('A' for Active; 'I' for Inactive)
REMARK    1  A    between atoms: C_1  and  C_2
REMARK    2  A    between atoms: C_2  and  O_3
REMARK    3  A    between atoms: O_3  and  C_4
REMARK    4  A    between atoms: C_7  and  N_8
REMARK    5  A    between atoms: C_12  and  C_13
REMARK                            x       y       z     vdW  Elec       q    Type
REMARK                         _______ _______ _______ _____ _____    ______ ____
ROOT
ATOM      1  N   UNL     1       2.943   5.676  19.939  0.00  0.00    +0.000 NA
ATOM      2  C   UNL     1       3.084   4.728  19.078  0.00  0.00    +0.000 C 
ATOM      3  N   UNL     1       3.567   3.489  19.387  0.00  0.00    +0.000 N 
ATOM      4  C   UNL     1       3.791   2.646  18.225  0.00  0.00    +0.000 C 
ATOM      5  C   UNL     1       3.624   3.650  17.061  0.00  0.00    +0.000 C 
ATOM      6  N   UNL     1       2.879   4.725  17.716  0.00  0.00    +0.000 N 
ATOM      7  H   UNL     1       3.974   3.309  20.293  0.00  0.00    +0.000 HD
ATOM      8  H   UNL     1       2.928   5.630  17.269  0.00  0.00    +0.000 HD
ENDROOT
BRANCH   1  12
ATOM      9  C   UNL     1       1.298   9.399  18.820  0.00  0.00    +0.000 A 
ATOM     10  C   UNL     1       2.050   8.675  17.902  0.00  0.00    +0.000 A 
ATOM     11  C   UNL     1       2.562   7.427  18.253  0.00  0.00    +0.000 A 
ATOM     12  C   UNL     1       2.417   6.922  19.550  0.00  0.00    +0.000 A 
ATOM     13  C   UNL     1       1.673   7.667  20.470  0.00  0.00    +0.000 A 
ATOM     14  C   UNL     1       1.110   8.900  20.110  0.00  0.00    +0.000 A 
BRANCH   9  15
ATOM     15  O   UNL     1       0.812  10.590  18.358  0.00  0.00    +0.000 OA
BRANCH  15  17
ATOM     16  C   UNL     1      -1.417  10.156  17.667  0.00  0.00    +0.000 C 
ATOM     17  C   UNL     1      -0.547  10.871  18.683  0.00  0.00    +0.000 C 
ENDBRANCH  15  17
ENDBRANCH   9  15
ENDBRANCH   1  12
BRANCH   5  18
ATOM     18  C   UNL     1       4.942   4.108  16.524  0.00  0.00    +0.000 A 
ATOM     19  C   UNL     1       5.387   4.402  15.250  0.00  0.00    +0.000 A 
ATOM     20  C   UNL     1       6.755   4.737  15.373  0.00  0.00    +0.000 A 
ATOM     21  C   UNL     1       7.054   4.632  16.711  0.00  0.00    +0.000 A 
ATOM     22  O   UNL     1       5.959   4.254  17.420  0.00  0.00    +0.000 OA
ENDBRANCH   5  18
TORSDOF 4
ENDMDL
MODEL 4
REMARK VINA RESULT:      -7.0      3.695      5.978
REMARK  Name = 
REMARK  5 active torsions:
REMARK  status: ('A' for Active; 'I' for Inactive)
REMARK    1  A    between atoms: C_1  and  C_2
REMARK    2  A    between atoms: C_2  and  O_3
REMARK    3  A    between atoms: O_3  and  C_4
REMARK    4  A    between atoms: C_7  and  N_8
REMARK    5  A    between atoms: C_12  and  C_13
REMARK                            x       y       z     vdW  Elec       q    Type
REMARK                         _______ _______ _______ _____ _____    ______ ____
ROOT
ATOM      1  N   UNL     1       2.967   5.709  19.965  0.00  0.00    +0.000 NA
ATOM      2  C   UNL     1       3.113   4.749  19.119  0.00  0.00    +0.000 C 
ATOM      3  N   UNL     1       3.631   3.527  19.440  0.00  0.00    +0.000 N 
ATOM      4  C   UNL     1       3.851   2.669  18.289  0.00  0.00    +0.000 C 
ATOM      5  C   UNL     1       3.637   3.648  17.111  0.00  0.00    +0.000 C 
ATOM      6  N   UNL     1       2.881   4.716  17.762  0.00  0.00    +0.000 N 
ATOM      7  H   UNL     1       4.061   3.374  20.340  0.00  0.00    +0.000 HD
ATOM      8  H   UNL     1       2.900   5.614  17.298  0.00  0.00    +0.000 HD
ENDROOT
BRANCH   1  12
ATOM      9  C   UNL     1       1.345   9.401  18.719  0.00  0.00    +0.000 A 
ATOM     10  C   UNL     1       1.108   8.946  20.011  0.00  0.00    +0.000 A 
ATOM     11  C   UNL     1       1.673   7.748  20.441  0.00  0.00    +0.000 A 
ATOM     12  C   UNL     1       2.404   6.935  19.566  0.00  0.00    +0.000 A 
ATOM     13  C   UNL     1       2.622   7.395  18.264  0.00  0.00    +0.000 A 
ATOM     14  C   UNL     1       2.100   8.626  17.838  0.00  0.00    +0.000 A 
BRANCH   9  15
ATOM     15  O   UNL     1       0.775  10.606  18.417  0.00  0.00    +0.000 OA
BRANCH  15  17
ATOM     16  C   UNL     1      -1.390  10.108  17.580  0.00  0.00    +0.000 C 
ATOM     17  C   UNL     1      -0.612  10.728  18.725  0.00  0.00    +0.000 C 
ENDBRANCH  15  17
ENDBRANCH   9  15
ENDBRANCH   1  12
BRANCH   5  18
ATOM     18  C   UNL     1       4.933   4.125  16.538  0.00  0.00    +0.000 A 
ATOM     19  C   UNL     1       5.336   4.439  15.255  0.00  0.00    +0.000 A 
ATOM     20  C   UNL     1       6.703   4.787  15.340  0.00  0.00    +0.000 A 
ATOM     21  C   UNL     1       7.044   4.672  16.667  0.00  0.00    +0.000 A 
ATOM     22  O   UNL     1       5.976   4.273  17.405  0.00  0.00    +0.000 OA
ENDBRANCH   5  18
TORSDOF 4
ENDMDL
MODEL 5
REMARK VINA RESULT:      -6.9      1.079      1.535
REMARK  Name = 
REMARK  5 active torsions:
REMARK  status: ('A' for Active; 'I' for Inactive)
REMARK    1  A    between atoms: C_1  and  C_2
REMARK    2  A    between atoms: C_2  and  O_3
REMARK    3  A    between atoms: O_3  and  C_4
REMARK    4  A    between atoms: C_7  and  N_8
REMARK    5  A    between atoms: C_12  and  C_13
REMARK                            x       y       z     vdW  Elec       q    Type
REMARK                         _______ _______ _______ _____ _____    ______ ____
ROOT
ATOM      1  N   UNL     1       4.818   3.769  16.569  0.00  0.00    +0.000 NA
ATOM      2  C   UNL     1       4.667   2.942  17.546  0.00  0.00    +0.000 C 
ATOM      3  N   UNL     1       4.071   1.720  17.420  0.00  0.00    +0.000 N 
ATOM      4  C   UNL     1       3.868   1.040  18.687  0.00  0.00    +0.000 C 
ATOM      5  C   UNL     1       4.191   2.155  19.708  0.00  0.00    +0.000 C 
ATOM      6  N   UNL     1       4.967   3.080  18.883  0.00  0.00    +0.000 N 
ATOM      7  H   UNL     1       3.589   1.471  16.569  0.00  0.00    +0.000 HD
ATOM      8  H   UNL     1       5.018   4.032  19.219  0.00  0.00    +0.000 HD
ENDROOT
BRANCH   1  12
ATOM      9  C   UNL     1       6.808   7.434  17.223  0.00  0.00    +0.000 A 
ATOM     10  C   UNL     1       5.427   7.419  17.058  0.00  0.00    +0.000 A 
ATOM     11  C   UNL     1       4.761   6.209  16.882  0.00  0.00    +0.000 A 
ATOM     12  C   UNL     1       5.463   5.003  16.771  0.00  0.00    +0.000 A 
ATOM     13  C   UNL     1       6.852   5.032  16.922  0.00  0.00    +0.000 A 
ATOM     14  C   UNL     1       7.527   6.240  17.152  0.00  0.00    +0.000 A 
BRANCH   9  15
ATOM     15  O   UNL     1       7.352   8.670  17.429  0.00  0.00    +0.000 OA
BRANCH  15  17
ATOM     16  C   UNL     1       8.923  10.158  18.405  0.00  0.00    +0.000 C 
ATOM     17  C   UNL     1       8.440   8.722  18.349  0.00  0.00    +0.000 C 
ENDBRANCH  15  17
ENDBRANCH   9  15
ENDBRANCH   1  12
BRANCH   5  18
ATOM     18  C   UNL     1       2.953   2.780  20.265  0.00  0.00    +0.000 A 
ATOM     19  C   UNL     1       2.446   2.884  21.546  0.00  0.00    +0.000 A 
ATOM     20  C   UNL     1       1.205   3.549  21.431  0.00  0.00    +0.000 A 
ATOM     21  C   UNL     1       1.037   3.815  20.092  0.00  0.00    +0.000 A 
ATOM     22  O   UNL     1       2.095   3.354  19.375  0.00  0.00    +0.000 OA
ENDBRANCH   5  18
TORSDOF 4
ENDMDL
MODEL 6
REMARK VINA RESULT:      -6.9      2.660      6.950
REMARK  Name = 
REMARK  5 active torsions:
REMARK  status: ('A' for Active; 'I' for Inactive)
REMARK    1  A    between atoms: C_1  and  C_2
REMARK    2  A    between atoms: C_2  and  O_3
REMARK    3  A    between atoms: O_3  and  C_4
REMARK    4  A    between atoms: C_7  and  N_8
REMARK    5  A    between atoms: C_12  and  C_13
REMARK                            x       y       z     vdW  Elec       q    Type
REMARK                         _______ _______ _______ _____ _____    ______ ____
ROOT
ATOM      1  N   UNL     1       4.137   7.213  17.835  0.00  0.00    +0.000 NA
ATOM      2  C   UNL     1       5.350   6.856  17.590  0.00  0.00    +0.000 C 
ATOM      3  N   UNL     1       6.297   7.693  17.075  0.00  0.00    +0.000 N 
ATOM      4  C   UNL     1       7.540   7.023  16.731  0.00  0.00    +0.000 C 
ATOM      5  C   UNL     1       7.148   5.532  16.859  0.00  0.00    +0.000 C 
ATOM      6  N   UNL     1       5.953   5.622  17.697  0.00  0.00    +0.000 N 
ATOM      7  H   UNL     1       6.041   8.604  16.726  0.00  0.00    +0.000 HD
ATOM      8  H   UNL     1       5.326   4.830  17.656  0.00  0.00    +0.000 HD
ENDROOT
BRANCH   1  12
ATOM      9  C   UNL     1       1.421   4.485  19.567  0.00  0.00    +0.000 A 
ATOM     10  C   UNL     1       1.887   4.267  18.276  0.00  0.00    +0.000 A 
ATOM     11  C   UNL     1       2.814   5.142  17.714  0.00  0.00    +0.000 A 
ATOM     12  C   UNL     1       3.220   6.300  18.387  0.00  0.00    +0.000 A 
ATOM     13  C   UNL     1       2.732   6.517  19.679  0.00  0.00    +0.000 A 
ATOM     14  C   UNL     1       1.838   5.614  20.273  0.00  0.00    +0.000 A 
BRANCH   9  15
ATOM     15  O   UNL     1       0.547   3.544  20.033  0.00  0.00    +0.000 OA
BRANCH  15  17
ATOM     16  C   UNL     1       1.939   2.565  21.688  0.00  0.00    +0.000 C 
ATOM     17  C   UNL     1       1.128   2.305  20.433  0.00  0.00    +0.000 C 
ENDBRANCH  15  17
ENDBRANCH   9  15
ENDBRANCH   1  12
BRANCH   5  18
ATOM     18  C   UNL     1       6.873   4.910  15.528  0.00  0.00    +0.000 A 
ATOM     19  C   UNL     1       5.996   3.927  15.112  0.00  0.00    +0.000 A 
ATOM     20  C   UNL     1       6.238   3.735  13.733  0.00  0.00    +0.000 A 
ATOM     21  C   UNL     1       7.239   4.614  13.394  0.00  0.00    +0.000 A 
ATOM     22  O   UNL     1       7.631   5.335  14.477  0.00  0.00    +0.000 OA
ENDBRANCH   5  18
TORSDOF 4
ENDMDL
MODEL 7
REMARK VINA RESULT:      -6.9      2.627      6.901
REMARK  Name = 
REMARK  5 active torsions:
REMARK  status: ('A' for Active; 'I' for Inactive)
REMARK    1  A    between atoms: C_1  and  C_2
REMARK    2  A    between atoms: C_2  and  O_3
REMARK    3  A    between atoms: O_3  and  C_4
REMARK    4  A    between atoms: C_7  and  N_8
REMARK    5  A    between atoms: C_12  and  C_13
REMARK                            x       y       z     vdW  Elec       q    Type
REMARK                         _______ _______ _______ _____ _____    ______ ____
ROOT
ATOM      1  N   UNL     1       4.074   7.057  17.901  0.00  0.00    +0.000 NA
ATOM      2  C   UNL     1       5.299   6.782  17.612  0.00  0.00    +0.000 C 
ATOM      3  N   UNL     1       6.167   7.678  17.057  0.00  0.00    +0.000 N 
ATOM      4  C   UNL     1       7.438   7.093  16.669  0.00  0.00    +0.000 C 
ATOM      5  C   UNL     1       7.155   5.580  16.818  0.00  0.00    +0.000 C 
ATOM      6  N   UNL     1       5.989   5.593  17.700  0.00  0.00    +0.000 N 
ATOM      7  H   UNL     1       5.835   8.567  16.714  0.00  0.00    +0.000 HD
ATOM      8  H   UNL     1       5.418   4.759  17.687  0.00  0.00    +0.000 HD
ENDROOT
BRANCH   1  12
ATOM      9  C   UNL     1       1.550   4.131  19.601  0.00  0.00    +0.000 A 
ATOM     10  C   UNL     1       1.909   5.248  20.346  0.00  0.00    +0.000 A 
ATOM     11  C   UNL     1       2.709   6.237  19.777  0.00  0.00    +0.000 A 
ATOM     12  C   UNL     1       3.244   6.086  18.492  0.00  0.00    +0.000 A 
ATOM     13  C   UNL     1       2.890   4.951  17.758  0.00  0.00    +0.000 A 
ATOM     14  C   UNL     1       2.043   3.976  18.304  0.00  0.00    +0.000 A 
BRANCH   9  15
ATOM     15  O   UNL     1       0.731   3.246  20.243  0.00  0.00    +0.000 OA
BRANCH  15  17
ATOM     16  C   UNL     1       2.628   2.405  21.396  0.00  0.00    +0.000 C 
ATOM     17  C   UNL     1       1.174   2.815  21.528  0.00  0.00    +0.000 C 
ENDBRANCH  15  17
ENDBRANCH   9  15
ENDBRANCH   1  12
BRANCH   5  18
ATOM     18  C   UNL     1       6.874   4.930  15.501  0.00  0.00    +0.000 A 
ATOM     19  C   UNL     1       6.013   3.922  15.114  0.00  0.00    +0.000 A 
ATOM     20  C   UNL     1       6.237   3.714  13.734  0.00  0.00    +0.000 A 
ATOM     21  C   UNL     1       7.213   4.611  13.367  0.00  0.00    +0.000 A 
ATOM     22  O   UNL     1       7.604   5.357  14.432  0.00  0.00    +0.000 OA
ENDBRANCH   5  18
TORSDOF 4
ENDMDL
MODEL 8
REMARK VINA RESULT:      -6.8      3.763      5.554
REMARK  Name = 
REMARK  5 active torsions:
REMARK  status: ('A' for Active; 'I' for Inactive)
REMARK    1  A    between atoms: C_1  and  C_2
REMARK    2  A    between atoms: C_2  and  O_3
REMARK    3  A    between atoms: O_3  and  C_4
REMARK    4  A    between atoms: C_7  and  N_8
REMARK    5  A    between atoms: C_12  and  C_13
REMARK                            x       y       z     vdW  Elec       q    Type
REMARK                         _______ _______ _______ _____ _____    ______ ____
ROOT
ATOM      1  N   UNL     1       2.918   5.751  19.952  0.00  0.00    +0.000 NA
ATOM      2  C   UNL     1       3.067   4.786  19.113  0.00  0.00    +0.000 C 
ATOM      3  N   UNL     1       3.547   3.554  19.451  0.00  0.00    +0.000 N 
ATOM      4  C   UNL     1       3.782   2.687  18.310  0.00  0.00    +0.000 C 
ATOM      5  C   UNL     1       3.626   3.667  17.124  0.00  0.00    +0.000 C 
ATOM      6  N   UNL     1       2.875   4.754  17.749  0.00  0.00    +0.000 N 
ATOM      7  H   UNL     1       3.946   3.393  20.365  0.00  0.00    +0.000 HD
ATOM      8  H   UNL     1       2.928   5.650  17.284  0.00  0.00    +0.000 HD
ENDROOT
BRANCH   1  12
ATOM      9  C   UNL     1       1.419   9.477  18.651  0.00  0.00    +0.000 A 
ATOM     10  C   UNL     1       1.105   9.015  19.924  0.00  0.00    +0.000 A 
ATOM     11  C   UNL     1       1.629   7.805  20.374  0.00  0.00    +0.000 A 
ATOM     12  C   UNL     1       2.395   6.989  19.533  0.00  0.00    +0.000 A 
ATOM     13  C   UNL     1       2.691   7.456  18.250  0.00  0.00    +0.000 A 
ATOM     14  C   UNL     1       2.211   8.698  17.807  0.00  0.00    +0.000 A 
BRANCH   9  15
ATOM     15  O   UNL     1       0.884  10.692  18.330  0.00  0.00    +0.000 OA
BRANCH  15  17
ATOM     16  C   UNL     1       2.438  12.485  18.242  0.00  0.00    +0.000 C 
ATOM     17  C   UNL     1       1.374  11.801  19.079  0.00  0.00    +0.000 C 
ENDBRANCH  15  17
ENDBRANCH   9  15
ENDBRANCH   1  12
BRANCH   5  18
ATOM     18  C   UNL     1       4.949   4.114  16.589  0.00  0.00    +0.000 A 
ATOM     19  C   UNL     1       5.397   4.414  15.318  0.00  0.00    +0.000 A 
ATOM     20  C   UNL     1       6.768   4.731  15.443  0.00  0.00    +0.000 A 
ATOM     21  C   UNL     1       7.067   4.612  16.780  0.00  0.00    +0.000 A 
ATOM     22  O   UNL     1       5.968   4.240  17.486  0.00  0.00    +0.000 OA
ENDBRANCH   5  18
TORSDOF 4
ENDMDL
MODEL 9
REMARK VINA RESULT:      -6.8      3.787      5.625
REMARK  Name = 
REMARK  5 active torsions:
REMARK  status: ('A' for Active; 'I' for Inactive)
REMARK    1  A    between atoms: C_1  and  C_2
REMARK    2  A    between atoms: C_2  and  O_3
REMARK    3  A    between atoms: O_3  and  C_4
REMARK    4  A    between atoms: C_7  and  N_8
REMARK    5  A    between atoms: C_12  and  C_13
REMARK                            x       y       z     vdW  Elec       q    Type
REMARK                         _______ _______ _______ _____ _____    ______ ____
ROOT
ATOM      1  N   UNL     1       2.965   5.781  19.942  0.00  0.00    +0.000 NA
ATOM      2  C   UNL     1       3.094   4.817  19.097  0.00  0.00    +0.000 C 
ATOM      3  N   UNL     1       3.572   3.581  19.423  0.00  0.00    +0.000 N 
ATOM      4  C   UNL     1       3.783   2.717  18.275  0.00  0.00    +0.000 C 
ATOM      5  C   UNL     1       3.616   3.702  17.095  0.00  0.00    +0.000 C 
ATOM      6  N   UNL     1       2.881   4.792  17.736  0.00  0.00    +0.000 N 
ATOM      7  H   UNL     1       3.984   3.414  20.330  0.00  0.00    +0.000 HD
ATOM      8  H   UNL     1       2.933   5.689  17.273  0.00  0.00    +0.000 HD
ENDROOT
BRANCH   1  12
ATOM      9  C   UNL     1       1.334   9.493  18.768  0.00  0.00    +0.000 A 
ATOM     10  C   UNL     1       2.115   8.770  17.873  0.00  0.00    +0.000 A 
ATOM     11  C   UNL     1       2.623   7.526  18.241  0.00  0.00    +0.000 A 
ATOM     12  C   UNL     1       2.444   7.023  19.535  0.00  0.00    +0.000 A 
ATOM     13  C   UNL     1       1.670   7.766  20.431  0.00  0.00    +0.000 A 
ATOM     14  C   UNL     1       1.111   8.996  20.052  0.00  0.00    +0.000 A 
BRANCH   9  15
ATOM     15  O   UNL     1       0.855  10.680  18.288  0.00  0.00    +0.000 OA
BRANCH  15  17
ATOM     16  C   UNL     1       2.366  12.511  18.315  0.00  0.00    +0.000 C 
ATOM     17  C   UNL     1       1.214  11.838  19.037  0.00  0.00    +0.000 C 
ENDBRANCH  15  17
ENDBRANCH   9  15
ENDBRANCH   1  12
BRANCH   5  18
ATOM     18  C   UNL     1       4.933   4.142  16.542  0.00  0.00    +0.000 A 
ATOM     19  C   UNL     1       5.352   4.487  15.272  0.00  0.00    +0.000 A 
ATOM     20  C   UNL     1       6.733   4.769  15.370  0.00  0.00    +0.000 A 
ATOM     21  C   UNL     1       7.067   4.585  16.692  0.00  0.00    +0.000 A 
ATOM     22  O   UNL     1       5.980   4.207  17.413  0.00  0.00    +0.000 OA
ENDBRANCH   5  18
TORSDOF 4
ENDMDL
