MODEL 1
REMARK VINA RESULT:      -7.8      0.000      0.000
REMARK  Name = 
REMARK  7 active torsions:
REMARK  status: ('A' for Active; 'I' for Inactive)
REMARK    1  A    between atoms: C_1  and  O_2
REMARK    2  A    between atoms: O_2  and  C_3
REMARK    3  A    between atoms: C_6  and  C_7
REMARK    4  A    between atoms: C_7  and  N_8
REMARK    5  A    between atoms: C_16  and  C_17
REMARK    6  A    between atoms: C_19  and  C_20
REMARK    7  A    between atoms: C_20  and  N_21
REMARK                            x       y       z     vdW  Elec       q    Type
REMARK                         _______ _______ _______ _____ _____    ______ ____
ROOT
ATOM      1  C   UNL     1       2.906   3.783  19.464  0.00  0.00    +0.000 A 
ATOM      2  C   UNL     1       1.652   3.849  20.070  0.00  0.00    +0.000 A 
ATOM      3  C   UNL     1       1.170   5.088  20.517  0.00  0.00    +0.000 A 
ATOM      4  C   UNL     1       1.927   6.264  20.368  0.00  0.00    +0.000 A 
ATOM      5  C   UNL     1       3.083   6.195  19.586  0.00  0.00    +0.000 A 
ATOM      6  C   UNL     1       3.604   4.965  19.173  0.00  0.00    +0.000 A 
ENDROOT
BRANCH   1   8
ATOM      7  C   UNL     1       3.209   1.680  18.344  0.00  0.00    +0.000 C 
ATOM      8  O   UNL     1       3.614   2.621  19.318  0.00  0.00    +0.000 OA
ENDBRANCH   1   8
BRANCH   4   9
ATOM      9  C   UNL     1       1.687   7.562  21.124  0.00  0.00    +0.000 C 
BRANCH   9  10
ATOM     10  N   UNL     1       0.952   8.581  20.397  0.00  0.00    +0.000 NA
ATOM     11  C   UNL     1       1.512   8.936  19.095  0.00  0.00    +0.000 C 
ATOM     12  C   UNL     1       0.998  10.170  18.342  0.00  0.00    +0.000 C 
ATOM     13  C   UNL     1       0.107  11.001  19.185  0.00  0.00    +0.000 A 
ATOM     14  S   UNL     1      -0.361  12.562  18.697  0.00  0.00    +0.000 S 
ATOM     15  C   UNL     1      -1.359  12.745  20.069  0.00  0.00    +0.000 A 
ATOM     16  C   UNL     1      -1.320  11.635  20.882  0.00  0.00    +0.000 A 
ATOM     17  C   UNL     1      -0.430  10.613  20.395  0.00  0.00    +0.000 A 
ATOM     18  C   UNL     1      -0.137   9.292  21.064  0.00  0.00    +0.000 C 
ATOM     19  C   UNL     1       0.100   9.512  22.576  0.00  0.00    +0.000 C 
ENDBRANCH   9  10
ENDBRANCH   4   9
BRANCH   6  20
ATOM     20  C   UNL     1       4.978   4.931  18.535  0.00  0.00    +0.000 C 
BRANCH  20  21
ATOM     21  N   UNL     1       4.991   5.536  17.201  0.00  0.00    +0.000 NA
ATOM     22  C   UNL     1       5.449   4.661  16.108  0.00  0.00    +0.000 C 
ATOM     23  C   UNL     1       6.974   4.541  15.987  0.00  0.00    +0.000 C 
ATOM     24  O   UNL     1       7.582   5.829  15.854  0.00  0.00    +0.000 OA
ATOM     25  C   UNL     1       7.255   6.663  16.969  0.00  0.00    +0.000 C 
ATOM     26  C   UNL     1       5.737   6.803  17.171  0.00  0.00    +0.000 C 
ENDBRANCH  20  21
ENDBRANCH   6  20
TORSDOF 5
ENDMDL
MODEL 2
REMARK VINA RESULT:      -7.7      1.256      1.374
REMARK  Name = 
REMARK  7 active torsions:
REMARK  status: ('A' for Active; 'I' for Inactive)
REMARK    1  A    between atoms: C_1  and  O_2
REMARK    2  A    between atoms: O_2  and  C_3
REMARK    3  A    between atoms: C_6  and  C_7
REMARK    4  A    between atoms: C_7  and  N_8
REMARK    5  A    between atoms: C_16  and  C_17
REMARK    6  A    between atoms: C_19  and  C_20
REMARK    7  A    between atoms: C_20  and  N_21
REMARK                            x       y       z     vdW  Elec       q    Type
REMARK                         _______ _______ _______ _____ _____    ______ ____
ROOT
ATOM      1  C   UNL     1       2.306   3.127  18.122  0.00  0.00    +0.000 A 
ATOM      2  C   UNL     1       1.303   3.327  19.070  0.00  0.00    +0.000 A 
ATOM      3  C   UNL     1       1.195   4.575  19.702  0.00  0.00    +0.000 A 
ATOM      4  C   UNL     1       2.079   5.626  19.400  0.00  0.00    +0.000 A 
ATOM      5  C   UNL     1       2.940   5.456  18.313  0.00  0.00    +0.000 A 
ATOM      6  C   UNL     1       3.097   4.207  17.702  0.00  0.00    +0.000 A 
ENDROOT
BRANCH   1   8
ATOM      7  C   UNL     1       3.576   1.134  18.554  0.00  0.00    +0.000 C 
ATOM      8  O   UNL     1       2.725   1.888  17.716  0.00  0.00    +0.000 OA
ENDBRANCH   1   8
BRANCH   4   9
ATOM      9  C   UNL     1       2.296   6.862  20.260  0.00  0.00    +0.000 C 
BRANCH   9  10
ATOM     10  N   UNL     1       1.669   8.078  19.775  0.00  0.00    +0.000 NA
ATOM     11  C   UNL     1       2.096   8.505  18.443  0.00  0.00    +0.000 C 
ATOM     12  C   UNL     1       1.720   9.897  17.920  0.00  0.00    +0.000 C 
ATOM     13  C   UNL     1       1.128  10.745  18.979  0.00  0.00    +0.000 A 
ATOM     14  S   UNL     1       0.895  12.414  18.743  0.00  0.00    +0.000 S 
ATOM     15  C   UNL     1       0.152  12.576  20.270  0.00  0.00    +0.000 A 
ATOM     16  C   UNL     1       0.097  11.378  20.944  0.00  0.00    +0.000 A 
ATOM     17  C   UNL     1       0.703  10.295  20.212  0.00  0.00    +0.000 A 
ATOM     18  C   UNL     1       0.837   8.866  20.681  0.00  0.00    +0.000 C 
ATOM     19  C   UNL     1       1.321   8.839  22.149  0.00  0.00    +0.000 C 
ENDBRANCH   9  10
ENDBRANCH   4   9
BRANCH   6  20
ATOM     20  C   UNL     1       4.210   4.023  16.691  0.00  0.00    +0.000 C 
BRANCH  20  21
ATOM     21  N   UNL     1       4.993   5.244  16.491  0.00  0.00    +0.000 NA
ATOM     22  C   UNL     1       5.410   5.515  15.105  0.00  0.00    +0.000 C 
ATOM     23  C   UNL     1       6.650   4.735  14.649  0.00  0.00    +0.000 C 
ATOM     24  O   UNL     1       7.753   4.961  15.532  0.00  0.00    +0.000 OA
ATOM     25  C   UNL     1       7.417   4.587  16.871  0.00  0.00    +0.000 C 
ATOM     26  C   UNL     1       6.161   5.309  17.384  0.00  0.00    +0.000 C 
ENDBRANCH  20  21
ENDBRANCH   6  20
TORSDOF 5
ENDMDL
MODEL 3
REMARK VINA RESULT:      -7.7      1.209      1.379
REMARK  Name = 
REMARK  7 active torsions:
REMARK  status: ('A' for Active; 'I' for Inactive)
REMARK    1  A    between atoms: C_1  and  O_2
REMARK    2  A    between atoms: O_2  and  C_3
REMARK    3  A    between atoms: C_6  and  C_7
REMARK    4  A    between atoms: C_7  and  N_8
REMARK    5  A    between atoms: C_16  and  C_17
REMARK    6  A    between atoms: C_19  and  C_20
REMARK    7  A    between atoms: C_20  and  N_21
REMARK                            x       y       z     vdW  Elec       q    Type
REMARK                         _______ _______ _______ _____ _____    ______ ____
ROOT
ATOM      1  C   UNL     1       2.653   3.957  19.148  0.00  0.00    +0.000 A 
ATOM      2  C   UNL     1       1.825   4.380  20.188  0.00  0.00    +0.000 A 
ATOM      3  C   UNL     1       1.619   5.753  20.386  0.00  0.00    +0.000 A 
ATOM      4  C   UNL     1       2.232   6.711  19.559  0.00  0.00    +0.000 A 
ATOM      5  C   UNL     1       2.891   6.253  18.415  0.00  0.00    +0.000 A 
ATOM      6  C   UNL     1       3.148   4.891  18.225  0.00  0.00    +0.000 A 
ENDROOT
BRANCH   1   8
ATOM      7  C   UNL     1       4.219   2.341  19.988  0.00  0.00    +0.000 C 
ATOM      8  O   UNL     1       3.199   2.704  19.079  0.00  0.00    +0.000 OA
ENDBRANCH   1   8
BRANCH   4   9
ATOM      9  C   UNL     1       2.385   8.188  19.894  0.00  0.00    +0.000 C 
BRANCH   9  10
ATOM     10  N   UNL     1       1.145   8.932  20.013  0.00  0.00    +0.000 NA
ATOM     11  C   UNL     1       0.715   9.617  18.795  0.00  0.00    +0.000 C 
ATOM     12  C   UNL     1      -0.421  10.645  18.845  0.00  0.00    +0.000 C 
ATOM     13  C   UNL     1      -0.804  10.980  20.237  0.00  0.00    +0.000 A 
ATOM     14  S   UNL     1      -1.827  12.296  20.576  0.00  0.00    +0.000 S 
ATOM     15  C   UNL     1      -1.821  11.934  22.243  0.00  0.00    +0.000 A 
ATOM     16  C   UNL     1      -1.042  10.836  22.526  0.00  0.00    +0.000 A 
ATOM     17  C   UNL     1      -0.404  10.284  21.359  0.00  0.00    +0.000 A 
ATOM     18  C   UNL     1       0.535   9.103  21.330  0.00  0.00    +0.000 C 
ATOM     19  C   UNL     1       1.563   9.222  22.479  0.00  0.00    +0.000 C 
ENDBRANCH   9  10
ENDBRANCH   4   9
BRANCH   6  20
ATOM     20  C   UNL     1       4.067   4.472  17.096  0.00  0.00    +0.000 C 
BRANCH  20  21
ATOM     21  N   UNL     1       5.048   5.506  16.759  0.00  0.00    +0.000 NA
ATOM     22  C   UNL     1       5.564   5.471  15.380  0.00  0.00    +0.000 C 
ATOM     23  C   UNL     1       6.678   4.442  15.143  0.00  0.00    +0.000 C 
ATOM     24  O   UNL     1       7.763   4.642  16.054  0.00  0.00    +0.000 OA
ATOM     25  C   UNL     1       7.312   4.556  17.409  0.00  0.00    +0.000 C 
ATOM     26  C   UNL     1       6.170   5.541  17.709  0.00  0.00    +0.000 C 
ENDBRANCH  20  21
ENDBRANCH   6  20
TORSDOF 5
ENDMDL
MODEL 4
REMARK VINA RESULT:      -7.4      0.730      1.162
REMARK  Name = 
REMARK  7 active torsions:
REMARK  status: ('A' for Active; 'I' for Inactive)
REMARK    1  A    between atoms: C_1  and  O_2
REMARK    2  A    between atoms: O_2  and  C_3
REMARK    3  A    between atoms: C_6  and  C_7
REMARK    4  A    between atoms: C_7  and  N_8
REMARK    5  A    between atoms: C_16  and  C_17
REMARK    6  A    between atoms: C_19  and  C_20
REMARK    7  A    between atoms: C_20  and  N_21
REMARK                            x       y       z     vdW  Elec       q    Type
REMARK                         _______ _______ _______ _____ _____    ______ ____
ROOT
ATOM      1  C   UNL     1       2.712   3.806  19.117  0.00  0.00    +0.000 A 
ATOM      2  C   UNL     1       1.843   3.845  20.206  0.00  0.00    +0.000 A 
ATOM      3  C   UNL     1       1.453   5.087  20.729  0.00  0.00    +0.000 A 
ATOM      4  C   UNL     1       1.922   6.292  20.177  0.00  0.00    +0.000 A 
ATOM      5  C   UNL     1       2.629   6.222  18.973  0.00  0.00    +0.000 A 
ATOM      6  C   UNL     1       3.068   4.996  18.463  0.00  0.00    +0.000 A 
ENDROOT
BRANCH   1   8
ATOM      7  C   UNL     1       4.266   2.072  19.708  0.00  0.00    +0.000 C 
ATOM      8  O   UNL     1       3.424   2.693  18.758  0.00  0.00    +0.000 OA
ENDBRANCH   1   8
BRANCH   4   9
ATOM      9  C   UNL     1       1.875   7.648  20.866  0.00  0.00    +0.000 C 
BRANCH   9  10
ATOM     10  N   UNL     1       1.071   8.658  20.201  0.00  0.00    +0.000 NA
ATOM     11  C   UNL     1       1.563   9.074  18.889  0.00  0.00    +0.000 C 
ATOM     12  C   UNL     1       0.971  10.308  18.197  0.00  0.00    +0.000 C 
ATOM     13  C   UNL     1       0.084  11.077  19.100  0.00  0.00    +0.000 A 
ATOM     14  S   UNL     1      -0.465  12.631  18.680  0.00  0.00    +0.000 S 
ATOM     15  C   UNL     1      -1.412  12.733  20.095  0.00  0.00    +0.000 A 
ATOM     16  C   UNL     1      -1.297  11.602  20.872  0.00  0.00    +0.000 A 
ATOM     17  C   UNL     1      -0.388  10.631  20.317  0.00  0.00    +0.000 A 
ATOM     18  C   UNL     1      -0.016   9.304  20.932  0.00  0.00    +0.000 C 
ATOM     19  C   UNL     1       0.274   9.488  22.440  0.00  0.00    +0.000 C 
ENDBRANCH   9  10
ENDBRANCH   4   9
BRANCH   6  20
ATOM     20  C   UNL     1       4.027   4.993  17.289  0.00  0.00    +0.000 C 
BRANCH  20  21
ATOM     21  N   UNL     1       5.413   4.759  17.700  0.00  0.00    +0.000 NA
ATOM     22  C   UNL     1       6.111   5.917  18.282  0.00  0.00    +0.000 C 
ATOM     23  C   UNL     1       6.662   6.912  17.252  0.00  0.00    +0.000 C 
ATOM     24  O   UNL     1       7.524   6.256  16.316  0.00  0.00    +0.000 OA
ATOM     25  C   UNL     1       6.834   5.201  15.641  0.00  0.00    +0.000 C 
ATOM     26  C   UNL     1       6.224   4.181  16.618  0.00  0.00    +0.000 C 
ENDBRANCH  20  21
ENDBRANCH   6  20
TORSDOF 5
ENDMDL
MODEL 5
REMARK VINA RESULT:      -7.4      1.409      1.744
REMARK  Name = 
REMARK  7 active torsions:
REMARK  status: ('A' for Active; 'I' for Inactive)
REMARK    1  A    between atoms: C_1  and  O_2
REMARK    2  A    between atoms: O_2  and  C_3
REMARK    3  A    between atoms: C_6  and  C_7
REMARK    4  A    between atoms: C_7  and  N_8
REMARK    5  A    between atoms: C_16  and  C_17
REMARK    6  A    between atoms: C_19  and  C_20
REMARK    7  A    between atoms: C_20  and  N_21
REMARK                            x       y       z     vdW  Elec       q    Type
REMARK                         _______ _______ _______ _____ _____    ______ ____
ROOT
ATOM      1  C   UNL     1       3.045   4.958  19.598  0.00  0.00    +0.000 A 
ATOM      2  C   UNL     1       2.246   5.572  20.562  0.00  0.00    +0.000 A 
ATOM      3  C   UNL     1       1.750   6.862  20.322  0.00  0.00    +0.000 A 
ATOM      4  C   UNL     1       2.043   7.548  19.130  0.00  0.00    +0.000 A 
ATOM      5  C   UNL     1       2.677   6.833  18.110  0.00  0.00    +0.000 A 
ATOM      6  C   UNL     1       3.220   5.566  18.346  0.00  0.00    +0.000 A 
ENDROOT
BRANCH   1   8
ATOM      7  C   UNL     1       3.293   2.704  20.390  0.00  0.00    +0.000 C 
ATOM      8  O   UNL     1       3.856   3.887  19.860  0.00  0.00    +0.000 OA
ENDBRANCH   1   8
BRANCH   4   9
ATOM      9  C   UNL     1       1.884   9.046  18.920  0.00  0.00    +0.000 C 
BRANCH   9  10
ATOM     10  N   UNL     1       0.531   9.555  19.054  0.00  0.00    +0.000 NA
ATOM     11  C   UNL     1      -0.250   9.567  17.818  0.00  0.00    +0.000 C 
ATOM     12  C   UNL     1      -1.588  10.314  17.755  0.00  0.00    +0.000 C 
ATOM     13  C   UNL     1      -1.812  11.148  18.959  0.00  0.00    +0.000 A 
ATOM     14  S   UNL     1      -3.069  12.294  19.014  0.00  0.00    +0.000 S 
ATOM     15  C   UNL     1      -2.701  12.693  20.631  0.00  0.00    +0.000 A 
ATOM     16  C   UNL     1      -1.633  11.968  21.108  0.00  0.00    +0.000 A 
ATOM     17  C   UNL     1      -1.073  11.080  20.121  0.00  0.00    +0.000 A 
ATOM     18  C   UNL     1       0.119  10.174  20.312  0.00  0.00    +0.000 C 
ATOM     19  C   UNL     1       1.255  10.943  21.026  0.00  0.00    +0.000 C 
ENDBRANCH   9  10
ENDBRANCH   4   9
BRANCH   6  20
ATOM     20  C   UNL     1       4.098   4.938  17.282  0.00  0.00    +0.000 C 
BRANCH  20  21
ATOM     21  N   UNL     1       5.206   5.811  16.883  0.00  0.00    +0.000 NA
ATOM     22  C   UNL     1       5.738   5.586  15.529  0.00  0.00    +0.000 C 
ATOM     23  C   UNL     1       6.721   4.413  15.418  0.00  0.00    +0.000 C 
ATOM     24  O   UNL     1       7.806   4.562  16.339  0.00  0.00    +0.000 OA
ATOM     25  C   UNL     1       7.323   4.657  17.682  0.00  0.00    +0.000 C 
ATOM     26  C   UNL     1       6.305   5.796  17.860  0.00  0.00    +0.000 C 
ENDBRANCH  20  21
ENDBRANCH   6  20
TORSDOF 5
ENDMDL
MODEL 6
REMARK VINA RESULT:      -7.3      1.330      1.825
REMARK  Name = 
REMARK  7 active torsions:
REMARK  status: ('A' for Active; 'I' for Inactive)
REMARK    1  A    between atoms: C_1  and  O_2
REMARK    2  A    between atoms: O_2  and  C_3
REMARK    3  A    between atoms: C_6  and  C_7
REMARK    4  A    between atoms: C_7  and  N_8
REMARK    5  A    between atoms: C_16  and  C_17
REMARK    6  A    between atoms: C_19  and  C_20
REMARK    7  A    between atoms: C_20  and  N_21
REMARK                            x       y       z     vdW  Elec       q    Type
REMARK                         _______ _______ _______ _____ _____    ______ ____
ROOT
ATOM      1  C   UNL     1       2.376   3.894  19.450  0.00  0.00    +0.000 A 
ATOM      2  C   UNL     1       1.763   4.409  20.592  0.00  0.00    +0.000 A 
ATOM      3  C   UNL     1       1.586   5.795  20.710  0.00  0.00    +0.000 A 
ATOM      4  C   UNL     1       2.017   6.676  19.702  0.00  0.00    +0.000 A 
ATOM      5  C   UNL     1       2.444   6.118  18.494  0.00  0.00    +0.000 A 
ATOM      6  C   UNL     1       2.672   4.744  18.373  0.00  0.00    +0.000 A 
ENDROOT
BRANCH   1   8
ATOM      7  C   UNL     1       4.058   2.327  20.147  0.00  0.00    +0.000 C 
ATOM      8  O   UNL     1       2.911   2.636  19.382  0.00  0.00    +0.000 OA
ENDBRANCH   1   8
BRANCH   4   9
ATOM      9  C   UNL     1       2.217   8.174  19.874  0.00  0.00    +0.000 C 
BRANCH   9  10
ATOM     10  N   UNL     1       1.008   8.944  20.099  0.00  0.00    +0.000 NA
ATOM     11  C   UNL     1       0.532   9.701  18.942  0.00  0.00    +0.000 C 
ATOM     12  C   UNL     1      -0.570  10.754  19.107  0.00  0.00    +0.000 C 
ATOM     13  C   UNL     1      -0.865  11.028  20.532  0.00  0.00    +0.000 A 
ATOM     14  S   UNL     1      -1.830  12.352  20.993  0.00  0.00    +0.000 S 
ATOM     15  C   UNL     1      -1.743  11.907  22.637  0.00  0.00    +0.000 A 
ATOM     16  C   UNL     1      -0.982  10.775  22.822  0.00  0.00    +0.000 A 
ATOM     17  C   UNL     1      -0.425  10.266  21.595  0.00  0.00    +0.000 A 
ATOM     18  C   UNL     1       0.477   9.064  21.455  0.00  0.00    +0.000 C 
ATOM     19  C   UNL     1       1.569   9.098  22.549  0.00  0.00    +0.000 C 
ENDBRANCH   9  10
ENDBRANCH   4   9
BRANCH   6  20
ATOM     20  C   UNL     1       3.358   4.223  17.125  0.00  0.00    +0.000 C 
BRANCH  20  21
ATOM     21  N   UNL     1       4.811   4.400  17.170  0.00  0.00    +0.000 NA
ATOM     22  C   UNL     1       5.282   5.792  17.259  0.00  0.00    +0.000 C 
ATOM     23  C   UNL     1       5.306   6.543  15.920  0.00  0.00    +0.000 C 
ATOM     24  O   UNL     1       6.086   5.836  14.950  0.00  0.00    +0.000 OA
ATOM     25  C   UNL     1       5.573   4.516  14.750  0.00  0.00    +0.000 C 
ATOM     26  C   UNL     1       5.490   3.715  16.059  0.00  0.00    +0.000 C 
ENDBRANCH  20  21
ENDBRANCH   6  20
TORSDOF 5
ENDMDL
MODEL 7
REMARK VINA RESULT:      -7.2      1.040      1.240
REMARK  Name = 
REMARK  7 active torsions:
REMARK  status: ('A' for Active; 'I' for Inactive)
REMARK    1  A    between atoms: C_1  and  O_2
REMARK    2  A    between atoms: O_2  and  C_3
REMARK    3  A    between atoms: C_6  and  C_7
REMARK    4  A    between atoms: C_7  and  N_8
REMARK    5  A    between atoms: C_16  and  C_17
REMARK    6  A    between atoms: C_19  and  C_20
REMARK    7  A    between atoms: C_20  and  N_21
REMARK                            x       y       z     vdW  Elec       q    Type
REMARK                         _______ _______ _______ _____ _____    ______ ____
ROOT
ATOM      1  C   UNL     1       2.484   4.323  19.019  0.00  0.00    +0.000 A 
ATOM      2  C   UNL     1       1.562   4.300  20.065  0.00  0.00    +0.000 A 
ATOM      3  C   UNL     1       1.210   5.502  20.696  0.00  0.00    +0.000 A 
ATOM      4  C   UNL     1       1.769   6.729  20.295  0.00  0.00    +0.000 A 
ATOM      5  C   UNL     1       2.533   6.742  19.125  0.00  0.00    +0.000 A 
ATOM      6  C   UNL     1       2.934   5.551  18.511  0.00  0.00    +0.000 A 
ENDROOT
BRANCH   1   8
ATOM      7  C   UNL     1       2.423   2.065  18.201  0.00  0.00    +0.000 C 
ATOM      8  O   UNL     1       3.154   3.213  18.580  0.00  0.00    +0.000 OA
ENDBRANCH   1   8
BRANCH   4   9
ATOM      9  C   UNL     1       1.756   8.009  21.119  0.00  0.00    +0.000 C 
BRANCH   9  10
ATOM     10  N   UNL     1       0.792   9.010  20.701  0.00  0.00    +0.000 NA
ATOM     11  C   UNL     1       1.057   9.616  19.397  0.00  0.00    +0.000 C 
ATOM     12  C   UNL     1       0.281  10.862  18.952  0.00  0.00    +0.000 C 
ATOM     13  C   UNL     1      -0.521  11.439  20.056  0.00  0.00    +0.000 A 
ATOM     14  S   UNL     1      -1.239  12.974  19.913  0.00  0.00    +0.000 S 
ATOM     15  C   UNL     1      -1.976  12.827  21.444  0.00  0.00    +0.000 A 
ATOM     16  C   UNL     1      -1.665  11.630  22.049  0.00  0.00    +0.000 A 
ATOM     17  C   UNL     1      -0.778  10.816  21.260  0.00  0.00    +0.000 A 
ATOM     18  C   UNL     1      -0.223   9.467  21.648  0.00  0.00    +0.000 C 
ATOM     19  C   UNL     1       0.268   9.503  23.114  0.00  0.00    +0.000 C 
ENDBRANCH   9  10
ENDBRANCH   4   9
BRANCH   6  20
ATOM     20  C   UNL     1       3.951   5.613  17.389  0.00  0.00    +0.000 C 
BRANCH  20  21
ATOM     21  N   UNL     1       5.197   6.267  17.799  0.00  0.00    +0.000 NA
ATOM     22  C   UNL     1       6.057   6.744  16.704  0.00  0.00    +0.000 C 
ATOM     23  C   UNL     1       6.927   5.657  16.058  0.00  0.00    +0.000 C 
ATOM     24  O   UNL     1       7.728   4.990  17.038  0.00  0.00    +0.000 OA
ATOM     25  C   UNL     1       6.907   4.406  18.054  0.00  0.00    +0.000 C 
ATOM     26  C   UNL     1       5.983   5.436  18.724  0.00  0.00    +0.000 C 
ENDBRANCH  20  21
ENDBRANCH   6  20
TORSDOF 5
ENDMDL
MODEL 8
REMARK VINA RESULT:      -7.2      1.911      4.213
REMARK  Name = 
REMARK  7 active torsions:
REMARK  status: ('A' for Active; 'I' for Inactive)
REMARK    1  A    between atoms: C_1  and  O_2
REMARK    2  A    between atoms: O_2  and  C_3
REMARK    3  A    between atoms: C_6  and  C_7
REMARK    4  A    between atoms: C_7  and  N_8
REMARK    5  A    between atoms: C_16  and  C_17
REMARK    6  A    between atoms: C_19  and  C_20
REMARK    7  A    between atoms: C_20  and  N_21
REMARK                            x       y       z     vdW  Elec       q    Type
REMARK                         _______ _______ _______ _____ _____    ______ ____
ROOT
ATOM      1  C   UNL     1       4.506   5.379  17.123  0.00  0.00    +0.000 A 
ATOM      2  C   UNL     1       4.987   6.688  17.115  0.00  0.00    +0.000 A 
ATOM      3  C   UNL     1       4.128   7.737  17.472  0.00  0.00    +0.000 A 
ATOM      4  C   UNL     1       2.791   7.496  17.836  0.00  0.00    +0.000 A 
ATOM      5  C   UNL     1       2.400   6.167  18.023  0.00  0.00    +0.000 A 
ATOM      6  C   UNL     1       3.225   5.109  17.627  0.00  0.00    +0.000 A 
ENDROOT
BRANCH   1   8
ATOM      7  C   UNL     1       5.419   4.471  15.095  0.00  0.00    +0.000 C 
ATOM      8  O   UNL     1       5.120   4.345  16.470  0.00  0.00    +0.000 OA
ENDBRANCH   1   8
BRANCH   4   9
ATOM      9  C   UNL     1       1.691   8.546  17.878  0.00  0.00    +0.000 C 
BRANCH   9  10
ATOM     10  N   UNL     1       1.404   9.098  19.189  0.00  0.00    +0.000 NA
ATOM     11  C   UNL     1       1.687   8.205  20.311  0.00  0.00    +0.000 C 
ATOM     12  C   UNL     1       1.191   8.552  21.720  0.00  0.00    +0.000 C 
ATOM     13  C   UNL     1       0.255   9.701  21.710  0.00  0.00    +0.000 A 
ATOM     14  S   UNL     1      -0.660  10.102  23.087  0.00  0.00    +0.000 S 
ATOM     15  C   UNL     1      -1.325  11.466  22.308  0.00  0.00    +0.000 A 
ATOM     16  C   UNL     1      -0.859  11.598  21.019  0.00  0.00    +0.000 A 
ATOM     17  C   UNL     1       0.044  10.543  20.638  0.00  0.00    +0.000 A 
ATOM     18  C   UNL     1       0.703  10.376  19.291  0.00  0.00    +0.000 C 
ATOM     19  C   UNL     1      -0.334  10.606  18.167  0.00  0.00    +0.000 C 
ENDBRANCH   9  10
ENDBRANCH   4   9
BRANCH   6  20
ATOM     20  C   UNL     1       2.661   3.702  17.632  0.00  0.00    +0.000 C 
BRANCH  20  21
ATOM     21  N   UNL     1       3.075   2.937  18.810  0.00  0.00    +0.000 NA
ATOM     22  C   UNL     1       2.170   1.848  19.214  0.00  0.00    +0.000 C 
ATOM     23  C   UNL     1       0.952   2.303  20.030  0.00  0.00    +0.000 C 
ATOM     24  O   UNL     1       1.356   3.043  21.187  0.00  0.00    +0.000 OA
ATOM     25  C   UNL     1       2.136   4.183  20.815  0.00  0.00    +0.000 C 
ATOM     26  C   UNL     1       3.360   3.803  19.964  0.00  0.00    +0.000 C 
ENDBRANCH  20  21
ENDBRANCH   6  20
TORSDOF 5
ENDMDL
MODEL 9
REMARK VINA RESULT:      -7.1      1.674      2.604
REMARK  Name = 
REMARK  7 active torsions:
REMARK  status: ('A' for Active; 'I' for Inactive)
REMARK    1  A    between atoms: C_1  and  O_2
REMARK    2  A    between atoms: O_2  and  C_3
REMARK    3  A    between atoms: C_6  and  C_7
REMARK    4  A    between atoms: C_7  and  N_8
REMARK    5  A    between atoms: C_16  and  C_17
REMARK    6  A    between atoms: C_19  and  C_20
REMARK    7  A    between atoms: C_20  and  N_21
REMARK                            x       y       z     vdW  Elec       q    Type
REMARK                         _______ _______ _______ _____ _____    ______ ____
ROOT
ATOM      1  C   UNL     1       3.056   5.779  19.359  0.00  0.00    +0.000 A 
ATOM      2  C   UNL     1       2.282   6.580  20.198  0.00  0.00    +0.000 A 
ATOM      3  C   UNL     1       1.831   7.825  19.734  0.00  0.00    +0.000 A 
ATOM      4  C   UNL     1       2.147   8.281  18.442  0.00  0.00    +0.000 A 
ATOM      5  C   UNL     1       2.753   7.377  17.565  0.00  0.00    +0.000 A 
ATOM      6  C   UNL     1       3.252   6.153  18.021  0.00  0.00    +0.000 A 
ENDROOT
BRANCH   1   8
ATOM      7  C   UNL     1       3.206   3.552  20.248  0.00  0.00    +0.000 C 
ATOM      8  O   UNL     1       3.829   4.742  19.808  0.00  0.00    +0.000 OA
ENDBRANCH   1   8
BRANCH   4   9
ATOM      9  C   UNL     1       2.040   9.725  17.973  0.00  0.00    +0.000 C 
BRANCH   9  10
ATOM     10  N   UNL     1       1.232  10.594  18.807  0.00  0.00    +0.000 NA
ATOM     11  C   UNL     1      -0.136  10.132  19.039  0.00  0.00    +0.000 C 
ATOM     12  C   UNL     1      -1.171  11.068  19.674  0.00  0.00    +0.000 C 
ATOM     13  C   UNL     1      -0.674  12.460  19.772  0.00  0.00    +0.000 A 
ATOM     14  S   UNL     1      -1.719  13.743  20.165  0.00  0.00    +0.000 S 
ATOM     15  C   UNL     1      -0.431  14.860  20.155  0.00  0.00    +0.000 A 
ATOM     16  C   UNL     1       0.768  14.259  19.847  0.00  0.00    +0.000 A 
ATOM     17  C   UNL     1       0.635  12.850  19.580  0.00  0.00    +0.000 A 
ATOM     18  C   UNL     1       1.747  11.909  19.184  0.00  0.00    +0.000 C 
ATOM     19  C   UNL     1       2.627  12.565  18.095  0.00  0.00    +0.000 C 
ENDBRANCH   9  10
ENDBRANCH   4   9
BRANCH   6  20
ATOM     20  C   UNL     1       4.105   5.318  17.087  0.00  0.00    +0.000 C 
BRANCH  20  21
ATOM     21  N   UNL     1       5.273   6.051  16.591  0.00  0.00    +0.000 NA
ATOM     22  C   UNL     1       5.812   5.593  15.300  0.00  0.00    +0.000 C 
ATOM     23  C   UNL     1       6.718   4.357  15.390  0.00  0.00    +0.000 C 
ATOM     24  O   UNL     1       7.795   4.577  16.307  0.00  0.00    +0.000 OA
ATOM     25  C   UNL     1       7.298   4.902  17.608  0.00  0.00    +0.000 C 
ATOM     26  C   UNL     1       6.353   6.115  17.587  0.00  0.00    +0.000 C 
ENDBRANCH  20  21
ENDBRANCH   6  20
TORSDOF 5
ENDMDL
