MODEL 1
REMARK VINA RESULT:      -8.3      0.000      0.000
REMARK  Name = 
REMARK  7 active torsions:
REMARK  status: ('A' for Active; 'I' for Inactive)
REMARK    1  A    between atoms: N_1  and  C_2
REMARK    2  A    between atoms: C_4  and  O_5
REMARK    3  A    between atoms: O_5  and  C_6
REMARK    4  A    between atoms: C_6  and  C_8
REMARK    5  A    between atoms: C_11  and  N_12
REMARK    6  A    between atoms: N_18  and  S_19
REMARK    7  A    between atoms: S_19  and  C_22
REMARK                            x       y       z     vdW  Elec       q    Type
REMARK                         _______ _______ _______ _____ _____    ______ ____
ROOT
ATOM      1  C   UNL     1       1.921   3.717  19.573  0.00  0.00    +0.000 A 
ATOM      2  C   UNL     1       1.069   4.576  20.226  0.00  0.00    +0.000 A 
ATOM      3  C   UNL     1       1.830   5.719  20.528  0.00  0.00    +0.000 A 
ATOM      4  N   UNL     1       3.096   5.622  20.122  0.00  0.00    +0.000 NA
ATOM      5  N   UNL     1       3.154   4.377  19.532  0.00  0.00    +0.000 N 
ENDROOT
BRANCH   1   6
ATOM      6  N   UNL     1       1.622   2.485  19.094  0.00  0.00    +0.000 N 
ATOM      7  H   UNL     1       0.882   2.382  18.401  0.00  0.00    +0.000 HD
ATOM      8  H   UNL     1       1.709   1.654  19.691  0.00  0.00    +0.000 HD
ENDBRANCH   1   6
BRANCH   5   9
ATOM      9  S   UNL     1       4.573   3.732  18.767  0.00  0.00    +0.000 S 
ATOM     10  O   UNL     1       5.238   2.919  19.769  0.00  0.00    +0.000 OA
ATOM     11  O   UNL     1       4.131   3.152  17.505  0.00  0.00    +0.000 OA
BRANCH   9  12
ATOM     12  C   UNL     1       5.646   5.112  18.407  0.00  0.00    +0.000 A 
ATOM     13  C   UNL     1       6.853   5.267  19.099  0.00  0.00    +0.000 A 
ATOM     14  C   UNL     1       7.738   6.281  18.730  0.00  0.00    +0.000 A 
ATOM     15  C   UNL     1       7.438   7.131  17.655  0.00  0.00    +0.000 A 
ATOM     16  C   UNL     1       6.242   6.962  16.957  0.00  0.00    +0.000 A 
ATOM     17  C   UNL     1       5.349   5.955  17.325  0.00  0.00    +0.000 A 
ENDBRANCH   9  12
ENDBRANCH   5   9
BRANCH   3  18
ATOM     18  O   UNL     1       1.478   6.865  21.161  0.00  0.00    +0.000 OA
BRANCH  18  19
ATOM     19  C   UNL     1       1.419   7.993  20.407  0.00  0.00    +0.000 C 
ATOM     20  O   UNL     1       1.958   8.179  19.321  0.00  0.00    +0.000 OA
BRANCH  19  21
ATOM     21  C   UNL     1       0.646   9.099  21.042  0.00  0.00    +0.000 A 
ATOM     22  C   UNL     1       0.456   9.007  22.435  0.00  0.00    +0.000 A 
ATOM     23  C   UNL     1      -0.313   9.947  23.127  0.00  0.00    +0.000 A 
ATOM     24  C   UNL     1      -0.895  11.001  22.422  0.00  0.00    +0.000 A 
ATOM     25  C   UNL     1      -0.695  11.124  21.037  0.00  0.00    +0.000 A 
ATOM     26  C   UNL     1       0.079  10.173  20.346  0.00  0.00    +0.000 A 
BRANCH  24  27
ATOM     27  N   UNL     1      -1.734  11.970  23.140  0.00  0.00    +0.000 N 
ATOM     28  O   UNL     1      -1.249  13.086  23.382  0.00  0.00    +0.000 OA
ATOM     29  O   UNL     1      -2.872  11.614  23.469  0.00  0.00    +0.000 OA
ENDBRANCH  24  27
ENDBRANCH  19  21
ENDBRANCH  18  19
ENDBRANCH   3  18
TORSDOF 7
ENDMDL
MODEL 2
REMARK VINA RESULT:      -8.2      3.464      8.782
REMARK  Name = 
REMARK  7 active torsions:
REMARK  status: ('A' for Active; 'I' for Inactive)
REMARK    1  A    between atoms: N_1  and  C_2
REMARK    2  A    between atoms: C_4  and  O_5
REMARK    3  A    between atoms: O_5  and  C_6
REMARK    4  A    between atoms: C_6  and  C_8
REMARK    5  A    between atoms: C_11  and  N_12
REMARK    6  A    between atoms: N_18  and  S_19
REMARK    7  A    between atoms: S_19  and  C_22
REMARK                            x       y       z     vdW  Elec       q    Type
REMARK                         _______ _______ _______ _____ _____    ______ ____
ROOT
ATOM      1  C   UNL     1       1.761   9.337  18.483  0.00  0.00    +0.000 A 
ATOM      2  C   UNL     1       2.313   8.078  18.508  0.00  0.00    +0.000 A 
ATOM      3  C   UNL     1       1.951   7.522  19.748  0.00  0.00    +0.000 A 
ATOM      4  N   UNL     1       1.227   8.354  20.497  0.00  0.00    +0.000 NA
ATOM      5  N   UNL     1       1.112   9.482  19.714  0.00  0.00    +0.000 N 
ENDROOT
BRANCH   1   6
ATOM      6  N   UNL     1       1.851  10.243  17.480  0.00  0.00    +0.000 N 
ATOM      7  H   UNL     1       2.095   9.931  16.541  0.00  0.00    +0.000 HD
ATOM      8  H   UNL     1       2.177  11.200  17.663  0.00  0.00    +0.000 HD
ENDBRANCH   1   6
BRANCH   5   9
ATOM      9  S   UNL     1       0.209  10.893  20.173  0.00  0.00    +0.000 S 
ATOM     10  O   UNL     1      -0.200  10.680  21.549  0.00  0.00    +0.000 OA
ATOM     11  O   UNL     1       1.028  12.041  19.804  0.00  0.00    +0.000 OA
BRANCH   9  12
ATOM     12  C   UNL     1      -1.271  10.914  19.177  0.00  0.00    +0.000 A 
ATOM     13  C   UNL     1      -1.522   9.883  18.264  0.00  0.00    +0.000 A 
ATOM     14  C   UNL     1      -2.735   9.848  17.575  0.00  0.00    +0.000 A 
ATOM     15  C   UNL     1      -3.716  10.824  17.809  0.00  0.00    +0.000 A 
ATOM     16  C   UNL     1      -3.468  11.840  18.733  0.00  0.00    +0.000 A 
ATOM     17  C   UNL     1      -2.253  11.886  19.419  0.00  0.00    +0.000 A 
ENDBRANCH   9  12
ENDBRANCH   5   9
BRANCH   3  18
ATOM     18  O   UNL     1       2.231   6.307  20.280  0.00  0.00    +0.000 OA
BRANCH  18  19
ATOM     19  C   UNL     1       2.210   5.245  19.434  0.00  0.00    +0.000 C 
ATOM     20  O   UNL     1       1.293   4.444  19.283  0.00  0.00    +0.000 OA
BRANCH  19  21
ATOM     21  C   UNL     1       3.481   5.058  18.676  0.00  0.00    +0.000 A 
ATOM     22  C   UNL     1       4.673   5.302  19.386  0.00  0.00    +0.000 A 
ATOM     23  C   UNL     1       5.920   5.229  18.759  0.00  0.00    +0.000 A 
ATOM     24  C   UNL     1       5.982   4.897  17.405  0.00  0.00    +0.000 A 
ATOM     25  C   UNL     1       4.806   4.625  16.686  0.00  0.00    +0.000 A 
ATOM     26  C   UNL     1       3.553   4.702  17.324  0.00  0.00    +0.000 A 
BRANCH  24  27
ATOM     27  N   UNL     1       7.288   4.855  16.734  0.00  0.00    +0.000 N 
ATOM     28  O   UNL     1       8.189   4.185  17.264  0.00  0.00    +0.000 OA
ATOM     29  O   UNL     1       7.418   5.498  15.685  0.00  0.00    +0.000 OA
ENDBRANCH  24  27
ENDBRANCH  19  21
ENDBRANCH  18  19
ENDBRANCH   3  18
TORSDOF 7
ENDMDL
MODEL 3
REMARK VINA RESULT:      -8.1      3.462      8.853
REMARK  Name = 
REMARK  7 active torsions:
REMARK  status: ('A' for Active; 'I' for Inactive)
REMARK    1  A    between atoms: N_1  and  C_2
REMARK    2  A    between atoms: C_4  and  O_5
REMARK    3  A    between atoms: O_5  and  C_6
REMARK    4  A    between atoms: C_6  and  C_8
REMARK    5  A    between atoms: C_11  and  N_12
REMARK    6  A    between atoms: N_18  and  S_19
REMARK    7  A    between atoms: S_19  and  C_22
REMARK                            x       y       z     vdW  Elec       q    Type
REMARK                         _______ _______ _______ _____ _____    ______ ____
ROOT
ATOM      1  C   UNL     1       0.509   8.655  21.078  0.00  0.00    +0.000 A 
ATOM      2  C   UNL     1       1.137   7.436  21.165  0.00  0.00    +0.000 A 
ATOM      3  C   UNL     1       2.049   7.395  20.095  0.00  0.00    +0.000 A 
ATOM      4  N   UNL     1       2.019   8.497  19.346  0.00  0.00    +0.000 NA
ATOM      5  N   UNL     1       1.060   9.278  19.954  0.00  0.00    +0.000 N 
ENDROOT
BRANCH   1   6
ATOM      6  N   UNL     1      -0.454   9.132  21.904  0.00  0.00    +0.000 N 
ATOM      7  H   UNL     1      -1.295   9.550  21.507  0.00  0.00    +0.000 HD
ATOM      8  H   UNL     1      -0.211   9.549  22.811  0.00  0.00    +0.000 HD
ENDBRANCH   1   6
BRANCH   5   9
ATOM      9  S   UNL     1       0.634  10.877  19.426  0.00  0.00    +0.000 S 
ATOM     10  O   UNL     1       0.474  11.672  20.630  0.00  0.00    +0.000 OA
ATOM     11  O   UNL     1       1.611  11.246  18.409  0.00  0.00    +0.000 OA
BRANCH   9  12
ATOM     12  C   UNL     1      -0.969  10.762  18.651  0.00  0.00    +0.000 A 
ATOM     13  C   UNL     1      -2.000  11.632  19.027  0.00  0.00    +0.000 A 
ATOM     14  C   UNL     1      -3.211  11.611  18.335  0.00  0.00    +0.000 A 
ATOM     15  C   UNL     1      -3.396  10.742  17.249  0.00  0.00    +0.000 A 
ATOM     16  C   UNL     1      -2.360   9.890  16.866  0.00  0.00    +0.000 A 
ATOM     17  C   UNL     1      -1.149   9.898  17.559  0.00  0.00    +0.000 A 
ENDBRANCH   9  12
ENDBRANCH   5   9
BRANCH   3  18
ATOM     18  O   UNL     1       2.920   6.426  19.721  0.00  0.00    +0.000 OA
BRANCH  18  19
ATOM     19  C   UNL     1       2.553   5.636  18.679  0.00  0.00    +0.000 C 
ATOM     20  O   UNL     1       1.508   5.005  18.569  0.00  0.00    +0.000 OA
BRANCH  19  21
ATOM     21  C   UNL     1       3.592   5.529  17.614  0.00  0.00    +0.000 A 
ATOM     22  C   UNL     1       3.870   4.231  17.143  0.00  0.00    +0.000 A 
ATOM     23  C   UNL     1       4.875   4.001  16.198  0.00  0.00    +0.000 A 
ATOM     24  C   UNL     1       5.607   5.083  15.706  0.00  0.00    +0.000 A 
ATOM     25  C   UNL     1       5.325   6.388  16.145  0.00  0.00    +0.000 A 
ATOM     26  C   UNL     1       4.314   6.612  17.098  0.00  0.00    +0.000 A 
BRANCH  24  27
ATOM     27  N   UNL     1       6.687   4.841  14.741  0.00  0.00    +0.000 N 
ATOM     28  O   UNL     1       6.523   3.940  13.904  0.00  0.00    +0.000 OA
ATOM     29  O   UNL     1       7.702   5.544  14.824  0.00  0.00    +0.000 OA
ENDBRANCH  24  27
ENDBRANCH  19  21
ENDBRANCH  18  19
ENDBRANCH   3  18
TORSDOF 7
ENDMDL
MODEL 4
REMARK VINA RESULT:      -8.1      0.690      1.303
REMARK  Name = 
REMARK  7 active torsions:
REMARK  status: ('A' for Active; 'I' for Inactive)
REMARK    1  A    between atoms: N_1  and  C_2
REMARK    2  A    between atoms: C_4  and  O_5
REMARK    3  A    between atoms: O_5  and  C_6
REMARK    4  A    between atoms: C_6  and  C_8
REMARK    5  A    between atoms: C_11  and  N_12
REMARK    6  A    between atoms: N_18  and  S_19
REMARK    7  A    between atoms: S_19  and  C_22
REMARK                            x       y       z     vdW  Elec       q    Type
REMARK                         _______ _______ _______ _____ _____    ______ ____
ROOT
ATOM      1  C   UNL     1       1.540   3.629  19.581  0.00  0.00    +0.000 A 
ATOM      2  C   UNL     1       0.850   4.646  20.195  0.00  0.00    +0.000 A 
ATOM      3  C   UNL     1       1.811   5.615  20.534  0.00  0.00    +0.000 A 
ATOM      4  N   UNL     1       3.048   5.262  20.186  0.00  0.00    +0.000 NA
ATOM      5  N   UNL     1       2.881   4.027  19.597  0.00  0.00    +0.000 N 
ENDROOT
BRANCH   1   6
ATOM      6  N   UNL     1       1.022   2.478  19.086  0.00  0.00    +0.000 N 
ATOM      7  H   UNL     1       0.919   1.670  19.697  0.00  0.00    +0.000 HD
ATOM      8  H   UNL     1       1.187   2.204  18.110  0.00  0.00    +0.000 HD
ENDBRANCH   1   6
BRANCH   5   9
ATOM      9  S   UNL     1       4.175   3.104  18.896  0.00  0.00    +0.000 S 
ATOM     10  O   UNL     1       4.944   2.577  20.009  0.00  0.00    +0.000 OA
ATOM     11  O   UNL     1       3.560   2.211  17.922  0.00  0.00    +0.000 OA
BRANCH   9  12
ATOM     12  C   UNL     1       5.224   4.253  18.024  0.00  0.00    +0.000 A 
ATOM     13  C   UNL     1       4.978   4.553  16.678  0.00  0.00    +0.000 A 
ATOM     14  C   UNL     1       5.730   5.539  16.039  0.00  0.00    +0.000 A 
ATOM     15  C   UNL     1       6.716   6.249  16.741  0.00  0.00    +0.000 A 
ATOM     16  C   UNL     1       6.946   5.960  18.086  0.00  0.00    +0.000 A 
ATOM     17  C   UNL     1       6.203   4.969  18.730  0.00  0.00    +0.000 A 
ENDBRANCH   9  12
ENDBRANCH   5   9
BRANCH   3  18
ATOM     18  O   UNL     1       1.669   6.813  21.152  0.00  0.00    +0.000 OA
BRANCH  18  19
ATOM     19  C   UNL     1       1.581   7.911  20.357  0.00  0.00    +0.000 C 
ATOM     20  O   UNL     1       2.048   8.040  19.231  0.00  0.00    +0.000 OA
BRANCH  19  21
ATOM     21  C   UNL     1       0.875   9.058  20.996  0.00  0.00    +0.000 A 
ATOM     22  C   UNL     1       0.290   8.809  22.254  0.00  0.00    +0.000 A 
ATOM     23  C   UNL     1      -0.458   9.788  22.914  0.00  0.00    +0.000 A 
ATOM     24  C   UNL     1      -0.618  11.039  22.317  0.00  0.00    +0.000 A 
ATOM     25  C   UNL     1      -0.021  11.315  21.075  0.00  0.00    +0.000 A 
ATOM     26  C   UNL     1       0.730  10.324  20.416  0.00  0.00    +0.000 A 
BRANCH  24  27
ATOM     27  N   UNL     1      -1.434  12.058  22.990  0.00  0.00    +0.000 N 
ATOM     28  O   UNL     1      -2.552  11.719  23.409  0.00  0.00    +0.000 OA
ATOM     29  O   UNL     1      -0.964  13.198  23.093  0.00  0.00    +0.000 OA
ENDBRANCH  24  27
ENDBRANCH  19  21
ENDBRANCH  18  19
ENDBRANCH   3  18
TORSDOF 7
ENDMDL
MODEL 5
REMARK VINA RESULT:      -8.0      1.174      1.565
REMARK  Name = 
REMARK  7 active torsions:
REMARK  status: ('A' for Active; 'I' for Inactive)
REMARK    1  A    between atoms: N_1  and  C_2
REMARK    2  A    between atoms: C_4  and  O_5
REMARK    3  A    between atoms: O_5  and  C_6
REMARK    4  A    between atoms: C_6  and  C_8
REMARK    5  A    between atoms: C_11  and  N_12
REMARK    6  A    between atoms: N_18  and  S_19
REMARK    7  A    between atoms: S_19  and  C_22
REMARK                            x       y       z     vdW  Elec       q    Type
REMARK                         _______ _______ _______ _____ _____    ______ ____
ROOT
ATOM      1  C   UNL     1       1.852   4.230  20.077  0.00  0.00    +0.000 A 
ATOM      2  C   UNL     1       1.425   5.459  20.518  0.00  0.00    +0.000 A 
ATOM      3  C   UNL     1       2.412   6.377  20.116  0.00  0.00    +0.000 A 
ATOM      4  N   UNL     1       3.425   5.800  19.472  0.00  0.00    +0.000 NA
ATOM      5  N   UNL     1       3.080   4.465  19.450  0.00  0.00    +0.000 N 
ENDROOT
BRANCH   1   6
ATOM      6  N   UNL     1       1.217   3.043  20.240  0.00  0.00    +0.000 N 
ATOM      7  H   UNL     1       0.296   3.022  20.675  0.00  0.00    +0.000 HD
ATOM      8  H   UNL     1       1.748   2.183  20.423  0.00  0.00    +0.000 HD
ENDBRANCH   1   6
BRANCH   5   9
ATOM      9  S   UNL     1       4.025   3.231  18.675  0.00  0.00    +0.000 S 
ATOM     10  O   UNL     1       4.849   2.641  19.715  0.00  0.00    +0.000 OA
ATOM     11  O   UNL     1       3.089   2.418  17.910  0.00  0.00    +0.000 OA
BRANCH   9  12
ATOM     12  C   UNL     1       5.122   4.053  17.533  0.00  0.00    +0.000 A 
ATOM     13  C   UNL     1       6.388   4.479  17.953  0.00  0.00    +0.000 A 
ATOM     14  C   UNL     1       7.282   5.015  17.024  0.00  0.00    +0.000 A 
ATOM     15  C   UNL     1       6.931   5.107  15.669  0.00  0.00    +0.000 A 
ATOM     16  C   UNL     1       5.675   4.665  15.252  0.00  0.00    +0.000 A 
ATOM     17  C   UNL     1       4.772   4.136  16.177  0.00  0.00    +0.000 A 
ENDBRANCH   9  12
ENDBRANCH   5   9
BRANCH   3  18
ATOM     18  O   UNL     1       2.486   7.719  20.293  0.00  0.00    +0.000 OA
BRANCH  18  19
ATOM     19  C   UNL     1       1.564   8.478  19.645  0.00  0.00    +0.000 C 
ATOM     20  O   UNL     1       1.413   8.573  18.432  0.00  0.00    +0.000 OA
BRANCH  19  21
ATOM     21  C   UNL     1       0.710   9.291  20.557  0.00  0.00    +0.000 A 
ATOM     22  C   UNL     1       0.539  10.646  20.209  0.00  0.00    +0.000 A 
ATOM     23  C   UNL     1      -0.181  11.521  21.028  0.00  0.00    +0.000 A 
ATOM     24  C   UNL     1      -0.749  11.038  22.207  0.00  0.00    +0.000 A 
ATOM     25  C   UNL     1      -0.612   9.684  22.558  0.00  0.00    +0.000 A 
ATOM     26  C   UNL     1       0.116   8.809  21.730  0.00  0.00    +0.000 A 
BRANCH  24  27
ATOM     27  N   UNL     1      -1.474  11.963  23.088  0.00  0.00    +0.000 N 
ATOM     28  O   UNL     1      -0.924  13.037  23.377  0.00  0.00    +0.000 OA
ATOM     29  O   UNL     1      -2.588  11.614  23.498  0.00  0.00    +0.000 OA
ENDBRANCH  24  27
ENDBRANCH  19  21
ENDBRANCH  18  19
ENDBRANCH   3  18
TORSDOF 7
ENDMDL
MODEL 6
REMARK VINA RESULT:      -7.8      2.329      2.848
REMARK  Name = 
REMARK  7 active torsions:
REMARK  status: ('A' for Active; 'I' for Inactive)
REMARK    1  A    between atoms: N_1  and  C_2
REMARK    2  A    between atoms: C_4  and  O_5
REMARK    3  A    between atoms: O_5  and  C_6
REMARK    4  A    between atoms: C_6  and  C_8
REMARK    5  A    between atoms: C_11  and  N_12
REMARK    6  A    between atoms: N_18  and  S_19
REMARK    7  A    between atoms: S_19  and  C_22
REMARK                            x       y       z     vdW  Elec       q    Type
REMARK                         _______ _______ _______ _____ _____    ______ ____
ROOT
ATOM      1  C   UNL     1       1.783   4.980  20.213  0.00  0.00    +0.000 A 
ATOM      2  C   UNL     1       1.532   6.281  20.575  0.00  0.00    +0.000 A 
ATOM      3  C   UNL     1       2.204   7.080  19.633  0.00  0.00    +0.000 A 
ATOM      4  N   UNL     1       2.864   6.365  18.723  0.00  0.00    +0.000 NA
ATOM      5  N   UNL     1       2.606   5.060  19.085  0.00  0.00    +0.000 N 
ENDROOT
BRANCH   1   6
ATOM      6  N   UNL     1       1.338   3.863  20.838  0.00  0.00    +0.000 N 
ATOM      7  H   UNL     1       0.356   3.602  20.762  0.00  0.00    +0.000 HD
ATOM      8  H   UNL     1       1.746   3.562  21.732  0.00  0.00    +0.000 HD
ENDBRANCH   1   6
BRANCH   5   9
ATOM      9  S   UNL     1       3.181   3.677  18.204  0.00  0.00    +0.000 S 
ATOM     10  O   UNL     1       3.455   2.652  19.195  0.00  0.00    +0.000 OA
ATOM     11  O   UNL     1       2.219   3.446  17.134  0.00  0.00    +0.000 OA
BRANCH   9  12
ATOM     12  C   UNL     1       4.741   4.136  17.471  0.00  0.00    +0.000 A 
ATOM     13  C   UNL     1       5.850   4.407  18.282  0.00  0.00    +0.000 A 
ATOM     14  C   UNL     1       7.093   4.650  17.696  0.00  0.00    +0.000 A 
ATOM     15  C   UNL     1       7.246   4.602  16.302  0.00  0.00    +0.000 A 
ATOM     16  C   UNL     1       6.142   4.315  15.499  0.00  0.00    +0.000 A 
ATOM     17  C   UNL     1       4.893   4.079  16.077  0.00  0.00    +0.000 A 
ENDBRANCH   9  12
ENDBRANCH   5   9
BRANCH   3  18
ATOM     18  O   UNL     1       2.283   8.429  19.524  0.00  0.00    +0.000 OA
BRANCH  18  19
ATOM     19  C   UNL     1       1.734   8.992  18.417  0.00  0.00    +0.000 C 
ATOM     20  O   UNL     1       2.198   8.984  17.281  0.00  0.00    +0.000 OA
BRANCH  19  21
ATOM     21  C   UNL     1       0.461   9.721  18.684  0.00  0.00    +0.000 A 
ATOM     22  C   UNL     1      -0.527   9.641  17.683  0.00  0.00    +0.000 A 
ATOM     23  C   UNL     1      -1.731  10.342  17.792  0.00  0.00    +0.000 A 
ATOM     24  C   UNL     1      -1.960  11.129  18.921  0.00  0.00    +0.000 A 
ATOM     25  C   UNL     1      -0.998  11.201  19.943  0.00  0.00    +0.000 A 
ATOM     26  C   UNL     1       0.213  10.493  19.825  0.00  0.00    +0.000 A 
BRANCH  24  27
ATOM     27  N   UNL     1      -3.209  11.896  19.022  0.00  0.00    +0.000 N 
ATOM     28  O   UNL     1      -4.012  11.819  18.079  0.00  0.00    +0.000 OA
ATOM     29  O   UNL     1      -3.383  12.583  20.037  0.00  0.00    +0.000 OA
ENDBRANCH  24  27
ENDBRANCH  19  21
ENDBRANCH  18  19
ENDBRANCH   3  18
TORSDOF 7
ENDMDL
MODEL 7
REMARK VINA RESULT:      -7.8      0.631      1.526
REMARK  Name = 
REMARK  7 active torsions:
REMARK  status: ('A' for Active; 'I' for Inactive)
REMARK    1  A    between atoms: N_1  and  C_2
REMARK    2  A    between atoms: C_4  and  O_5
REMARK    3  A    between atoms: O_5  and  C_6
REMARK    4  A    between atoms: C_6  and  C_8
REMARK    5  A    between atoms: C_11  and  N_12
REMARK    6  A    between atoms: N_18  and  S_19
REMARK    7  A    between atoms: S_19  and  C_22
REMARK                            x       y       z     vdW  Elec       q    Type
REMARK                         _______ _______ _______ _____ _____    ______ ____
ROOT
ATOM      1  C   UNL     1       1.714   3.506  19.721  0.00  0.00    +0.000 A 
ATOM      2  C   UNL     1       0.964   4.457  20.371  0.00  0.00    +0.000 A 
ATOM      3  C   UNL     1       1.833   5.537  20.608  0.00  0.00    +0.000 A 
ATOM      4  N   UNL     1       3.069   5.315  20.164  0.00  0.00    +0.000 NA
ATOM      5  N   UNL     1       2.997   4.052  19.616  0.00  0.00    +0.000 N 
ENDROOT
BRANCH   1   6
ATOM      6  N   UNL     1       1.292   2.291  19.295  0.00  0.00    +0.000 N 
ATOM      7  H   UNL     1       1.831   1.460  19.532  0.00  0.00    +0.000 HD
ATOM      8  H   UNL     1       0.804   2.189  18.397  0.00  0.00    +0.000 HD
ENDBRANCH   1   6
BRANCH   5   9
ATOM      9  S   UNL     1       4.326   3.260  18.828  0.00  0.00    +0.000 S 
ATOM     10  O   UNL     1       5.083   2.601  19.876  0.00  0.00    +0.000 OA
ATOM     11  O   UNL     1       3.754   2.498  17.725  0.00  0.00    +0.000 OA
BRANCH   9  12
ATOM     12  C   UNL     1       5.368   4.539  18.147  0.00  0.00    +0.000 A 
ATOM     13  C   UNL     1       5.008   5.183  16.956  0.00  0.00    +0.000 A 
ATOM     14  C   UNL     1       5.767   6.260  16.495  0.00  0.00    +0.000 A 
ATOM     15  C   UNL     1       6.872   6.718  17.228  0.00  0.00    +0.000 A 
ATOM     16  C   UNL     1       7.216   6.085  18.422  0.00  0.00    +0.000 A 
ATOM     17  C   UNL     1       6.467   5.002  18.886  0.00  0.00    +0.000 A 
ENDBRANCH   9  12
ENDBRANCH   5   9
BRANCH   3  18
ATOM     18  O   UNL     1       1.605   6.729  21.213  0.00  0.00    +0.000 OA
BRANCH  18  19
ATOM     19  C   UNL     1       1.510   7.820  20.409  0.00  0.00    +0.000 C 
ATOM     20  O   UNL     1       2.055   7.981  19.322  0.00  0.00    +0.000 OA
BRANCH  19  21
ATOM     21  C   UNL     1       0.682   8.918  20.985  0.00  0.00    +0.000 A 
ATOM     22  C   UNL     1       0.494  10.052  20.170  0.00  0.00    +0.000 A 
ATOM     23  C   UNL     1      -0.203  11.172  20.632  0.00  0.00    +0.000 A 
ATOM     24  C   UNL     1      -0.730  11.159  21.924  0.00  0.00    +0.000 A 
ATOM     25  C   UNL     1      -0.576  10.028  22.743  0.00  0.00    +0.000 A 
ATOM     26  C   UNL     1       0.128   8.904  22.271  0.00  0.00    +0.000 A 
BRANCH  24  27
ATOM     27  N   UNL     1      -1.431  12.348  22.426  0.00  0.00    +0.000 N 
ATOM     28  O   UNL     1      -2.150  12.215  23.429  0.00  0.00    +0.000 OA
ATOM     29  O   UNL     1      -1.272  13.413  21.815  0.00  0.00    +0.000 OA
ENDBRANCH  24  27
ENDBRANCH  19  21
ENDBRANCH  18  19
ENDBRANCH   3  18
TORSDOF 7
ENDMDL
MODEL 8
REMARK VINA RESULT:      -7.8      6.063      8.771
REMARK  Name = 
REMARK  7 active torsions:
REMARK  status: ('A' for Active; 'I' for Inactive)
REMARK    1  A    between atoms: N_1  and  C_2
REMARK    2  A    between atoms: C_4  and  O_5
REMARK    3  A    between atoms: O_5  and  C_6
REMARK    4  A    between atoms: C_6  and  C_8
REMARK    5  A    between atoms: C_11  and  N_12
REMARK    6  A    between atoms: N_18  and  S_19
REMARK    7  A    between atoms: S_19  and  C_22
REMARK                            x       y       z     vdW  Elec       q    Type
REMARK                         _______ _______ _______ _____ _____    ______ ____
ROOT
ATOM      1  C   UNL     1       7.690   6.398  18.451  0.00  0.00    +0.000 A 
ATOM      2  C   UNL     1       8.422   7.524  18.743  0.00  0.00    +0.000 A 
ATOM      3  C   UNL     1       8.023   8.496  17.807  0.00  0.00    +0.000 A 
ATOM      4  N   UNL     1       7.108   8.045  16.949  0.00  0.00    +0.000 NA
ATOM      5  N   UNL     1       6.903   6.741  17.347  0.00  0.00    +0.000 N 
ENDROOT
BRANCH   1   6
ATOM      6  N   UNL     1       7.743   5.207  19.094  0.00  0.00    +0.000 N 
ATOM      7  H   UNL     1       7.613   5.174  20.104  0.00  0.00    +0.000 HD
ATOM      8  H   UNL     1       8.364   4.458  18.763  0.00  0.00    +0.000 HD
ENDBRANCH   1   6
BRANCH   5   9
ATOM      9  S   UNL     1       5.753   5.671  16.606  0.00  0.00    +0.000 S 
ATOM     10  O   UNL     1       5.334   6.318  15.376  0.00  0.00    +0.000 OA
ATOM     11  O   UNL     1       6.375   4.353  16.584  0.00  0.00    +0.000 OA
BRANCH   9  12
ATOM     12  C   UNL     1       4.331   5.605  17.681  0.00  0.00    +0.000 A 
ATOM     13  C   UNL     1       4.144   4.514  18.537  0.00  0.00    +0.000 A 
ATOM     14  C   UNL     1       3.094   4.527  19.456  0.00  0.00    +0.000 A 
ATOM     15  C   UNL     1       2.239   5.636  19.546  0.00  0.00    +0.000 A 
ATOM     16  C   UNL     1       2.440   6.729  18.702  0.00  0.00    +0.000 A 
ATOM     17  C   UNL     1       3.483   6.719  17.775  0.00  0.00    +0.000 A 
ENDBRANCH   9  12
ENDBRANCH   5   9
BRANCH   3  18
ATOM     18  O   UNL     1       8.428   9.780  17.649  0.00  0.00    +0.000 OA
BRANCH  18  19
ATOM     19  C   UNL     1       9.153  10.326  18.659  0.00  0.00    +0.000 C 
ATOM     20  O   UNL     1       9.311   9.863  19.784  0.00  0.00    +0.000 OA
BRANCH  19  21
ATOM     21  C   UNL     1       9.754  11.648  18.319  0.00  0.00    +0.000 A 
ATOM     22  C   UNL     1       8.862  12.736  18.236  0.00  0.00    +0.000 A 
ATOM     23  C   UNL     1       9.300  14.007  17.854  0.00  0.00    +0.000 A 
ATOM     24  C   UNL     1      10.650  14.201  17.559  0.00  0.00    +0.000 A 
ATOM     25  C   UNL     1      11.559  13.135  17.661  0.00  0.00    +0.000 A 
ATOM     26  C   UNL     1      11.111  11.857  18.045  0.00  0.00    +0.000 A 
BRANCH  24  27
ATOM     27  N   UNL     1      11.107  15.527  17.122  0.00  0.00    +0.000 N 
ATOM     28  O   UNL     1      12.305  15.656  16.824  0.00  0.00    +0.000 OA
ATOM     29  O   UNL     1      10.274  16.441  17.084  0.00  0.00    +0.000 OA
ENDBRANCH  24  27
ENDBRANCH  19  21
ENDBRANCH  18  19
ENDBRANCH   3  18
TORSDOF 7
ENDMDL
MODEL 9
REMARK VINA RESULT:      -7.8      3.441      8.946
REMARK  Name = 
REMARK  7 active torsions:
REMARK  status: ('A' for Active; 'I' for Inactive)
REMARK    1  A    between atoms: N_1  and  C_2
REMARK    2  A    between atoms: C_4  and  O_5
REMARK    3  A    between atoms: O_5  and  C_6
REMARK    4  A    between atoms: C_6  and  C_8
REMARK    5  A    between atoms: C_11  and  N_12
REMARK    6  A    between atoms: N_18  and  S_19
REMARK    7  A    between atoms: S_19  and  C_22
REMARK                            x       y       z     vdW  Elec       q    Type
REMARK                         _______ _______ _______ _____ _____    ______ ____
ROOT
ATOM      1  C   UNL     1       1.326   8.490  20.866  0.00  0.00    +0.000 A 
ATOM      2  C   UNL     1       1.692   7.170  20.757  0.00  0.00    +0.000 A 
ATOM      3  C   UNL     1       2.075   6.985  19.417  0.00  0.00    +0.000 A 
ATOM      4  N   UNL     1       1.958   8.093  18.686  0.00  0.00    +0.000 NA
ATOM      5  N   UNL     1       1.489   9.028  19.585  0.00  0.00    +0.000 N 
ENDROOT
BRANCH   1   6
ATOM      6  N   UNL     1       0.883   9.121  21.981  0.00  0.00    +0.000 N 
ATOM      7  H   UNL     1      -0.054   9.521  21.993  0.00  0.00    +0.000 HD
ATOM      8  H   UNL     1       1.532   9.644  22.582  0.00  0.00    +0.000 HD
ENDBRANCH   1   6
BRANCH   5   9
ATOM      9  S   UNL     1       1.200  10.694  19.189  0.00  0.00    +0.000 S 
ATOM     10  O   UNL     1       1.270  11.425  20.441  0.00  0.00    +0.000 OA
ATOM     11  O   UNL     1       2.096  11.014  18.085  0.00  0.00    +0.000 OA
BRANCH   9  12
ATOM     12  C   UNL     1      -0.480  10.808  18.601  0.00  0.00    +0.000 A 
ATOM     13  C   UNL     1      -0.959   9.898  17.650  0.00  0.00    +0.000 A 
ATOM     14  C   UNL     1      -2.305   9.922  17.285  0.00  0.00    +0.000 A 
ATOM     15  C   UNL     1      -3.189  10.835  17.880  0.00  0.00    +0.000 A 
ATOM     16  C   UNL     1      -2.711  11.728  18.840  0.00  0.00    +0.000 A 
ATOM     17  C   UNL     1      -1.364  11.715  19.205  0.00  0.00    +0.000 A 
ENDBRANCH   9  12
ENDBRANCH   5   9
BRANCH   3  18
ATOM     18  O   UNL     1       2.522   5.876  18.778  0.00  0.00    +0.000 OA
BRANCH  18  19
ATOM     19  C   UNL     1       3.839   5.575  18.913  0.00  0.00    +0.000 C 
ATOM     20  O   UNL     1       4.457   5.441  19.963  0.00  0.00    +0.000 OA
BRANCH  19  21
ATOM     21  C   UNL     1       4.563   5.458  17.614  0.00  0.00    +0.000 A 
ATOM     22  C   UNL     1       5.333   4.292  17.432  0.00  0.00    +0.000 A 
ATOM     23  C   UNL     1       6.111   4.107  16.285  0.00  0.00    +0.000 A 
ATOM     24  C   UNL     1       6.115   5.095  15.300  0.00  0.00    +0.000 A 
ATOM     25  C   UNL     1       5.334   6.253  15.451  0.00  0.00    +0.000 A 
ATOM     26  C   UNL     1       4.554   6.433  16.609  0.00  0.00    +0.000 A 
BRANCH  24  27
ATOM     27  N   UNL     1       6.960   4.921  14.111  0.00  0.00    +0.000 N 
ATOM     28  O   UNL     1       6.568   4.134  13.234  0.00  0.00    +0.000 OA
ATOM     29  O   UNL     1       8.017   5.561  14.056  0.00  0.00    +0.000 OA
ENDBRANCH  24  27
ENDBRANCH  19  21
ENDBRANCH  18  19
ENDBRANCH   3  18
TORSDOF 7
ENDMDL
