MODEL 1
REMARK VINA RESULT:      -6.4      0.000      0.000
REMARK  Name = 
REMARK  8 active torsions:
REMARK  status: ('A' for Active; 'I' for Inactive)
REMARK    1  A    between atoms: C_1  and  N_2
REMARK    2  A    between atoms: N_4  and  C_5
REMARK    3  A    between atoms: N_7  and  C_8
REMARK    4  A    between atoms: C_8  and  C_9
REMARK    5  A    between atoms: C_9  and  C_10
REMARK    6  A    between atoms: C_10  and  C_11
REMARK    7  A    between atoms: C_11  and  C_12
REMARK    8  A    between atoms: C_15  and  C_16
REMARK                            x       y       z     vdW  Elec       q    Type
REMARK                         _______ _______ _______ _____ _____    ______ ____
ROOT
ATOM      1  C   UNL     1       6.938   7.056  17.724  0.00  0.00    +0.000 C 
ENDROOT
BRANCH   1   6
ATOM      2  C   UNL     1       6.384   4.053  13.845  0.00  0.00    +0.000 C 
ATOM      3  N   UNL     1       6.656   5.285  14.565  0.00  0.00    +0.000 N 
ATOM      4  C   UNL     1       6.565   5.362  15.928  0.00  0.00    +0.000 C 
ATOM      5  N   UNL     1       6.090   4.342  16.577  0.00  0.00    +0.000 NA
ATOM      6  N   UNL     1       7.031   6.587  16.355  0.00  0.00    +0.000 N 
ATOM      7  H   UNL     1       7.196   5.973  14.063  0.00  0.00    +0.000 HD
ATOM      8  H   UNL     1       7.084   7.315  15.654  0.00  0.00    +0.000 HD
BRANCH   5   9
ATOM      9  C   UNL     1       5.950   4.332  17.899  0.00  0.00    +0.000 C 
ATOM     10  N   UNL     1       5.834   4.339  19.056  0.00  0.00    +0.000 NA
ENDBRANCH   5   9
ENDBRANCH   1   6
BRANCH   1  11
ATOM     11  C   UNL     1       8.225   7.672  18.270  0.00  0.00    +0.000 C 
BRANCH  11  12
ATOM     12  C   UNL     1       8.219   9.164  17.904  0.00  0.00    +0.000 C 
BRANCH  12  13
ATOM     13  C   UNL     1       9.029  10.035  18.858  0.00  0.00    +0.000 C 
BRANCH  13  14
ATOM     14  C   UNL     1       9.448  11.308  18.203  0.00  0.00    +0.000 A 
ATOM     15  C   UNL     1       8.676  12.388  17.831  0.00  0.00    +0.000 A 
ATOM     16  N   UNL     1       9.545  13.271  17.253  0.00  0.00    +0.000 N 
ATOM     17  C   UNL     1      10.797  12.714  17.288  0.00  0.00    +0.000 A 
ATOM     18  C   UNL     1      11.993  13.403  16.745  0.00  0.00    +0.000 C 
ATOM     19  N   UNL     1      10.762  11.527  17.857  0.00  0.00    +0.000 NA
ATOM     20  H   UNL     1       9.311  14.174  16.864  0.00  0.00    +0.000 HD
ENDBRANCH  13  14
ENDBRANCH  12  13
ENDBRANCH  11  12
ENDBRANCH   1  11
TORSDOF 6
ENDMDL
MODEL 2
REMARK VINA RESULT:      -6.3      3.470      6.462
REMARK  Name = 
REMARK  8 active torsions:
REMARK  status: ('A' for Active; 'I' for Inactive)
REMARK    1  A    between atoms: C_1  and  N_2
REMARK    2  A    between atoms: N_4  and  C_5
REMARK    3  A    between atoms: N_7  and  C_8
REMARK    4  A    between atoms: C_8  and  C_9
REMARK    5  A    between atoms: C_9  and  C_10
REMARK    6  A    between atoms: C_10  and  C_11
REMARK    7  A    between atoms: C_11  and  C_12
REMARK    8  A    between atoms: C_15  and  C_16
REMARK                            x       y       z     vdW  Elec       q    Type
REMARK                         _______ _______ _______ _____ _____    ______ ____
ROOT
ATOM      1  C   UNL     1       3.502   4.180  18.778  0.00  0.00    +0.000 C 
ENDROOT
BRANCH   1   6
ATOM      2  C   UNL     1       1.323   7.968  21.073  0.00  0.00    +0.000 C 
ATOM      3  N   UNL     1       2.317   7.269  20.278  0.00  0.00    +0.000 N 
ATOM      4  C   UNL     1       2.240   5.922  20.044  0.00  0.00    +0.000 C 
ATOM      5  N   UNL     1       1.329   5.236  20.666  0.00  0.00    +0.000 NA
ATOM      6  N   UNL     1       3.207   5.554  19.134  0.00  0.00    +0.000 N 
ATOM      7  H   UNL     1       2.875   7.848  19.669  0.00  0.00    +0.000 HD
ATOM      8  H   UNL     1       3.973   6.205  19.007  0.00  0.00    +0.000 HD
BRANCH   5   9
ATOM      9  C   UNL     1       1.190   3.923  20.513  0.00  0.00    +0.000 C 
ATOM     10  N   UNL     1       1.065   2.776  20.364  0.00  0.00    +0.000 NA
ENDBRANCH   5   9
ENDBRANCH   1   6
BRANCH   1  11
ATOM     11  C   UNL     1       3.400   3.879  17.284  0.00  0.00    +0.000 C 
BRANCH  11  12
ATOM     12  C   UNL     1       4.827   3.852  16.715  0.00  0.00    +0.000 C 
BRANCH  12  13
ATOM     13  C   UNL     1       5.267   5.174  16.095  0.00  0.00    +0.000 C 
BRANCH  13  14
ATOM     14  C   UNL     1       6.294   5.851  16.939  0.00  0.00    +0.000 A 
ATOM     15  C   UNL     1       7.049   5.334  17.969  0.00  0.00    +0.000 A 
ATOM     16  N   UNL     1       7.810   6.377  18.419  0.00  0.00    +0.000 N 
ATOM     17  C   UNL     1       7.501   7.479  17.664  0.00  0.00    +0.000 A 
ATOM     18  C   UNL     1       8.145   8.798  17.877  0.00  0.00    +0.000 C 
ATOM     19  N   UNL     1       6.586   7.185  16.765  0.00  0.00    +0.000 NA
ATOM     20  H   UNL     1       8.481   6.348  19.174  0.00  0.00    +0.000 HD
ENDBRANCH  13  14
ENDBRANCH  12  13
ENDBRANCH  11  12
ENDBRANCH   1  11
TORSDOF 6
ENDMDL
MODEL 3
REMARK VINA RESULT:      -6.2      2.931      7.709
REMARK  Name = 
REMARK  8 active torsions:
REMARK  status: ('A' for Active; 'I' for Inactive)
REMARK    1  A    between atoms: C_1  and  N_2
REMARK    2  A    between atoms: N_4  and  C_5
REMARK    3  A    between atoms: N_7  and  C_8
REMARK    4  A    between atoms: C_8  and  C_9
REMARK    5  A    between atoms: C_9  and  C_10
REMARK    6  A    between atoms: C_10  and  C_11
REMARK    7  A    between atoms: C_11  and  C_12
REMARK    8  A    between atoms: C_15  and  C_16
REMARK                            x       y       z     vdW  Elec       q    Type
REMARK                         _______ _______ _______ _____ _____    ______ ____
ROOT
ATOM      1  C   UNL     1       6.665   4.621  16.499  0.00  0.00    +0.000 C 
ENDROOT
BRANCH   1   6
ATOM      2  C   UNL     1       8.197   9.102  17.894  0.00  0.00    +0.000 C 
ATOM      3  N   UNL     1       7.922   7.993  16.997  0.00  0.00    +0.000 N 
ATOM      4  C   UNL     1       7.405   6.809  17.448  0.00  0.00    +0.000 C 
ATOM      5  N   UNL     1       7.288   6.630  18.729  0.00  0.00    +0.000 NA
ATOM      6  N   UNL     1       7.092   6.002  16.376  0.00  0.00    +0.000 N 
ATOM      7  H   UNL     1       7.840   8.231  16.021  0.00  0.00    +0.000 HD
ATOM      8  H   UNL     1       7.530   6.239  15.494  0.00  0.00    +0.000 HD
BRANCH   5   9
ATOM      9  C   UNL     1       6.812   5.508  19.259  0.00  0.00    +0.000 C 
ATOM     10  N   UNL     1       6.404   4.517  19.712  0.00  0.00    +0.000 NA
ENDBRANCH   5   9
ENDBRANCH   1   6
BRANCH   1  11
ATOM     11  C   UNL     1       5.344   4.304  15.803  0.00  0.00    +0.000 C 
BRANCH  11  12
ATOM     12  C   UNL     1       4.296   4.033  16.893  0.00  0.00    +0.000 C 
BRANCH  12  13
ATOM     13  C   UNL     1       3.629   5.293  17.434  0.00  0.00    +0.000 C 
BRANCH  13  14
ATOM     14  C   UNL     1       3.081   5.070  18.803  0.00  0.00    +0.000 A 
ATOM     15  C   UNL     1       2.640   5.996  19.723  0.00  0.00    +0.000 A 
ATOM     16  N   UNL     1       2.267   5.268  20.819  0.00  0.00    +0.000 N 
ATOM     17  C   UNL     1       2.489   3.944  20.540  0.00  0.00    +0.000 A 
ATOM     18  C   UNL     1       2.193   2.863  21.511  0.00  0.00    +0.000 C 
ATOM     19  N   UNL     1       2.982   3.801  19.327  0.00  0.00    +0.000 NA
ATOM     20  H   UNL     1       1.896   5.635  21.684  0.00  0.00    +0.000 HD
ENDBRANCH  13  14
ENDBRANCH  12  13
ENDBRANCH  11  12
ENDBRANCH   1  11
TORSDOF 6
ENDMDL
MODEL 4
REMARK VINA RESULT:      -6.2      0.865      2.163
REMARK  Name = 
REMARK  8 active torsions:
REMARK  status: ('A' for Active; 'I' for Inactive)
REMARK    1  A    between atoms: C_1  and  N_2
REMARK    2  A    between atoms: N_4  and  C_5
REMARK    3  A    between atoms: N_7  and  C_8
REMARK    4  A    between atoms: C_8  and  C_9
REMARK    5  A    between atoms: C_9  and  C_10
REMARK    6  A    between atoms: C_10  and  C_11
REMARK    7  A    between atoms: C_11  and  C_12
REMARK    8  A    between atoms: C_15  and  C_16
REMARK                            x       y       z     vdW  Elec       q    Type
REMARK                         _______ _______ _______ _____ _____    ______ ____
ROOT
ATOM      1  C   UNL     1       6.827   7.188  17.142  0.00  0.00    +0.000 C 
ENDROOT
BRANCH   1   6
ATOM      2  C   UNL     1       4.209   3.124  18.142  0.00  0.00    +0.000 C 
ATOM      3  N   UNL     1       4.768   4.449  18.347  0.00  0.00    +0.000 N 
ATOM      4  C   UNL     1       5.614   5.026  17.439  0.00  0.00    +0.000 C 
ATOM      5  N   UNL     1       6.031   4.311  16.439  0.00  0.00    +0.000 NA
ATOM      6  N   UNL     1       5.858   6.334  17.800  0.00  0.00    +0.000 N 
ATOM      7  H   UNL     1       4.280   5.030  19.012  0.00  0.00    +0.000 HD
ATOM      8  H   UNL     1       5.651   6.579  18.761  0.00  0.00    +0.000 HD
BRANCH   5   9
ATOM      9  C   UNL     1       6.866   4.782  15.517  0.00  0.00    +0.000 C 
ATOM     10  N   UNL     1       7.590   5.209  14.713  0.00  0.00    +0.000 NA
ENDBRANCH   5   9
ENDBRANCH   1   6
BRANCH   1  11
ATOM     11  C   UNL     1       7.925   7.723  18.059  0.00  0.00    +0.000 C 
BRANCH  11  12
ATOM     12  C   UNL     1       8.007   9.243  17.850  0.00  0.00    +0.000 C 
BRANCH  12  13
ATOM     13  C   UNL     1       9.032   9.933  18.743  0.00  0.00    +0.000 C 
BRANCH  13  14
ATOM     14  C   UNL     1       9.478  11.228  18.152  0.00  0.00    +0.000 A 
ATOM     15  C   UNL     1       8.720  12.313  17.767  0.00  0.00    +0.000 A 
ATOM     16  N   UNL     1       9.613  13.219  17.268  0.00  0.00    +0.000 N 
ATOM     17  C   UNL     1      10.867  12.670  17.361  0.00  0.00    +0.000 A 
ATOM     18  C   UNL     1      12.086  13.383  16.911  0.00  0.00    +0.000 C 
ATOM     19  N   UNL     1      10.808  11.466  17.892  0.00  0.00    +0.000 NA
ATOM     20  H   UNL     1       9.396  14.132  16.893  0.00  0.00    +0.000 HD
ENDBRANCH  13  14
ENDBRANCH  12  13
ENDBRANCH  11  12
ENDBRANCH   1  11
TORSDOF 6
ENDMDL
MODEL 5
REMARK VINA RESULT:      -6.2      5.269      7.069
REMARK  Name = 
REMARK  8 active torsions:
REMARK  status: ('A' for Active; 'I' for Inactive)
REMARK    1  A    between atoms: C_1  and  N_2
REMARK    2  A    between atoms: N_4  and  C_5
REMARK    3  A    between atoms: N_7  and  C_8
REMARK    4  A    between atoms: C_8  and  C_9
REMARK    5  A    between atoms: C_9  and  C_10
REMARK    6  A    between atoms: C_10  and  C_11
REMARK    7  A    between atoms: C_11  and  C_12
REMARK    8  A    between atoms: C_15  and  C_16
REMARK                            x       y       z     vdW  Elec       q    Type
REMARK                         _______ _______ _______ _____ _____    ______ ____
ROOT
ATOM      1  C   UNL     1       6.254   5.246  18.759  0.00  0.00    +0.000 C 
ENDROOT
BRANCH   1   6
ATOM      2  C   UNL     1       2.860   1.682  18.374  0.00  0.00    +0.000 C 
ATOM      3  N   UNL     1       4.164   2.279  18.605  0.00  0.00    +0.000 N 
ATOM      4  C   UNL     1       4.379   3.624  18.469  0.00  0.00    +0.000 C 
ATOM      5  N   UNL     1       3.423   4.359  17.986  0.00  0.00    +0.000 NA
ATOM      6  N   UNL     1       5.648   3.937  18.904  0.00  0.00    +0.000 N 
ATOM      7  H   UNL     1       4.806   1.726  19.152  0.00  0.00    +0.000 HD
ATOM      8  H   UNL     1       6.302   3.166  18.969  0.00  0.00    +0.000 HD
BRANCH   5   9
ATOM      9  C   UNL     1       3.546   5.670  17.804  0.00  0.00    +0.000 C 
ATOM     10  N   UNL     1       3.666   6.814  17.633  0.00  0.00    +0.000 NA
ENDBRANCH   5   9
ENDBRANCH   1   6
BRANCH   1  11
ATOM     11  C   UNL     1       7.636   5.235  18.110  0.00  0.00    +0.000 C 
BRANCH  11  12
ATOM     12  C   UNL     1       7.497   4.576  16.729  0.00  0.00    +0.000 C 
BRANCH  12  13
ATOM     13  C   UNL     1       6.703   5.407  15.727  0.00  0.00    +0.000 C 
BRANCH  13  14
ATOM     14  C   UNL     1       6.808   4.839  14.351  0.00  0.00    +0.000 A 
ATOM     15  C   UNL     1       7.687   5.168  13.342  0.00  0.00    +0.000 A 
ATOM     16  N   UNL     1       7.339   4.373  12.286  0.00  0.00    +0.000 N 
ATOM     17  C   UNL     1       6.277   3.598  12.675  0.00  0.00    +0.000 A 
ATOM     18  C   UNL     1       5.638   2.610  11.773  0.00  0.00    +0.000 C 
ATOM     19  N   UNL     1       5.938   3.865  13.919  0.00  0.00    +0.000 NA
ATOM     20  H   UNL     1       7.780   4.356  11.377  0.00  0.00    +0.000 HD
ENDBRANCH  13  14
ENDBRANCH  12  13
ENDBRANCH  11  12
ENDBRANCH   1  11
TORSDOF 6
ENDMDL
MODEL 6
REMARK VINA RESULT:      -6.2      3.327      6.056
REMARK  Name = 
REMARK  8 active torsions:
REMARK  status: ('A' for Active; 'I' for Inactive)
REMARK    1  A    between atoms: C_1  and  N_2
REMARK    2  A    between atoms: N_4  and  C_5
REMARK    3  A    between atoms: N_7  and  C_8
REMARK    4  A    between atoms: C_8  and  C_9
REMARK    5  A    between atoms: C_9  and  C_10
REMARK    6  A    between atoms: C_10  and  C_11
REMARK    7  A    between atoms: C_11  and  C_12
REMARK    8  A    between atoms: C_15  and  C_16
REMARK                            x       y       z     vdW  Elec       q    Type
REMARK                         _______ _______ _______ _____ _____    ______ ____
ROOT
ATOM      1  C   UNL     1       4.082   4.589  17.777  0.00  0.00    +0.000 C 
ENDROOT
BRANCH   1   6
ATOM      2  C   UNL     1       1.783   2.632  21.682  0.00  0.00    +0.000 C 
ATOM      3  N   UNL     1       2.567   2.665  20.460  0.00  0.00    +0.000 N 
ATOM      4  C   UNL     1       2.820   3.834  19.794  0.00  0.00    +0.000 C 
ATOM      5  N   UNL     1       2.225   4.917  20.195  0.00  0.00    +0.000 NA
ATOM      6  N   UNL     1       3.714   3.601  18.772  0.00  0.00    +0.000 N 
ATOM      7  H   UNL     1       3.156   1.864  20.298  0.00  0.00    +0.000 HD
ATOM      8  H   UNL     1       3.817   2.637  18.479  0.00  0.00    +0.000 HD
BRANCH   5   9
ATOM      9  C   UNL     1       2.397   6.094  19.600  0.00  0.00    +0.000 C 
ATOM     10  N   UNL     1       2.560   7.127  19.091  0.00  0.00    +0.000 NA
ENDBRANCH   5   9
ENDBRANCH   1   6
BRANCH   1  11
ATOM     11  C   UNL     1       4.383   4.014  16.395  0.00  0.00    +0.000 C 
BRANCH  11  12
ATOM     12  C   UNL     1       5.507   4.858  15.774  0.00  0.00    +0.000 C 
BRANCH  12  13
ATOM     13  C   UNL     1       6.896   4.519  16.302  0.00  0.00    +0.000 C 
BRANCH  13  14
ATOM     14  C   UNL     1       7.384   5.564  17.249  0.00  0.00    +0.000 A 
ATOM     15  C   UNL     1       7.740   5.436  18.574  0.00  0.00    +0.000 A 
ATOM     16  N   UNL     1       8.086   6.695  18.979  0.00  0.00    +0.000 N 
ATOM     17  C   UNL     1       7.932   7.538  17.908  0.00  0.00    +0.000 A 
ATOM     18  C   UNL     1       8.223   8.990  17.988  0.00  0.00    +0.000 C 
ATOM     19  N   UNL     1       7.507   6.876  16.853  0.00  0.00    +0.000 NA
ATOM     20  H   UNL     1       8.397   6.964  19.902  0.00  0.00    +0.000 HD
ENDBRANCH  13  14
ENDBRANCH  12  13
ENDBRANCH  11  12
ENDBRANCH   1  11
TORSDOF 6
ENDMDL
MODEL 7
REMARK VINA RESULT:      -6.1      4.885      7.564
REMARK  Name = 
REMARK  8 active torsions:
REMARK  status: ('A' for Active; 'I' for Inactive)
REMARK    1  A    between atoms: C_1  and  N_2
REMARK    2  A    between atoms: N_4  and  C_5
REMARK    3  A    between atoms: N_7  and  C_8
REMARK    4  A    between atoms: C_8  and  C_9
REMARK    5  A    between atoms: C_9  and  C_10
REMARK    6  A    between atoms: C_10  and  C_11
REMARK    7  A    between atoms: C_11  and  C_12
REMARK    8  A    between atoms: C_15  and  C_16
REMARK                            x       y       z     vdW  Elec       q    Type
REMARK                         _______ _______ _______ _____ _____    ______ ____
ROOT
ATOM      1  C   UNL     1       4.305   3.226  17.145  0.00  0.00    +0.000 C 
ENDROOT
BRANCH   1   6
ATOM      2  C   UNL     1       7.941   5.859  19.198  0.00  0.00    +0.000 C 
ATOM      3  N   UNL     1       6.678   5.146  19.113  0.00  0.00    +0.000 N 
ATOM      4  C   UNL     1       6.242   4.581  17.945  0.00  0.00    +0.000 C 
ATOM      5  N   UNL     1       6.914   4.810  16.858  0.00  0.00    +0.000 NA
ATOM      6  N   UNL     1       5.109   3.836  18.186  0.00  0.00    +0.000 N 
ATOM      7  H   UNL     1       6.296   4.830  19.991  0.00  0.00    +0.000 HD
ATOM      8  H   UNL     1       4.617   4.035  19.048  0.00  0.00    +0.000 HD
BRANCH   5   9
ATOM      9  C   UNL     1       6.558   4.316  15.675  0.00  0.00    +0.000 C 
ATOM     10  N   UNL     1       6.262   3.882  14.638  0.00  0.00    +0.000 NA
ENDBRANCH   5   9
ENDBRANCH   1   6
BRANCH   1  11
ATOM     11  C   UNL     1       3.239   2.258  17.655  0.00  0.00    +0.000 C 
BRANCH  11  12
ATOM     12  C   UNL     1       1.956   3.066  17.904  0.00  0.00    +0.000 C 
BRANCH  12  13
ATOM     13  C   UNL     1       1.775   3.504  19.353  0.00  0.00    +0.000 C 
BRANCH  13  14
ATOM     14  C   UNL     1       2.001   4.971  19.507  0.00  0.00    +0.000 A 
ATOM     15  C   UNL     1       1.968   5.739  20.651  0.00  0.00    +0.000 A 
ATOM     16  N   UNL     1       2.215   7.017  20.235  0.00  0.00    +0.000 N 
ATOM     17  C   UNL     1       2.388   6.991  18.874  0.00  0.00    +0.000 A 
ATOM     18  C   UNL     1       2.677   8.212  18.084  0.00  0.00    +0.000 C 
ATOM     19  N   UNL     1       2.261   5.764  18.414  0.00  0.00    +0.000 NA
ATOM     20  H   UNL     1       2.262   7.840  20.820  0.00  0.00    +0.000 HD
ENDBRANCH  13  14
ENDBRANCH  12  13
ENDBRANCH  11  12
ENDBRANCH   1  11
TORSDOF 6
ENDMDL
MODEL 8
REMARK VINA RESULT:      -6.1      4.768      6.530
REMARK  Name = 
REMARK  8 active torsions:
REMARK  status: ('A' for Active; 'I' for Inactive)
REMARK    1  A    between atoms: C_1  and  N_2
REMARK    2  A    between atoms: N_4  and  C_5
REMARK    3  A    between atoms: N_7  and  C_8
REMARK    4  A    between atoms: C_8  and  C_9
REMARK    5  A    between atoms: C_9  and  C_10
REMARK    6  A    between atoms: C_10  and  C_11
REMARK    7  A    between atoms: C_11  and  C_12
REMARK    8  A    between atoms: C_15  and  C_16
REMARK                            x       y       z     vdW  Elec       q    Type
REMARK                         _______ _______ _______ _____ _____    ______ ____
ROOT
ATOM      1  C   UNL     1       5.999   5.489  19.275  0.00  0.00    +0.000 C 
ENDROOT
BRANCH   1   6
ATOM      2  C   UNL     1       3.314   1.418  18.512  0.00  0.00    +0.000 C 
ATOM      3  N   UNL     1       4.501   2.224  18.738  0.00  0.00    +0.000 N 
ATOM      4  C   UNL     1       4.440   3.587  18.844  0.00  0.00    +0.000 C 
ATOM      5  N   UNL     1       3.311   4.179  18.599  0.00  0.00    +0.000 NA
ATOM      6  N   UNL     1       5.673   4.078  19.218  0.00  0.00    +0.000 N 
ATOM      7  H   UNL     1       5.299   1.732  19.109  0.00  0.00    +0.000 HD
ATOM      8  H   UNL     1       6.462   3.460  19.076  0.00  0.00    +0.000 HD
BRANCH   5   9
ATOM      9  C   UNL     1       3.161   5.499  18.662  0.00  0.00    +0.000 C 
ATOM     10  N   UNL     1       3.042   6.655  18.705  0.00  0.00    +0.000 NA
ENDBRANCH   5   9
ENDBRANCH   1   6
BRANCH   1  11
ATOM     11  C   UNL     1       7.465   5.812  18.997  0.00  0.00    +0.000 C 
BRANCH  11  12
ATOM     12  C   UNL     1       7.602   6.098  17.493  0.00  0.00    +0.000 C 
BRANCH  12  13
ATOM     13  C   UNL     1       6.277   6.071  16.738  0.00  0.00    +0.000 C 
BRANCH  13  14
ATOM     14  C   UNL     1       6.342   5.147  15.568  0.00  0.00    +0.000 A 
ATOM     15  C   UNL     1       5.905   3.844  15.466  0.00  0.00    +0.000 A 
ATOM     16  N   UNL     1       6.226   3.454  14.197  0.00  0.00    +0.000 N 
ATOM     17  C   UNL     1       6.839   4.511  13.573  0.00  0.00    +0.000 A 
ATOM     18  C   UNL     1       7.322   4.440  12.173  0.00  0.00    +0.000 C 
ATOM     19  N   UNL     1       6.920   5.544  14.385  0.00  0.00    +0.000 NA
ATOM     20  H   UNL     1       6.049   2.548  13.785  0.00  0.00    +0.000 HD
ENDBRANCH  13  14
ENDBRANCH  12  13
ENDBRANCH  11  12
ENDBRANCH   1  11
TORSDOF 6
ENDMDL
MODEL 9
REMARK VINA RESULT:      -6.1      5.218      7.754
REMARK  Name = 
REMARK  8 active torsions:
REMARK  status: ('A' for Active; 'I' for Inactive)
REMARK    1  A    between atoms: C_1  and  N_2
REMARK    2  A    between atoms: N_4  and  C_5
REMARK    3  A    between atoms: N_7  and  C_8
REMARK    4  A    between atoms: C_8  and  C_9
REMARK    5  A    between atoms: C_9  and  C_10
REMARK    6  A    between atoms: C_10  and  C_11
REMARK    7  A    between atoms: C_11  and  C_12
REMARK    8  A    between atoms: C_15  and  C_16
REMARK                            x       y       z     vdW  Elec       q    Type
REMARK                         _______ _______ _______ _____ _____    ______ ____
ROOT
ATOM      1  C   UNL     1       4.601   6.976  17.606  0.00  0.00    +0.000 C 
ENDROOT
BRANCH   1   6
ATOM      2  C   UNL     1       6.317   3.863  14.180  0.00  0.00    +0.000 C 
ATOM      3  N   UNL     1       5.507   4.928  14.746  0.00  0.00    +0.000 N 
ATOM      4  C   UNL     1       5.597   5.283  16.064  0.00  0.00    +0.000 C 
ATOM      5  N   UNL     1       6.327   4.556  16.854  0.00  0.00    +0.000 NA
ATOM      6  N   UNL     1       4.847   6.417  16.291  0.00  0.00    +0.000 N 
ATOM      7  H   UNL     1       5.114   5.577  14.082  0.00  0.00    +0.000 HD
ATOM      8  H   UNL     1       4.147   6.637  15.593  0.00  0.00    +0.000 HD
BRANCH   5   9
ATOM      9  C   UNL     1       6.461   4.815  18.152  0.00  0.00    +0.000 C 
ATOM     10  N   UNL     1       6.563   5.041  19.288  0.00  0.00    +0.000 NA
ENDBRANCH   5   9
ENDBRANCH   1   6
BRANCH   1  11
ATOM     11  C   UNL     1       3.143   7.337  17.877  0.00  0.00    +0.000 C 
BRANCH  11  12
ATOM     12  C   UNL     1       2.543   6.227  18.753  0.00  0.00    +0.000 C 
BRANCH  12  13
ATOM     13  C   UNL     1       2.048   5.019  17.964  0.00  0.00    +0.000 C 
BRANCH  13  14
ATOM     14  C   UNL     1       2.857   3.804  18.272  0.00  0.00    +0.000 A 
ATOM     15  C   UNL     1       3.199   2.756  17.445  0.00  0.00    +0.000 A 
ATOM     16  N   UNL     1       3.921   1.899  18.227  0.00  0.00    +0.000 N 
ATOM     17  C   UNL     1       3.995   2.439  19.485  0.00  0.00    +0.000 A 
ATOM     18  C   UNL     1       4.712   1.771  20.599  0.00  0.00    +0.000 C 
ATOM     19  N   UNL     1       3.358   3.589  19.535  0.00  0.00    +0.000 NA
ATOM     20  H   UNL     1       4.328   1.021  17.936  0.00  0.00    +0.000 HD
ENDBRANCH  13  14
ENDBRANCH  12  13
ENDBRANCH  11  12
ENDBRANCH   1  11
TORSDOF 6
ENDMDL
