MODEL 1
REMARK VINA RESULT:      -8.1      0.000      0.000
REMARK  Name = 
REMARK  7 active torsions:
REMARK  status: ('A' for Active; 'I' for Inactive)
REMARK    1  A    between atoms: C_2  and  C_20
REMARK    2  A    between atoms: N_3  and  C_4
REMARK    3  A    between atoms: C_4  and  C_5
REMARK    4  A    between atoms: C_8  and  N_9
REMARK    5  A    between atoms: N_9  and  C_10
REMARK    6  A    between atoms: C_10  and  C_11
REMARK    7  A    between atoms: C_18  and  O_19
REMARK                            x       y       z     vdW  Elec       q    Type
REMARK                         _______ _______ _______ _____ _____    ______ ____
ROOT
ATOM      1  C   UNL     1       2.905   2.312  20.064  0.00  0.00    +0.000 C 
ATOM      2  O   UNL     1       2.520   2.306  21.461  0.00  0.00    +0.000 OA
ATOM      3  C   UNL     1       1.552   3.349  21.670  0.00  0.00    +0.000 C 
ATOM      4  C   UNL     1       1.599   4.300  20.464  0.00  0.00    +0.000 C 
ATOM      5  C   UNL     1       1.997   3.323  19.360  0.00  0.00    +0.000 C 
ENDROOT
BRANCH   4   6
ATOM      6  N   UNL     1       2.573   5.381  20.698  0.00  0.00    +0.000 NA
ATOM      7  H   UNL     1       2.168   6.072  21.334  0.00  0.00    +0.000 HD
BRANCH   6   8
ATOM      8  C   UNL     1       2.938   6.074  19.459  0.00  0.00    +0.000 C 
BRANCH   8   9
ATOM      9  C   UNL     1       2.236   7.409  19.363  0.00  0.00    +0.000 A 
ATOM     10  C   UNL     1       2.191   8.103  18.141  0.00  0.00    +0.000 A 
ATOM     11  C   UNL     1       1.528   9.327  18.045  0.00  0.00    +0.000 A 
ATOM     12  C   UNL     1       0.905   9.856  19.168  0.00  0.00    +0.000 A 
ATOM     13  F   UNL     1       0.267  11.030  19.075  0.00  0.00    +0.000 F 
ATOM     14  C   UNL     1       0.930   9.184  20.384  0.00  0.00    +0.000 A 
ATOM     15  C   UNL     1       1.595   7.961  20.484  0.00  0.00    +0.000 A 
ENDBRANCH   8   9
ENDBRANCH   6   8
ENDBRANCH   4   6
BRANCH   5  16
ATOM     16  O   UNL     1       0.814   2.686  18.856  0.00  0.00    +0.000 OA
ATOM     17  H   UNL     1       0.275   2.391  19.611  0.00  0.00    +0.000 HD
ENDBRANCH   5  16
BRANCH   1  18
ATOM     18  C   UNL     1       4.393   2.663  19.945  0.00  0.00    +0.000 C 
BRANCH  18  21
ATOM     19  O   UNL     1       6.240   4.741  19.449  0.00  0.00    +0.000 OA
ATOM     20  C   UNL     1       5.622   4.255  18.509  0.00  0.00    +0.000 C 
ATOM     21  N   UNL     1       4.688   3.252  18.646  0.00  0.00    +0.000 N 
ATOM     22  H   UNL     1       4.445   2.690  17.839  0.00  0.00    +0.000 HD
BRANCH  20  23
ATOM     23  C   UNL     1       5.872   4.743  17.128  0.00  0.00    +0.000 A 
ATOM     24  C   UNL     1       7.055   4.366  16.492  0.00  0.00    +0.000 A 
ATOM     25  C   UNL     1       7.296   4.859  15.223  0.00  0.00    +0.000 A 
ATOM     26  N   UNL     1       6.454   5.690  14.573  0.00  0.00    +0.000 NA
ATOM     27  C   UNL     1       5.328   6.056  15.221  0.00  0.00    +0.000 A 
ATOM     28  C   UNL     1       4.989   5.613  16.487  0.00  0.00    +0.000 A 
ENDBRANCH  20  23
ENDBRANCH  18  21
ENDBRANCH   1  18
TORSDOF 7
ENDMDL
MODEL 2
REMARK VINA RESULT:      -8.1      0.827      1.170
REMARK  Name = 
REMARK  7 active torsions:
REMARK  status: ('A' for Active; 'I' for Inactive)
REMARK    1  A    between atoms: C_2  and  C_20
REMARK    2  A    between atoms: N_3  and  C_4
REMARK    3  A    between atoms: C_4  and  C_5
REMARK    4  A    between atoms: C_8  and  N_9
REMARK    5  A    between atoms: N_9  and  C_10
REMARK    6  A    between atoms: C_10  and  C_11
REMARK    7  A    between atoms: C_18  and  O_19
REMARK                            x       y       z     vdW  Elec       q    Type
REMARK                         _______ _______ _______ _____ _____    ______ ____
ROOT
ATOM      1  C   UNL     1       2.646   2.242  19.901  0.00  0.00    +0.000 C 
ATOM      2  O   UNL     1       2.050   2.928  21.029  0.00  0.00    +0.000 OA
ATOM      3  C   UNL     1       1.153   3.934  20.528  0.00  0.00    +0.000 C 
ATOM      4  C   UNL     1       1.467   4.163  19.041  0.00  0.00    +0.000 C 
ATOM      5  C   UNL     1       1.947   2.768  18.645  0.00  0.00    +0.000 C 
ENDROOT
BRANCH   4   6
ATOM      6  N   UNL     1       2.480   5.221  18.885  0.00  0.00    +0.000 NA
ATOM      7  H   UNL     1       3.408   4.797  18.816  0.00  0.00    +0.000 HD
BRANCH   6   8
ATOM      8  C   UNL     1       2.493   6.146  20.021  0.00  0.00    +0.000 C 
BRANCH   8   9
ATOM      9  C   UNL     1       2.042   7.524  19.597  0.00  0.00    +0.000 A 
ATOM     10  C   UNL     1       2.303   7.988  18.295  0.00  0.00    +0.000 A 
ATOM     11  C   UNL     1       1.872   9.253  17.893  0.00  0.00    +0.000 A 
ATOM     12  C   UNL     1       1.175  10.053  18.790  0.00  0.00    +0.000 A 
ATOM     13  F   UNL     1       0.760  11.267  18.403  0.00  0.00    +0.000 F 
ATOM     14  C   UNL     1       0.900   9.613  20.079  0.00  0.00    +0.000 A 
ATOM     15  C   UNL     1       1.333   8.349  20.484  0.00  0.00    +0.000 A 
ENDBRANCH   8   9
ENDBRANCH   6   8
ENDBRANCH   4   6
BRANCH   5  16
ATOM     16  O   UNL     1       0.807   1.962  18.317  0.00  0.00    +0.000 OA
ATOM     17  H   UNL     1       0.514   2.190  17.417  0.00  0.00    +0.000 HD
ENDBRANCH   5  16
BRANCH   1  18
ATOM     18  C   UNL     1       4.159   2.493  19.890  0.00  0.00    +0.000 C 
BRANCH  18  21
ATOM     19  O   UNL     1       5.768   4.748  19.341  0.00  0.00    +0.000 OA
ATOM     20  C   UNL     1       5.406   4.033  18.414  0.00  0.00    +0.000 C 
ATOM     21  N   UNL     1       4.608   2.922  18.572  0.00  0.00    +0.000 N 
ATOM     22  H   UNL     1       4.597   2.215  17.848  0.00  0.00    +0.000 HD
BRANCH  20  23
ATOM     23  C   UNL     1       5.840   4.345  17.028  0.00  0.00    +0.000 A 
ATOM     24  C   UNL     1       4.912   4.213  15.994  0.00  0.00    +0.000 A 
ATOM     25  C   UNL     1       5.339   4.466  14.703  0.00  0.00    +0.000 A 
ATOM     26  N   UNL     1       6.602   4.825  14.390  0.00  0.00    +0.000 NA
ATOM     27  C   UNL     1       7.482   4.925  15.409  0.00  0.00    +0.000 A 
ATOM     28  C   UNL     1       7.156   4.701  16.733  0.00  0.00    +0.000 A 
ENDBRANCH  20  23
ENDBRANCH  18  21
ENDBRANCH   1  18
TORSDOF 7
ENDMDL
MODEL 3
REMARK VINA RESULT:      -8.0      0.433      1.413
REMARK  Name = 
REMARK  7 active torsions:
REMARK  status: ('A' for Active; 'I' for Inactive)
REMARK    1  A    between atoms: C_2  and  C_20
REMARK    2  A    between atoms: N_3  and  C_4
REMARK    3  A    between atoms: C_4  and  C_5
REMARK    4  A    between atoms: C_8  and  N_9
REMARK    5  A    between atoms: N_9  and  C_10
REMARK    6  A    between atoms: C_10  and  C_11
REMARK    7  A    between atoms: C_18  and  O_19
REMARK                            x       y       z     vdW  Elec       q    Type
REMARK                         _______ _______ _______ _____ _____    ______ ____
ROOT
ATOM      1  C   UNL     1       3.468   2.277  20.419  0.00  0.00    +0.000 C 
ATOM      2  O   UNL     1       3.002   2.464  21.778  0.00  0.00    +0.000 OA
ATOM      3  C   UNL     1       1.893   3.381  21.756  0.00  0.00    +0.000 C 
ATOM      4  C   UNL     1       1.890   4.101  20.398  0.00  0.00    +0.000 C 
ATOM      5  C   UNL     1       2.481   3.009  19.508  0.00  0.00    +0.000 C 
ENDROOT
BRANCH   4   6
ATOM      6  N   UNL     1       2.696   5.332  20.465  0.00  0.00    +0.000 NA
ATOM      7  H   UNL     1       2.279   5.976  21.141  0.00  0.00    +0.000 HD
BRANCH   6   8
ATOM      8  C   UNL     1       2.762   6.021  19.173  0.00  0.00    +0.000 C 
BRANCH   8   9
ATOM      9  C   UNL     1       2.132   7.391  19.262  0.00  0.00    +0.000 A 
ATOM     10  C   UNL     1       1.553   7.831  20.465  0.00  0.00    +0.000 A 
ATOM     11  C   UNL     1       0.987   9.103  20.557  0.00  0.00    +0.000 A 
ATOM     12  C   UNL     1       1.004   9.939  19.448  0.00  0.00    +0.000 A 
ATOM     13  F   UNL     1       0.462  11.161  19.536  0.00  0.00    +0.000 F 
ATOM     14  C   UNL     1       1.577   9.529  18.250  0.00  0.00    +0.000 A 
ATOM     15  C   UNL     1       2.142   8.255  18.155  0.00  0.00    +0.000 A 
ENDBRANCH   8   9
ENDBRANCH   6   8
ENDBRANCH   4   6
BRANCH   5  16
ATOM     16  O   UNL     1       1.425   2.133  19.086  0.00  0.00    +0.000 OA
ATOM     17  H   UNL     1       1.541   1.942  18.139  0.00  0.00    +0.000 HD
ENDBRANCH   5  16
BRANCH   1  18
ATOM     18  C   UNL     1       4.902   2.808  20.293  0.00  0.00    +0.000 C 
BRANCH  18  21
ATOM     19  O   UNL     1       6.420   5.116  19.710  0.00  0.00    +0.000 OA
ATOM     20  C   UNL     1       5.909   4.490  18.789  0.00  0.00    +0.000 C 
ATOM     21  N   UNL     1       5.138   3.363  18.967  0.00  0.00    +0.000 N 
ATOM     22  H   UNL     1       5.006   2.727  18.190  0.00  0.00    +0.000 HD
BRANCH  20  23
ATOM     23  C   UNL     1       6.119   4.934  17.387  0.00  0.00    +0.000 A 
ATOM     24  C   UNL     1       5.242   5.877  16.849  0.00  0.00    +0.000 A 
ATOM     25  C   UNL     1       5.422   6.253  15.530  0.00  0.00    +0.000 A 
ATOM     26  N   UNL     1       6.392   5.751  14.737  0.00  0.00    +0.000 NA
ATOM     27  C   UNL     1       7.212   4.825  15.278  0.00  0.00    +0.000 A 
ATOM     28  C   UNL     1       7.122   4.388  16.587  0.00  0.00    +0.000 A 
ENDBRANCH  20  23
ENDBRANCH  18  21
ENDBRANCH   1  18
TORSDOF 7
ENDMDL
MODEL 4
REMARK VINA RESULT:      -8.0      1.643      2.118
REMARK  Name = 
REMARK  7 active torsions:
REMARK  status: ('A' for Active; 'I' for Inactive)
REMARK    1  A    between atoms: C_2  and  C_20
REMARK    2  A    between atoms: N_3  and  C_4
REMARK    3  A    between atoms: C_4  and  C_5
REMARK    4  A    between atoms: C_8  and  N_9
REMARK    5  A    between atoms: N_9  and  C_10
REMARK    6  A    between atoms: C_10  and  C_11
REMARK    7  A    between atoms: C_18  and  O_19
REMARK                            x       y       z     vdW  Elec       q    Type
REMARK                         _______ _______ _______ _____ _____    ______ ____
ROOT
ATOM      1  C   UNL     1       2.498   2.179  19.325  0.00  0.00    +0.000 C 
ATOM      2  O   UNL     1       3.106   2.829  20.468  0.00  0.00    +0.000 OA
ATOM      3  C   UNL     1       2.374   4.035  20.748  0.00  0.00    +0.000 C 
ATOM      4  C   UNL     1       1.511   4.370  19.522  0.00  0.00    +0.000 C 
ATOM      5  C   UNL     1       1.229   2.966  18.993  0.00  0.00    +0.000 C 
ENDROOT
BRANCH   4   6
ATOM      6  N   UNL     1       2.255   5.233  18.588  0.00  0.00    +0.000 NA
ATOM      7  H   UNL     1       2.939   4.672  18.076  0.00  0.00    +0.000 HD
BRANCH   6   8
ATOM      8  C   UNL     1       2.981   6.301  19.281  0.00  0.00    +0.000 C 
BRANCH   8   9
ATOM      9  C   UNL     1       2.228   7.608  19.190  0.00  0.00    +0.000 A 
ATOM     10  C   UNL     1       1.585   8.139  20.323  0.00  0.00    +0.000 A 
ATOM     11  C   UNL     1       0.904   9.354  20.247  0.00  0.00    +0.000 A 
ATOM     12  C   UNL     1       0.870  10.044  19.042  0.00  0.00    +0.000 A 
ATOM     13  F   UNL     1       0.218  11.212  18.970  0.00  0.00    +0.000 F 
ATOM     14  C   UNL     1       1.504   9.543  17.911  0.00  0.00    +0.000 A 
ATOM     15  C   UNL     1       2.184   8.325  17.984  0.00  0.00    +0.000 A 
ENDBRANCH   8   9
ENDBRANCH   6   8
ENDBRANCH   4   6
BRANCH   5  16
ATOM     16  O   UNL     1       0.095   2.428  19.688  0.00  0.00    +0.000 OA
ATOM     17  H   UNL     1      -0.712   2.837  19.329  0.00  0.00    +0.000 HD
ENDBRANCH   5  16
BRANCH   1  18
ATOM     18  C   UNL     1       3.500   2.145  18.164  0.00  0.00    +0.000 C 
BRANCH  18  21
ATOM     19  O   UNL     1       4.323   4.148  16.352  0.00  0.00    +0.000 OA
ATOM     20  C   UNL     1       4.893   4.049  17.432  0.00  0.00    +0.000 C 
ATOM     21  N   UNL     1       4.580   3.097  18.377  0.00  0.00    +0.000 N 
ATOM     22  H   UNL     1       4.854   3.249  19.340  0.00  0.00    +0.000 HD
BRANCH  20  23
ATOM     23  C   UNL     1       5.983   4.996  17.782  0.00  0.00    +0.000 A 
ATOM     24  C   UNL     1       6.579   4.892  19.040  0.00  0.00    +0.000 A 
ATOM     25  C   UNL     1       7.564   5.804  19.369  0.00  0.00    +0.000 A 
ATOM     26  N   UNL     1       7.972   6.792  18.546  0.00  0.00    +0.000 NA
ATOM     27  C   UNL     1       7.364   6.882  17.344  0.00  0.00    +0.000 A 
ATOM     28  C   UNL     1       6.376   6.016  16.914  0.00  0.00    +0.000 A 
ENDBRANCH  20  23
ENDBRANCH  18  21
ENDBRANCH   1  18
TORSDOF 7
ENDMDL
MODEL 5
REMARK VINA RESULT:      -7.9      0.595      1.127
REMARK  Name = 
REMARK  7 active torsions:
REMARK  status: ('A' for Active; 'I' for Inactive)
REMARK    1  A    between atoms: C_2  and  C_20
REMARK    2  A    between atoms: N_3  and  C_4
REMARK    3  A    between atoms: C_4  and  C_5
REMARK    4  A    between atoms: C_8  and  N_9
REMARK    5  A    between atoms: N_9  and  C_10
REMARK    6  A    between atoms: C_10  and  C_11
REMARK    7  A    between atoms: C_18  and  O_19
REMARK                            x       y       z     vdW  Elec       q    Type
REMARK                         _______ _______ _______ _____ _____    ______ ____
ROOT
ATOM      1  C   UNL     1       2.837   2.269  20.000  0.00  0.00    +0.000 C 
ATOM      2  O   UNL     1       2.396   2.637  21.329  0.00  0.00    +0.000 OA
ATOM      3  C   UNL     1       1.539   3.787  21.221  0.00  0.00    +0.000 C 
ATOM      4  C   UNL     1       1.739   4.409  19.830  0.00  0.00    +0.000 C 
ATOM      5  C   UNL     1       2.074   3.160  19.017  0.00  0.00    +0.000 C 
ENDROOT
BRANCH   4   6
ATOM      6  N   UNL     1       2.813   5.417  19.866  0.00  0.00    +0.000 NA
ATOM      7  H   UNL     1       2.669   6.041  20.663  0.00  0.00    +0.000 HD
BRANCH   6   8
ATOM      8  C   UNL     1       2.840   6.239  18.653  0.00  0.00    +0.000 C 
BRANCH   8   9
ATOM      9  C   UNL     1       2.183   7.578  18.897  0.00  0.00    +0.000 A 
ATOM     10  C   UNL     1       1.679   7.901  20.169  0.00  0.00    +0.000 A 
ATOM     11  C   UNL     1       1.089   9.143  20.402  0.00  0.00    +0.000 A 
ATOM     12  C   UNL     1       1.006  10.065  19.367  0.00  0.00    +0.000 A 
ATOM     13  F   UNL     1       0.441  11.259  19.592  0.00  0.00    +0.000 F 
ATOM     14  C   UNL     1       1.504   9.771  18.104  0.00  0.00    +0.000 A 
ATOM     15  C   UNL     1       2.093   8.527  17.867  0.00  0.00    +0.000 A 
ENDBRANCH   8   9
ENDBRANCH   6   8
ENDBRANCH   4   6
BRANCH   5  16
ATOM     16  O   UNL     1       0.851   2.536  18.601  0.00  0.00    +0.000 OA
ATOM     17  H   UNL     1       0.236   3.228  18.302  0.00  0.00    +0.000 HD
ENDBRANCH   5  16
BRANCH   1  18
ATOM     18  C   UNL     1       4.359   2.437  19.900  0.00  0.00    +0.000 C 
BRANCH  18  21
ATOM     19  O   UNL     1       5.982   4.679  19.343  0.00  0.00    +0.000 OA
ATOM     20  C   UNL     1       5.558   4.004  18.413  0.00  0.00    +0.000 C 
ATOM     21  N   UNL     1       4.746   2.903  18.576  0.00  0.00    +0.000 N 
ATOM     22  H   UNL     1       4.683   2.221  17.829  0.00  0.00    +0.000 HD
BRANCH  20  23
ATOM     23  C   UNL     1       5.925   4.355  17.017  0.00  0.00    +0.000 A 
ATOM     24  C   UNL     1       7.244   4.718  16.745  0.00  0.00    +0.000 A 
ATOM     25  C   UNL     1       7.564   5.082  15.450  0.00  0.00    +0.000 A 
ATOM     26  N   UNL     1       6.670   5.114  14.440  0.00  0.00    +0.000 NA
ATOM     27  C   UNL     1       5.396   4.778  14.737  0.00  0.00    +0.000 A 
ATOM     28  C   UNL     1       4.974   4.391  15.996  0.00  0.00    +0.000 A 
ENDBRANCH  20  23
ENDBRANCH  18  21
ENDBRANCH   1  18
TORSDOF 7
ENDMDL
MODEL 6
REMARK VINA RESULT:      -7.9      3.145      6.997
REMARK  Name = 
REMARK  7 active torsions:
REMARK  status: ('A' for Active; 'I' for Inactive)
REMARK    1  A    between atoms: C_2  and  C_20
REMARK    2  A    between atoms: N_3  and  C_4
REMARK    3  A    between atoms: C_4  and  C_5
REMARK    4  A    between atoms: C_8  and  N_9
REMARK    5  A    between atoms: N_9  and  C_10
REMARK    6  A    between atoms: C_10  and  C_11
REMARK    7  A    between atoms: C_18  and  O_19
REMARK                            x       y       z     vdW  Elec       q    Type
REMARK                         _______ _______ _______ _____ _____    ______ ____
ROOT
ATOM      1  C   UNL     1       1.677   4.600  20.928  0.00  0.00    +0.000 C 
ATOM      2  O   UNL     1       0.613   4.078  20.096  0.00  0.00    +0.000 OA
ATOM      3  C   UNL     1       1.054   2.836  19.520  0.00  0.00    +0.000 C 
ATOM      4  C   UNL     1       2.580   2.747  19.677  0.00  0.00    +0.000 C 
ATOM      5  C   UNL     1       2.768   3.528  20.976  0.00  0.00    +0.000 C 
ENDROOT
BRANCH   4   6
ATOM      6  N   UNL     1       3.254   3.339  18.509  0.00  0.00    +0.000 NA
ATOM      7  H   UNL     1       3.338   2.637  17.771  0.00  0.00    +0.000 HD
BRANCH   6   8
ATOM      8  C   UNL     1       4.603   3.813  18.830  0.00  0.00    +0.000 C 
BRANCH   8   9
ATOM      9  C   UNL     1       5.366   4.157  17.572  0.00  0.00    +0.000 A 
ATOM     10  C   UNL     1       6.711   4.558  17.643  0.00  0.00    +0.000 A 
ATOM     11  C   UNL     1       7.424   4.858  16.481  0.00  0.00    +0.000 A 
ATOM     12  C   UNL     1       6.795   4.752  15.248  0.00  0.00    +0.000 A 
ATOM     13  F   UNL     1       7.479   5.037  14.132  0.00  0.00    +0.000 F 
ATOM     14  C   UNL     1       5.468   4.349  15.152  0.00  0.00    +0.000 A 
ATOM     15  C   UNL     1       4.752   4.052  16.314  0.00  0.00    +0.000 A 
ENDBRANCH   8   9
ENDBRANCH   6   8
ENDBRANCH   4   6
BRANCH   5  16
ATOM     16  O   UNL     1       2.567   2.640  22.085  0.00  0.00    +0.000 OA
ATOM     17  H   UNL     1       1.987   1.912  21.797  0.00  0.00    +0.000 HD
ENDBRANCH   5  16
BRANCH   1  18
ATOM     18  C   UNL     1       2.174   5.931  20.349  0.00  0.00    +0.000 C 
BRANCH  18  21
ATOM     19  O   UNL     1       1.710   8.507  19.289  0.00  0.00    +0.000 OA
ATOM     20  C   UNL     1       1.401   8.275  20.452  0.00  0.00    +0.000 C 
ATOM     21  N   UNL     1       1.600   7.060  21.069  0.00  0.00    +0.000 N 
ATOM     22  H   UNL     1       1.063   6.832  21.897  0.00  0.00    +0.000 HD
BRANCH  20  23
ATOM     23  C   UNL     1       0.765   9.337  21.274  0.00  0.00    +0.000 A 
ATOM     24  C   UNL     1       0.122   8.970  22.456  0.00  0.00    +0.000 A 
ATOM     25  C   UNL     1      -0.502   9.962  23.191  0.00  0.00    +0.000 A 
ATOM     26  N   UNL     1      -0.528  11.260  22.822  0.00  0.00    +0.000 NA
ATOM     27  C   UNL     1       0.084  11.582  21.663  0.00  0.00    +0.000 A 
ATOM     28  C   UNL     1       0.742  10.670  20.860  0.00  0.00    +0.000 A 
ENDBRANCH  20  23
ENDBRANCH  18  21
ENDBRANCH   1  18
TORSDOF 7
ENDMDL
MODEL 7
REMARK VINA RESULT:      -7.8      2.752      6.053
REMARK  Name = 
REMARK  7 active torsions:
REMARK  status: ('A' for Active; 'I' for Inactive)
REMARK    1  A    between atoms: C_2  and  C_20
REMARK    2  A    between atoms: N_3  and  C_4
REMARK    3  A    between atoms: C_4  and  C_5
REMARK    4  A    between atoms: C_8  and  N_9
REMARK    5  A    between atoms: N_9  and  C_10
REMARK    6  A    between atoms: C_10  and  C_11
REMARK    7  A    between atoms: C_18  and  O_19
REMARK                            x       y       z     vdW  Elec       q    Type
REMARK                         _______ _______ _______ _____ _____    ______ ____
ROOT
ATOM      1  C   UNL     1       2.007   3.902  19.351  0.00  0.00    +0.000 C 
ATOM      2  O   UNL     1       1.855   4.458  18.022  0.00  0.00    +0.000 OA
ATOM      3  C   UNL     1       2.467   3.559  17.080  0.00  0.00    +0.000 C 
ATOM      4  C   UNL     1       3.373   2.591  17.857  0.00  0.00    +0.000 C 
ATOM      5  C   UNL     1       2.614   2.508  19.180  0.00  0.00    +0.000 C 
ENDROOT
BRANCH   4   6
ATOM      6  N   UNL     1       4.735   3.138  17.972  0.00  0.00    +0.000 NA
ATOM      7  H   UNL     1       4.834   3.623  18.867  0.00  0.00    +0.000 HD
BRANCH   6   8
ATOM      8  C   UNL     1       5.037   4.099  16.907  0.00  0.00    +0.000 C 
BRANCH   8   9
ATOM      9  C   UNL     1       6.027   5.136  17.383  0.00  0.00    +0.000 A 
ATOM     10  C   UNL     1       6.054   6.415  16.800  0.00  0.00    +0.000 A 
ATOM     11  C   UNL     1       6.954   7.381  17.250  0.00  0.00    +0.000 A 
ATOM     12  C   UNL     1       7.825   7.072  18.286  0.00  0.00    +0.000 A 
ATOM     13  F   UNL     1       8.689   8.000  18.720  0.00  0.00    +0.000 F 
ATOM     14  C   UNL     1       7.812   5.817  18.883  0.00  0.00    +0.000 A 
ATOM     15  C   UNL     1       6.913   4.848  18.433  0.00  0.00    +0.000 A 
ENDBRANCH   8   9
ENDBRANCH   6   8
ENDBRANCH   4   6
BRANCH   5  16
ATOM     16  O   UNL     1       1.588   1.511  19.064  0.00  0.00    +0.000 OA
ATOM     17  H   UNL     1       1.942   0.663  19.384  0.00  0.00    +0.000 HD
ENDBRANCH   5  16
BRANCH   1  18
ATOM     18  C   UNL     1       2.882   4.834  20.199  0.00  0.00    +0.000 C 
BRANCH  18  21
ATOM     19  O   UNL     1       3.022   7.280  18.796  0.00  0.00    +0.000 OA
ATOM     20  C   UNL     1       2.293   7.196  19.777  0.00  0.00    +0.000 C 
ATOM     21  N   UNL     1       2.166   6.056  20.539  0.00  0.00    +0.000 N 
ATOM     22  H   UNL     1       1.349   5.942  21.126  0.00  0.00    +0.000 HD
BRANCH  20  23
ATOM     23  C   UNL     1       1.477   8.365  20.195  0.00  0.00    +0.000 A 
ATOM     24  C   UNL     1       0.992   8.407  21.503  0.00  0.00    +0.000 A 
ATOM     25  C   UNL     1       0.201   9.480  21.868  0.00  0.00    +0.000 A 
ATOM     26  N   UNL     1      -0.134  10.481  21.028  0.00  0.00    +0.000 NA
ATOM     27  C   UNL     1       0.332  10.404  19.763  0.00  0.00    +0.000 A 
ATOM     28  C   UNL     1       1.136   9.379  19.300  0.00  0.00    +0.000 A 
ENDBRANCH  20  23
ENDBRANCH  18  21
ENDBRANCH   1  18
TORSDOF 7
ENDMDL
MODEL 8
REMARK VINA RESULT:      -7.7      1.920      2.214
REMARK  Name = 
REMARK  7 active torsions:
REMARK  status: ('A' for Active; 'I' for Inactive)
REMARK    1  A    between atoms: C_2  and  C_20
REMARK    2  A    between atoms: N_3  and  C_4
REMARK    3  A    between atoms: C_4  and  C_5
REMARK    4  A    between atoms: C_8  and  N_9
REMARK    5  A    between atoms: N_9  and  C_10
REMARK    6  A    between atoms: C_10  and  C_11
REMARK    7  A    between atoms: C_18  and  O_19
REMARK                            x       y       z     vdW  Elec       q    Type
REMARK                         _______ _______ _______ _____ _____    ______ ____
ROOT
ATOM      1  C   UNL     1       3.282   2.128  18.531  0.00  0.00    +0.000 C 
ATOM      2  O   UNL     1       3.902   2.613  19.747  0.00  0.00    +0.000 OA
ATOM      3  C   UNL     1       2.962   3.459  20.432  0.00  0.00    +0.000 C 
ATOM      4  C   UNL     1       1.846   3.837  19.444  0.00  0.00    +0.000 C 
ATOM      5  C   UNL     1       1.823   2.589  18.565  0.00  0.00    +0.000 C 
ENDROOT
BRANCH   4   6
ATOM      6  N   UNL     1       2.191   5.078  18.728  0.00  0.00    +0.000 NA
ATOM      7  H   UNL     1       2.861   4.868  17.985  0.00  0.00    +0.000 HD
BRANCH   6   8
ATOM      8  C   UNL     1       2.801   6.075  19.612  0.00  0.00    +0.000 C 
BRANCH   8   9
ATOM      9  C   UNL     1       2.228   7.449  19.348  0.00  0.00    +0.000 A 
ATOM     10  C   UNL     1       2.398   8.060  18.094  0.00  0.00    +0.000 A 
ATOM     11  C   UNL     1       1.854   9.320  17.841  0.00  0.00    +0.000 A 
ATOM     12  C   UNL     1       1.137   9.968  18.838  0.00  0.00    +0.000 A 
ATOM     13  F   UNL     1       0.613  11.176  18.594  0.00  0.00    +0.000 F 
ATOM     14  C   UNL     1       0.950   9.379  20.083  0.00  0.00    +0.000 A 
ATOM     15  C   UNL     1       1.495   8.119  20.340  0.00  0.00    +0.000 A 
ENDBRANCH   8   9
ENDBRANCH   6   8
ENDBRANCH   4   6
BRANCH   5  16
ATOM     16  O   UNL     1       0.987   1.601  19.185  0.00  0.00    +0.000 OA
ATOM     17  H   UNL     1       0.131   1.584  18.722  0.00  0.00    +0.000 HD
ENDBRANCH   5  16
BRANCH   1  18
ATOM     18  C   UNL     1       4.048   2.665  17.316  0.00  0.00    +0.000 C 
BRANCH  18  21
ATOM     19  O   UNL     1       4.344   5.341  16.464  0.00  0.00    +0.000 OA
ATOM     20  C   UNL     1       5.149   4.876  17.262  0.00  0.00    +0.000 C 
ATOM     21  N   UNL     1       5.104   3.580  17.726  0.00  0.00    +0.000 N 
ATOM     22  H   UNL     1       5.583   3.347  18.588  0.00  0.00    +0.000 HD
BRANCH  20  23
ATOM     23  C   UNL     1       6.246   5.730  17.788  0.00  0.00    +0.000 A 
ATOM     24  C   UNL     1       6.519   6.936  17.143  0.00  0.00    +0.000 A 
ATOM     25  C   UNL     1       7.568   7.703  17.617  0.00  0.00    +0.000 A 
ATOM     26  N   UNL     1       8.343   7.343  18.661  0.00  0.00    +0.000 NA
ATOM     27  C   UNL     1       8.069   6.161  19.253  0.00  0.00    +0.000 A 
ATOM     28  C   UNL     1       7.039   5.325  18.863  0.00  0.00    +0.000 A 
ENDBRANCH  20  23
ENDBRANCH  18  21
ENDBRANCH   1  18
TORSDOF 7
ENDMDL
MODEL 9
REMARK VINA RESULT:      -7.7      2.907      6.622
REMARK  Name = 
REMARK  7 active torsions:
REMARK  status: ('A' for Active; 'I' for Inactive)
REMARK    1  A    between atoms: C_2  and  C_20
REMARK    2  A    between atoms: N_3  and  C_4
REMARK    3  A    between atoms: C_4  and  C_5
REMARK    4  A    between atoms: C_8  and  N_9
REMARK    5  A    between atoms: N_9  and  C_10
REMARK    6  A    between atoms: C_10  and  C_11
REMARK    7  A    between atoms: C_18  and  O_19
REMARK                            x       y       z     vdW  Elec       q    Type
REMARK                         _______ _______ _______ _____ _____    ______ ____
ROOT
ATOM      1  C   UNL     1       1.525   4.693  20.177  0.00  0.00    +0.000 C 
ATOM      2  O   UNL     1       1.331   4.180  18.836  0.00  0.00    +0.000 OA
ATOM      3  C   UNL     1       1.998   2.910  18.734  0.00  0.00    +0.000 C 
ATOM      4  C   UNL     1       2.968   2.778  19.918  0.00  0.00    +0.000 C 
ATOM      5  C   UNL     1       2.223   3.589  20.976  0.00  0.00    +0.000 C 
ENDROOT
BRANCH   4   6
ATOM      6  N   UNL     1       4.293   3.317  19.562  0.00  0.00    +0.000 NA
ATOM      7  H   UNL     1       4.459   4.183  20.079  0.00  0.00    +0.000 HD
BRANCH   6   8
ATOM      8  C   UNL     1       4.399   3.621  18.132  0.00  0.00    +0.000 C 
BRANCH   8   9
ATOM      9  C   UNL     1       5.354   4.769  17.898  0.00  0.00    +0.000 A 
ATOM     10  C   UNL     1       6.553   4.856  18.626  0.00  0.00    +0.000 A 
ATOM     11  C   UNL     1       7.446   5.904  18.399  0.00  0.00    +0.000 A 
ATOM     12  C   UNL     1       7.144   6.863  17.441  0.00  0.00    +0.000 A 
ATOM     13  F   UNL     1       8.001   7.868  17.221  0.00  0.00    +0.000 F 
ATOM     14  C   UNL     1       5.968   6.793  16.703  0.00  0.00    +0.000 A 
ATOM     15  C   UNL     1       5.071   5.747  16.931  0.00  0.00    +0.000 A 
ENDBRANCH   8   9
ENDBRANCH   6   8
ENDBRANCH   4   6
BRANCH   5  16
ATOM     16  O   UNL     1       1.264   2.739  21.621  0.00  0.00    +0.000 OA
ATOM     17  H   UNL     1       0.832   3.243  22.333  0.00  0.00    +0.000 HD
ENDBRANCH   5  16
BRANCH   1  18
ATOM     18  C   UNL     1       2.340   5.991  20.116  0.00  0.00    +0.000 C 
BRANCH  18  21
ATOM     19  O   UNL     1       1.760   8.594  19.188  0.00  0.00    +0.000 OA
ATOM     20  C   UNL     1       1.445   8.283  20.331  0.00  0.00    +0.000 C 
ATOM     21  N   UNL     1       1.697   7.048  20.884  0.00  0.00    +0.000 N 
ATOM     22  H   UNL     1       1.159   6.747  21.688  0.00  0.00    +0.000 HD
BRANCH  20  23
ATOM     23  C   UNL     1       0.741   9.265  21.196  0.00  0.00    +0.000 A 
ATOM     24  C   UNL     1       0.655  10.590  20.767  0.00  0.00    +0.000 A 
ATOM     25  C   UNL     1       0.033  11.503  21.600  0.00  0.00    +0.000 A 
ATOM     26  N   UNL     1      -0.486  11.183  22.804  0.00  0.00    +0.000 NA
ATOM     27  C   UNL     1      -0.370   9.897  23.201  0.00  0.00    +0.000 A 
ATOM     28  C   UNL     1       0.225   8.907  22.442  0.00  0.00    +0.000 A 
ENDBRANCH  20  23
ENDBRANCH  18  21
ENDBRANCH   1  18
TORSDOF 7
ENDMDL
