MODEL 1
REMARK VINA RESULT:      -7.4      0.000      0.000
REMARK  Name = 
REMARK  15 active torsions:
REMARK  status: ('A' for Active; 'I' for Inactive)
REMARK    1  A    between atoms: C_1  and  C_2
REMARK    2  A    between atoms: C_2  and  C_3
REMARK    3  A    between atoms: C_3  and  C_4
REMARK    4  A    between atoms: C_6  and  C_7
REMARK    5  A    between atoms: C_9  and  C_10
REMARK    6  A    between atoms: C_10  and  C_11
REMARK    7  A    between atoms: C_16  and  O_17
REMARK    8  A    between atoms: O_17  and  C_18
REMARK    9  A    between atoms: C_18  and  C_19
REMARK   10  A    between atoms: C_19  and  C_20
REMARK   11  A    between atoms: C_20  and  O_21
REMARK   12  A    between atoms: O_21  and  C_22
REMARK   13  A    between atoms: C_30  and  C_31
REMARK   14  A    between atoms: C_31  and  C_32
REMARK   15  A    between atoms: C_32  and  O_34
REMARK                            x       y       z     vdW  Elec       q    Type
REMARK                         _______ _______ _______ _____ _____    ______ ____
ROOT
ATOM      1  C   UNL     1      -0.164   9.192  21.465  0.00  0.00    +0.000 C 
ENDROOT
BRANCH   1   2
ATOM      2  O   UNL     1      -0.953   9.787  20.446  0.00  0.00    +0.000 OA
BRANCH   2   8
ATOM      3  C   UNL     1      -0.985  11.702  18.826  0.00  0.00    +0.000 A 
ATOM      4  C   UNL     1      -0.371  12.941  18.528  0.00  0.00    +0.000 A 
ATOM      5  C   UNL     1       0.714  13.455  19.253  0.00  0.00    +0.000 A 
ATOM      6  C   UNL     1       1.168  12.724  20.348  0.00  0.00    +0.000 A 
ATOM      7  C   UNL     1       0.558  11.510  20.689  0.00  0.00    +0.000 A 
ATOM      8  C   UNL     1      -0.502  10.978  19.932  0.00  0.00    +0.000 A 
BRANCH   5   9
ATOM      9  C   UNL     1       1.353  14.691  18.774  0.00  0.00    +0.000 A 
ATOM     10  N   UNL     1       0.736  15.859  18.730  0.00  0.00    +0.000 NA
ATOM     11  C   UNL     1       1.564  16.831  18.195  0.00  0.00    +0.000 A 
ATOM     12  C   UNL     1       2.833  16.391  17.877  0.00  0.00    +0.000 A 
ATOM     13  S   UNL     1       2.988  14.725  18.236  0.00  0.00    +0.000 S 
BRANCH  11  14
ATOM     14  C   UNL     1       1.024  18.211  18.009  0.00  0.00    +0.000 C 
ATOM     15  C   UNL     1       0.668  18.498  16.559  0.00  0.00    +0.000 C 
ENDBRANCH  11  14
ENDBRANCH   5   9
BRANCH   3  16
ATOM     16  C   UNL     1      -2.106  11.317  17.887  0.00  0.00    +0.000 C 
BRANCH  16  18
ATOM     17  C   UNL     1      -2.713  10.018  15.829  0.00  0.00    +0.000 C 
ATOM     18  C   UNL     1      -1.837  10.050  17.075  0.00  0.00    +0.000 C 
ENDBRANCH  16  18
ENDBRANCH   3  16
ENDBRANCH   2   8
ENDBRANCH   1   2
BRANCH   1  19
ATOM     19  C   UNL     1       0.344   7.819  21.042  0.00  0.00    +0.000 C 
BRANCH  19  20
ATOM     20  C   UNL     1       1.831   7.936  20.724  0.00  0.00    +0.000 C 
BRANCH  20  21
ATOM     21  O   UNL     1       2.010   8.213  19.337  0.00  0.00    +0.000 OA
BRANCH  21  22
ATOM     22  C   UNL     1       2.573   7.194  18.613  0.00  0.00    +0.000 A 
ATOM     23  C   UNL     1       3.462   7.610  17.602  0.00  0.00    +0.000 A 
ATOM     24  C   UNL     1       4.190   6.687  16.845  0.00  0.00    +0.000 A 
ATOM     25  C   UNL     1       4.038   5.348  17.144  0.00  0.00    +0.000 A 
ATOM     26  C   UNL     1       3.146   4.927  18.144  0.00  0.00    +0.000 A 
ATOM     27  C   UNL     1       2.377   5.828  18.852  0.00  0.00    +0.000 A 
ATOM     28  C   UNL     1       3.357   3.468  18.438  0.00  0.00    +0.000 C 
ATOM     29  C   UNL     1       4.853   3.397  18.040  0.00  0.00    +0.000 C 
ATOM     30  C   UNL     1       4.827   4.144  16.688  0.00  0.00    +0.000 C 
BRANCH  30  31
ATOM     31  C   UNL     1       6.076   4.362  15.854  0.00  0.00    +0.000 C 
BRANCH  31  32
ATOM     32  C   UNL     1       7.299   4.942  16.528  0.00  0.00    +0.000 C 
ATOM     33  O   UNL     1       7.983   4.330  17.328  0.00  0.00    +0.000 OA
BRANCH  32  34
ATOM     34  O   UNL     1       7.587   6.177  16.080  0.00  0.00    +0.000 OA
ATOM     35  H   UNL     1       8.106   6.236  15.264  0.00  0.00    +0.000 HD
ENDBRANCH  32  34
ENDBRANCH  31  32
ENDBRANCH  30  31
ENDBRANCH  21  22
ENDBRANCH  20  21
ENDBRANCH  19  20
ENDBRANCH   1  19
TORSDOF 13
ENDMDL
MODEL 2
REMARK VINA RESULT:      -7.4      4.317     11.024
REMARK  Name = 
REMARK  15 active torsions:
REMARK  status: ('A' for Active; 'I' for Inactive)
REMARK    1  A    between atoms: C_1  and  C_2
REMARK    2  A    between atoms: C_2  and  C_3
REMARK    3  A    between atoms: C_3  and  C_4
REMARK    4  A    between atoms: C_6  and  C_7
REMARK    5  A    between atoms: C_9  and  C_10
REMARK    6  A    between atoms: C_10  and  C_11
REMARK    7  A    between atoms: C_16  and  O_17
REMARK    8  A    between atoms: O_17  and  C_18
REMARK    9  A    between atoms: C_18  and  C_19
REMARK   10  A    between atoms: C_19  and  C_20
REMARK   11  A    between atoms: C_20  and  O_21
REMARK   12  A    between atoms: O_21  and  C_22
REMARK   13  A    between atoms: C_30  and  C_31
REMARK   14  A    between atoms: C_31  and  C_32
REMARK   15  A    between atoms: C_32  and  O_34
REMARK                            x       y       z     vdW  Elec       q    Type
REMARK                         _______ _______ _______ _____ _____    ______ ____
ROOT
ATOM      1  C   UNL     1       2.540   6.621  19.367  0.00  0.00    +0.000 C 
ENDROOT
BRANCH   1   2
ATOM      2  O   UNL     1       3.920   6.299  19.288  0.00  0.00    +0.000 OA
BRANCH   2   8
ATOM      3  C   UNL     1       4.402   4.346  17.791  0.00  0.00    +0.000 A 
ATOM      4  C   UNL     1       4.844   3.998  16.493  0.00  0.00    +0.000 A 
ATOM      5  C   UNL     1       5.271   4.942  15.548  0.00  0.00    +0.000 A 
ATOM      6  C   UNL     1       5.204   6.288  15.898  0.00  0.00    +0.000 A 
ATOM      7  C   UNL     1       4.736   6.666  17.164  0.00  0.00    +0.000 A 
ATOM      8  C   UNL     1       4.351   5.713  18.124  0.00  0.00    +0.000 A 
BRANCH   5   9
ATOM      9  C   UNL     1       5.831   4.456  14.277  0.00  0.00    +0.000 A 
ATOM     10  N   UNL     1       5.215   3.586  13.496  0.00  0.00    +0.000 NA
ATOM     11  C   UNL     1       5.995   3.278  12.393  0.00  0.00    +0.000 A 
ATOM     12  C   UNL     1       7.191   3.964  12.329  0.00  0.00    +0.000 A 
ATOM     13  S   UNL     1       7.353   4.999  13.682  0.00  0.00    +0.000 S 
BRANCH  11  14
ATOM     14  C   UNL     1       5.491   2.264  11.420  0.00  0.00    +0.000 C 
ATOM     15  C   UNL     1       6.558   1.248  11.046  0.00  0.00    +0.000 C 
ENDBRANCH  11  14
ENDBRANCH   5   9
BRANCH   3  16
ATOM     16  C   UNL     1       4.034   3.167  18.664  0.00  0.00    +0.000 C 
BRANCH  16  18
ATOM     17  C   UNL     1       1.633   2.601  18.212  0.00  0.00    +0.000 C 
ATOM     18  C   UNL     1       3.080   2.171  18.004  0.00  0.00    +0.000 C 
ENDBRANCH  16  18
ENDBRANCH   3  16
ENDBRANCH   2   8
ENDBRANCH   1   2
BRANCH   1  19
ATOM     19  C   UNL     1       2.140   7.620  18.288  0.00  0.00    +0.000 C 
BRANCH  19  20
ATOM     20  C   UNL     1       1.838   8.954  18.961  0.00  0.00    +0.000 C 
BRANCH  20  21
ATOM     21  O   UNL     1       1.300   8.731  20.262  0.00  0.00    +0.000 OA
BRANCH  21  22
ATOM     22  C   UNL     1       0.334   9.625  20.648  0.00  0.00    +0.000 A 
ATOM     23  C   UNL     1       0.113   9.689  22.038  0.00  0.00    +0.000 A 
ATOM     24  C   UNL     1      -0.767  10.623  22.595  0.00  0.00    +0.000 A 
ATOM     25  C   UNL     1      -1.390  11.508  21.739  0.00  0.00    +0.000 A 
ATOM     26  C   UNL     1      -1.181  11.442  20.352  0.00  0.00    +0.000 A 
ATOM     27  C   UNL     1      -0.363  10.484  19.789  0.00  0.00    +0.000 A 
ATOM     28  C   UNL     1      -1.765  12.657  19.686  0.00  0.00    +0.000 C 
ATOM     29  C   UNL     1      -1.632  13.627  20.888  0.00  0.00    +0.000 C 
ATOM     30  C   UNL     1      -2.196  12.752  22.029  0.00  0.00    +0.000 C 
BRANCH  30  31
ATOM     31  C   UNL     1      -2.291  13.243  23.461  0.00  0.00    +0.000 C 
BRANCH  31  32
ATOM     32  C   UNL     1      -3.566  12.979  24.230  0.00  0.00    +0.000 C 
ATOM     33  O   UNL     1      -4.139  11.905  24.240  0.00  0.00    +0.000 OA
BRANCH  32  34
ATOM     34  O   UNL     1      -3.946  14.042  24.961  0.00  0.00    +0.000 OA
ATOM     35  H   UNL     1      -4.264  13.864  25.859  0.00  0.00    +0.000 HD
ENDBRANCH  32  34
ENDBRANCH  31  32
ENDBRANCH  30  31
ENDBRANCH  21  22
ENDBRANCH  20  21
ENDBRANCH  19  20
ENDBRANCH   1  19
TORSDOF 13
ENDMDL
MODEL 3
REMARK VINA RESULT:      -7.2      3.520      4.541
REMARK  Name = 
REMARK  15 active torsions:
REMARK  status: ('A' for Active; 'I' for Inactive)
REMARK    1  A    between atoms: C_1  and  C_2
REMARK    2  A    between atoms: C_2  and  C_3
REMARK    3  A    between atoms: C_3  and  C_4
REMARK    4  A    between atoms: C_6  and  C_7
REMARK    5  A    between atoms: C_9  and  C_10
REMARK    6  A    between atoms: C_10  and  C_11
REMARK    7  A    between atoms: C_16  and  O_17
REMARK    8  A    between atoms: O_17  and  C_18
REMARK    9  A    between atoms: C_18  and  C_19
REMARK   10  A    between atoms: C_19  and  C_20
REMARK   11  A    between atoms: C_20  and  O_21
REMARK   12  A    between atoms: O_21  and  C_22
REMARK   13  A    between atoms: C_30  and  C_31
REMARK   14  A    between atoms: C_31  and  C_32
REMARK   15  A    between atoms: C_32  and  O_34
REMARK                            x       y       z     vdW  Elec       q    Type
REMARK                         _______ _______ _______ _____ _____    ______ ____
ROOT
ATOM      1  C   UNL     1       1.057   7.324  21.193  0.00  0.00    +0.000 C 
ENDROOT
BRANCH   1   2
ATOM      2  O   UNL     1       1.605   8.632  21.260  0.00  0.00    +0.000 OA
BRANCH   2   8
ATOM      3  C   UNL     1       0.362  10.718  20.635  0.00  0.00    +0.000 A 
ATOM      4  C   UNL     1      -0.619  11.630  21.090  0.00  0.00    +0.000 A 
ATOM      5  C   UNL     1      -1.211  11.551  22.360  0.00  0.00    +0.000 A 
ATOM      6  C   UNL     1      -0.844  10.489  23.182  0.00  0.00    +0.000 A 
ATOM      7  C   UNL     1       0.099   9.550  22.745  0.00  0.00    +0.000 A 
ATOM      8  C   UNL     1       0.722   9.659  21.488  0.00  0.00    +0.000 A 
BRANCH   5   9
ATOM      9  C   UNL     1      -2.124  12.627  22.774  0.00  0.00    +0.000 A 
ATOM     10  N   UNL     1      -1.835  13.505  23.719  0.00  0.00    +0.000 NA
ATOM     11  C   UNL     1      -2.895  14.371  23.926  0.00  0.00    +0.000 A 
ATOM     12  C   UNL     1      -3.974  14.164  23.091  0.00  0.00    +0.000 A 
ATOM     13  S   UNL     1      -3.666  12.850  22.040  0.00  0.00    +0.000 S 
BRANCH  11  14
ATOM     14  C   UNL     1      -2.779  15.402  25.001  0.00  0.00    +0.000 C 
ATOM     15  C   UNL     1      -1.364  15.507  25.545  0.00  0.00    +0.000 C 
ENDBRANCH  11  14
ENDBRANCH   5   9
BRANCH   3  16
ATOM     16  C   UNL     1       0.901  11.018  19.254  0.00  0.00    +0.000 C 
BRANCH  16  18
ATOM     17  C   UNL     1       1.934   9.278  17.773  0.00  0.00    +0.000 C 
ATOM     18  C   UNL     1       0.629   9.923  18.222  0.00  0.00    +0.000 C 
ENDBRANCH  16  18
ENDBRANCH   3  16
ENDBRANCH   2   8
ENDBRANCH   1   2
BRANCH   1  19
ATOM     19  C   UNL     1       1.858   6.435  20.249  0.00  0.00    +0.000 C 
BRANCH  19  20
ATOM     20  C   UNL     1       1.640   4.983  20.660  0.00  0.00    +0.000 C 
BRANCH  20  21
ATOM     21  O   UNL     1       1.836   4.126  19.538  0.00  0.00    +0.000 OA
BRANCH  21  22
ATOM     22  C   UNL     1       3.108   4.128  19.027  0.00  0.00    +0.000 A 
ATOM     23  C   UNL     1       3.211   3.657  17.702  0.00  0.00    +0.000 A 
ATOM     24  C   UNL     1       4.425   3.691  17.008  0.00  0.00    +0.000 A 
ATOM     25  C   UNL     1       5.518   4.235  17.651  0.00  0.00    +0.000 A 
ATOM     26  C   UNL     1       5.423   4.696  18.974  0.00  0.00    +0.000 A 
ATOM     27  C   UNL     1       4.245   4.609  19.688  0.00  0.00    +0.000 A 
ATOM     28  C   UNL     1       6.665   5.460  19.341  0.00  0.00    +0.000 C 
ATOM     29  C   UNL     1       7.035   5.939  17.914  0.00  0.00    +0.000 C 
ATOM     30  C   UNL     1       6.877   4.623  17.120  0.00  0.00    +0.000 C 
BRANCH  30  31
ATOM     31  C   UNL     1       7.129   4.539  15.626  0.00  0.00    +0.000 C 
BRANCH  31  32
ATOM     32  C   UNL     1       6.057   5.044  14.686  0.00  0.00    +0.000 C 
ATOM     33  O   UNL     1       5.573   6.159  14.749  0.00  0.00    +0.000 OA
BRANCH  32  34
ATOM     34  O   UNL     1       5.762   4.149  13.727  0.00  0.00    +0.000 OA
ATOM     35  H   UNL     1       5.765   3.215  13.985  0.00  0.00    +0.000 HD
ENDBRANCH  32  34
ENDBRANCH  31  32
ENDBRANCH  30  31
ENDBRANCH  21  22
ENDBRANCH  20  21
ENDBRANCH  19  20
ENDBRANCH   1  19
TORSDOF 13
ENDMDL
MODEL 4
REMARK VINA RESULT:      -7.1      4.313     10.920
REMARK  Name = 
REMARK  15 active torsions:
REMARK  status: ('A' for Active; 'I' for Inactive)
REMARK    1  A    between atoms: C_1  and  C_2
REMARK    2  A    between atoms: C_2  and  C_3
REMARK    3  A    between atoms: C_3  and  C_4
REMARK    4  A    between atoms: C_6  and  C_7
REMARK    5  A    between atoms: C_9  and  C_10
REMARK    6  A    between atoms: C_10  and  C_11
REMARK    7  A    between atoms: C_16  and  O_17
REMARK    8  A    between atoms: O_17  and  C_18
REMARK    9  A    between atoms: C_18  and  C_19
REMARK   10  A    between atoms: C_19  and  C_20
REMARK   11  A    between atoms: C_20  and  O_21
REMARK   12  A    between atoms: O_21  and  C_22
REMARK   13  A    between atoms: C_30  and  C_31
REMARK   14  A    between atoms: C_31  and  C_32
REMARK   15  A    between atoms: C_32  and  O_34
REMARK                            x       y       z     vdW  Elec       q    Type
REMARK                         _______ _______ _______ _____ _____    ______ ____
ROOT
ATOM      1  C   UNL     1       3.170   5.519  20.049  0.00  0.00    +0.000 C 
ENDROOT
BRANCH   1   2
ATOM      2  O   UNL     1       4.537   5.523  19.664  0.00  0.00    +0.000 OA
BRANCH   2   8
ATOM      3  C   UNL     1       4.454   3.898  17.756  0.00  0.00    +0.000 A 
ATOM      4  C   UNL     1       4.828   3.722  16.403  0.00  0.00    +0.000 A 
ATOM      5  C   UNL     1       5.577   4.666  15.684  0.00  0.00    +0.000 A 
ATOM      6  C   UNL     1       5.918   5.852  16.329  0.00  0.00    +0.000 A 
ATOM      7  C   UNL     1       5.530   6.070  17.658  0.00  0.00    +0.000 A 
ATOM      8  C   UNL     1       4.818   5.101  18.388  0.00  0.00    +0.000 A 
BRANCH   5   9
ATOM      9  C   UNL     1       6.017   4.320  14.324  0.00  0.00    +0.000 A 
ATOM     10  N   UNL     1       5.386   3.453  13.552  0.00  0.00    +0.000 NA
ATOM     11  C   UNL     1       6.049   3.292  12.347  0.00  0.00    +0.000 A 
ATOM     12  C   UNL     1       7.168   4.087  12.201  0.00  0.00    +0.000 A 
ATOM     13  S   UNL     1       7.407   5.037  13.604  0.00  0.00    +0.000 S 
BRANCH  11  14
ATOM     14  C   UNL     1       5.517   2.305  11.361  0.00  0.00    +0.000 C 
ATOM     15  C   UNL     1       6.540   1.238  11.010  0.00  0.00    +0.000 C 
ENDBRANCH  11  14
ENDBRANCH   5   9
BRANCH   3  16
ATOM     16  C   UNL     1       3.692   2.734  18.350  0.00  0.00    +0.000 C 
BRANCH  16  18
ATOM     17  C   UNL     1       1.203   2.628  18.641  0.00  0.00    +0.000 C 
ATOM     18  C   UNL     1       2.357   2.442  17.664  0.00  0.00    +0.000 C 
ENDBRANCH  16  18
ENDBRANCH   3  16
ENDBRANCH   2   8
ENDBRANCH   1   2
BRANCH   1  19
ATOM     19  C   UNL     1       2.375   6.568  19.281  0.00  0.00    +0.000 C 
BRANCH  19  20
ATOM     20  C   UNL     1       1.711   7.498  20.290  0.00  0.00    +0.000 C 
BRANCH  20  21
ATOM     21  O   UNL     1       1.700   8.832  19.787  0.00  0.00    +0.000 OA
BRANCH  21  22
ATOM     22  C   UNL     1       0.693   9.625  20.275  0.00  0.00    +0.000 A 
ATOM     23  C   UNL     1       0.615   9.680  21.681  0.00  0.00    +0.000 A 
ATOM     24  C   UNL     1      -0.293  10.523  22.328  0.00  0.00    +0.000 A 
ATOM     25  C   UNL     1      -1.093  11.330  21.544  0.00  0.00    +0.000 A 
ATOM     26  C   UNL     1      -1.026  11.271  20.143  0.00  0.00    +0.000 A 
ATOM     27  C   UNL     1      -0.177  10.397  19.495  0.00  0.00    +0.000 A 
ATOM     28  C   UNL     1      -1.801  12.412  19.545  0.00  0.00    +0.000 C 
ATOM     29  C   UNL     1      -1.643  13.404  20.726  0.00  0.00    +0.000 C 
ATOM     30  C   UNL     1      -1.988  12.486  21.920  0.00  0.00    +0.000 C 
BRANCH  30  31
ATOM     31  C   UNL     1      -1.982  12.980  23.354  0.00  0.00    +0.000 C 
BRANCH  31  32
ATOM     32  C   UNL     1      -1.700  14.444  23.611  0.00  0.00    +0.000 C 
ATOM     33  O   UNL     1      -0.630  14.866  24.010  0.00  0.00    +0.000 OA
BRANCH  32  34
ATOM     34  O   UNL     1      -2.739  15.226  23.270  0.00  0.00    +0.000 OA
ATOM     35  H   UNL     1      -3.438  14.818  22.738  0.00  0.00    +0.000 HD
ENDBRANCH  32  34
ENDBRANCH  31  32
ENDBRANCH  30  31
ENDBRANCH  21  22
ENDBRANCH  20  21
ENDBRANCH  19  20
ENDBRANCH   1  19
TORSDOF 13
ENDMDL
MODEL 5
REMARK VINA RESULT:      -7.0      3.911      5.880
REMARK  Name = 
REMARK  15 active torsions:
REMARK  status: ('A' for Active; 'I' for Inactive)
REMARK    1  A    between atoms: C_1  and  C_2
REMARK    2  A    between atoms: C_2  and  C_3
REMARK    3  A    between atoms: C_3  and  C_4
REMARK    4  A    between atoms: C_6  and  C_7
REMARK    5  A    between atoms: C_9  and  C_10
REMARK    6  A    between atoms: C_10  and  C_11
REMARK    7  A    between atoms: C_16  and  O_17
REMARK    8  A    between atoms: O_17  and  C_18
REMARK    9  A    between atoms: C_18  and  C_19
REMARK   10  A    between atoms: C_19  and  C_20
REMARK   11  A    between atoms: C_20  and  O_21
REMARK   12  A    between atoms: O_21  and  C_22
REMARK   13  A    between atoms: C_30  and  C_31
REMARK   14  A    between atoms: C_31  and  C_32
REMARK   15  A    between atoms: C_32  and  O_34
REMARK                            x       y       z     vdW  Elec       q    Type
REMARK                         _______ _______ _______ _____ _____    ______ ____
ROOT
ATOM      1  C   UNL     1       0.950  11.611  19.071  0.00  0.00    +0.000 C 
ENDROOT
BRANCH   1   2
ATOM      2  O   UNL     1      -0.006  12.454  18.445  0.00  0.00    +0.000 OA
BRANCH   2   8
ATOM      3  C   UNL     1      -1.759  12.910  20.179  0.00  0.00    +0.000 A 
ATOM      4  C   UNL     1      -3.144  12.794  20.446  0.00  0.00    +0.000 A 
ATOM      5  C   UNL     1      -4.046  12.178  19.566  0.00  0.00    +0.000 A 
ATOM      6  C   UNL     1      -3.552  11.708  18.352  0.00  0.00    +0.000 A 
ATOM      7  C   UNL     1      -2.191  11.840  18.045  0.00  0.00    +0.000 A 
ATOM      8  C   UNL     1      -1.282  12.418  18.950  0.00  0.00    +0.000 A 
BRANCH   5   9
ATOM      9  C   UNL     1      -5.439  12.001  20.004  0.00  0.00    +0.000 A 
ATOM     10  N   UNL     1      -5.848  12.225  21.241  0.00  0.00    +0.000 NA
ATOM     11  C   UNL     1      -7.195  11.934  21.374  0.00  0.00    +0.000 A 
ATOM     12  C   UNL     1      -7.811  11.530  20.207  0.00  0.00    +0.000 A 
ATOM     13  S   UNL     1      -6.680  11.494  18.924  0.00  0.00    +0.000 S 
BRANCH  11  14
ATOM     14  C   UNL     1      -7.828  12.070  22.720  0.00  0.00    +0.000 C 
ATOM     15  C   UNL     1      -6.835  12.516  23.780  0.00  0.00    +0.000 C 
ENDBRANCH  11  14
ENDBRANCH   5   9
BRANCH   3  16
ATOM     16  C   UNL     1      -0.962  13.564  21.286  0.00  0.00    +0.000 C 
BRANCH  16  18
ATOM     17  C   UNL     1      -0.735  11.551  22.765  0.00  0.00    +0.000 C 
ATOM     18  C   UNL     1      -1.231  12.989  22.677  0.00  0.00    +0.000 C 
ENDBRANCH  16  18
ENDBRANCH   3  16
ENDBRANCH   2   8
ENDBRANCH   1   2
BRANCH   1  19
ATOM     19  C   UNL     1       0.378  10.222  19.332  0.00  0.00    +0.000 C 
BRANCH  19  20
ATOM     20  C   UNL     1       0.693   9.342  18.127  0.00  0.00    +0.000 C 
BRANCH  20  21
ATOM     21  O   UNL     1       2.086   9.403  17.830  0.00  0.00    +0.000 OA
BRANCH  21  22
ATOM     22  C   UNL     1       2.766   8.226  18.007  0.00  0.00    +0.000 A 
ATOM     23  C   UNL     1       2.273   7.411  19.047  0.00  0.00    +0.000 A 
ATOM     24  C   UNL     1       2.796   6.136  19.284  0.00  0.00    +0.000 A 
ATOM     25  C   UNL     1       3.792   5.683  18.443  0.00  0.00    +0.000 A 
ATOM     26  C   UNL     1       4.293   6.494  17.413  0.00  0.00    +0.000 A 
ATOM     27  C   UNL     1       3.827   7.777  17.211  0.00  0.00    +0.000 A 
ATOM     28  C   UNL     1       5.173   5.683  16.503  0.00  0.00    +0.000 C 
ATOM     29  C   UNL     1       4.498   4.309  16.745  0.00  0.00    +0.000 C 
ATOM     30  C   UNL     1       4.393   4.306  18.286  0.00  0.00    +0.000 C 
BRANCH  30  31
ATOM     31  C   UNL     1       3.785   3.151  19.059  0.00  0.00    +0.000 C 
BRANCH  31  32
ATOM     32  C   UNL     1       3.351   1.921  18.293  0.00  0.00    +0.000 C 
ATOM     33  O   UNL     1       2.382   1.892  17.557  0.00  0.00    +0.000 OA
BRANCH  32  34
ATOM     34  O   UNL     1       4.204   0.895  18.458  0.00  0.00    +0.000 OA
ATOM     35  H   UNL     1       3.880   0.134  18.962  0.00  0.00    +0.000 HD
ENDBRANCH  32  34
ENDBRANCH  31  32
ENDBRANCH  30  31
ENDBRANCH  21  22
ENDBRANCH  20  21
ENDBRANCH  19  20
ENDBRANCH   1  19
TORSDOF 13
ENDMDL
MODEL 6
REMARK VINA RESULT:      -7.0      3.854     10.104
REMARK  Name = 
REMARK  15 active torsions:
REMARK  status: ('A' for Active; 'I' for Inactive)
REMARK    1  A    between atoms: C_1  and  C_2
REMARK    2  A    between atoms: C_2  and  C_3
REMARK    3  A    between atoms: C_3  and  C_4
REMARK    4  A    between atoms: C_6  and  C_7
REMARK    5  A    between atoms: C_9  and  C_10
REMARK    6  A    between atoms: C_10  and  C_11
REMARK    7  A    between atoms: C_16  and  O_17
REMARK    8  A    between atoms: O_17  and  C_18
REMARK    9  A    between atoms: C_18  and  C_19
REMARK   10  A    between atoms: C_19  and  C_20
REMARK   11  A    between atoms: C_20  and  O_21
REMARK   12  A    between atoms: O_21  and  C_22
REMARK   13  A    between atoms: C_30  and  C_31
REMARK   14  A    between atoms: C_31  and  C_32
REMARK   15  A    between atoms: C_32  and  O_34
REMARK                            x       y       z     vdW  Elec       q    Type
REMARK                         _______ _______ _______ _____ _____    ______ ____
ROOT
ATOM      1  C   UNL     1       1.646   8.288  20.567  0.00  0.00    +0.000 C 
ENDROOT
BRANCH   1   2
ATOM      2  O   UNL     1       1.395   6.930  20.238  0.00  0.00    +0.000 OA
BRANCH   2   8
ATOM      3  C   UNL     1       2.281   5.017  18.880  0.00  0.00    +0.000 A 
ATOM      4  C   UNL     1       3.211   4.683  17.868  0.00  0.00    +0.000 A 
ATOM      5  C   UNL     1       4.106   5.609  17.312  0.00  0.00    +0.000 A 
ATOM      6  C   UNL     1       4.031   6.929  17.750  0.00  0.00    +0.000 A 
ATOM      7  C   UNL     1       3.096   7.297  18.726  0.00  0.00    +0.000 A 
ATOM      8  C   UNL     1       2.231   6.355  19.313  0.00  0.00    +0.000 A 
BRANCH   5   9
ATOM      9  C   UNL     1       5.114   5.121  16.358  0.00  0.00    +0.000 A 
ATOM     10  N   UNL     1       4.816   4.661  15.155  0.00  0.00    +0.000 NA
ATOM     11  C   UNL     1       5.957   4.231  14.497  0.00  0.00    +0.000 A 
ATOM     12  C   UNL     1       7.128   4.416  15.204  0.00  0.00    +0.000 A 
ATOM     13  S   UNL     1       6.796   5.121  16.727  0.00  0.00    +0.000 S 
BRANCH  11  14
ATOM     14  C   UNL     1       5.816   3.622  13.141  0.00  0.00    +0.000 C 
ATOM     15  C   UNL     1       6.940   4.037  12.206  0.00  0.00    +0.000 C 
ENDBRANCH  11  14
ENDBRANCH   5   9
BRANCH   3  16
ATOM     16  C   UNL     1       1.447   3.854  19.371  0.00  0.00    +0.000 C 
BRANCH  16  18
ATOM     17  C   UNL     1       2.554   2.761  21.338  0.00  0.00    +0.000 C 
ATOM     18  C   UNL     1       1.432   3.690  20.891  0.00  0.00    +0.000 C 
ENDBRANCH  16  18
ENDBRANCH   3  16
ENDBRANCH   2   8
ENDBRANCH   1   2
BRANCH   1  19
ATOM     19  C   UNL     1       0.725   8.768  21.681  0.00  0.00    +0.000 C 
BRANCH  19  20
ATOM     20  C   UNL     1      -0.226   9.809  21.100  0.00  0.00    +0.000 C 
BRANCH  20  21
ATOM     21  O   UNL     1       0.084  10.037  19.728  0.00  0.00    +0.000 OA
BRANCH  21  22
ATOM     22  C   UNL     1       0.413  11.332  19.418  0.00  0.00    +0.000 A 
ATOM     23  C   UNL     1      -0.576  12.035  18.700  0.00  0.00    +0.000 A 
ATOM     24  C   UNL     1      -0.430  13.393  18.398  0.00  0.00    +0.000 A 
ATOM     25  C   UNL     1       0.701  14.036  18.857  0.00  0.00    +0.000 A 
ATOM     26  C   UNL     1       1.693  13.337  19.563  0.00  0.00    +0.000 A 
ATOM     27  C   UNL     1       1.588  11.984  19.811  0.00  0.00    +0.000 A 
ATOM     28  C   UNL     1       2.677  14.306  20.159  0.00  0.00    +0.000 C 
ATOM     29  C   UNL     1       1.713  15.512  20.295  0.00  0.00    +0.000 C 
ATOM     30  C   UNL     1       1.045  15.506  18.903  0.00  0.00    +0.000 C 
BRANCH  30  31
ATOM     31  C   UNL     1      -0.014  16.516  18.502  0.00  0.00    +0.000 C 
BRANCH  31  32
ATOM     32  C   UNL     1       0.386  17.656  17.592  0.00  0.00    +0.000 C 
ATOM     33  O   UNL     1      -0.397  18.258  16.881  0.00  0.00    +0.000 OA
BRANCH  32  34
ATOM     34  O   UNL     1       1.685  17.975  17.722  0.00  0.00    +0.000 OA
ATOM     35  H   UNL     1       1.891  18.902  17.917  0.00  0.00    +0.000 HD
ENDBRANCH  32  34
ENDBRANCH  31  32
ENDBRANCH  30  31
ENDBRANCH  21  22
ENDBRANCH  20  21
ENDBRANCH  19  20
ENDBRANCH   1  19
TORSDOF 13
ENDMDL
MODEL 7
REMARK VINA RESULT:      -7.0      3.414      4.395
REMARK  Name = 
REMARK  15 active torsions:
REMARK  status: ('A' for Active; 'I' for Inactive)
REMARK    1  A    between atoms: C_1  and  C_2
REMARK    2  A    between atoms: C_2  and  C_3
REMARK    3  A    between atoms: C_3  and  C_4
REMARK    4  A    between atoms: C_6  and  C_7
REMARK    5  A    between atoms: C_9  and  C_10
REMARK    6  A    between atoms: C_10  and  C_11
REMARK    7  A    between atoms: C_16  and  O_17
REMARK    8  A    between atoms: O_17  and  C_18
REMARK    9  A    between atoms: C_18  and  C_19
REMARK   10  A    between atoms: C_19  and  C_20
REMARK   11  A    between atoms: C_20  and  O_21
REMARK   12  A    between atoms: O_21  and  C_22
REMARK   13  A    between atoms: C_30  and  C_31
REMARK   14  A    between atoms: C_31  and  C_32
REMARK   15  A    between atoms: C_32  and  O_34
REMARK                            x       y       z     vdW  Elec       q    Type
REMARK                         _______ _______ _______ _____ _____    ______ ____
ROOT
ATOM      1  C   UNL     1       1.088   8.892  20.576  0.00  0.00    +0.000 C 
ENDROOT
BRANCH   1   2
ATOM      2  O   UNL     1       0.902   9.969  19.670  0.00  0.00    +0.000 OA
BRANCH   2   8
ATOM      3  C   UNL     1      -1.350  10.777  18.919  0.00  0.00    +0.000 A 
ATOM      4  C   UNL     1      -2.460  11.561  19.313  0.00  0.00    +0.000 A 
ATOM      5  C   UNL     1      -2.500  12.287  20.513  0.00  0.00    +0.000 A 
ATOM      6  C   UNL     1      -1.410  12.181  21.373  0.00  0.00    +0.000 A 
ATOM      7  C   UNL     1      -0.312  11.383  21.026  0.00  0.00    +0.000 A 
ATOM      8  C   UNL     1      -0.257  10.692  19.801  0.00  0.00    +0.000 A 
BRANCH   5   9
ATOM      9  C   UNL     1      -3.651  13.170  20.757  0.00  0.00    +0.000 A 
ATOM     10  N   UNL     1      -4.899  12.738  20.824  0.00  0.00    +0.000 NA
ATOM     11  C   UNL     1      -5.773  13.793  21.019  0.00  0.00    +0.000 A 
ATOM     12  C   UNL     1      -5.165  15.026  21.145  0.00  0.00    +0.000 A 
ATOM     13  S   UNL     1      -3.467  14.865  20.997  0.00  0.00    +0.000 S 
BRANCH  11  14
ATOM     14  C   UNL     1      -7.239  13.511  21.063  0.00  0.00    +0.000 C 
ATOM     15  C   UNL     1      -7.638  12.738  22.309  0.00  0.00    +0.000 C 
ENDBRANCH  11  14
ENDBRANCH   5   9
BRANCH   3  16
ATOM     16  C   UNL     1      -1.499  10.118  17.565  0.00  0.00    +0.000 C 
BRANCH  16  18
ATOM     17  C   UNL     1      -2.891   9.988  15.483  0.00  0.00    +0.000 C 
ATOM     18  C   UNL     1      -2.358  10.906  16.576  0.00  0.00    +0.000 C 
ENDBRANCH  16  18
ENDBRANCH   3  16
ENDBRANCH   2   8
ENDBRANCH   1   2
BRANCH   1  19
ATOM     19  C   UNL     1       1.697   7.681  19.881  0.00  0.00    +0.000 C 
BRANCH  19  20
ATOM     20  C   UNL     1       1.835   6.560  20.906  0.00  0.00    +0.000 C 
BRANCH  20  21
ATOM     21  O   UNL     1       1.737   5.294  20.258  0.00  0.00    +0.000 OA
BRANCH  21  22
ATOM     22  C   UNL     1       2.763   5.007  19.395  0.00  0.00    +0.000 A 
ATOM     23  C   UNL     1       2.356   4.509  18.141  0.00  0.00    +0.000 A 
ATOM     24  C   UNL     1       3.278   4.265  17.118  0.00  0.00    +0.000 A 
ATOM     25  C   UNL     1       4.604   4.561  17.364  0.00  0.00    +0.000 A 
ATOM     26  C   UNL     1       5.016   5.047  18.615  0.00  0.00    +0.000 A 
ATOM     27  C   UNL     1       4.122   5.232  19.650  0.00  0.00    +0.000 A 
ATOM     28  C   UNL     1       6.441   5.521  18.537  0.00  0.00    +0.000 C 
ATOM     29  C   UNL     1       6.448   5.888  17.031  0.00  0.00    +0.000 C 
ATOM     30  C   UNL     1       5.785   4.631  16.426  0.00  0.00    +0.000 C 
BRANCH  30  31
ATOM     31  C   UNL     1       5.544   4.475  14.936  0.00  0.00    +0.000 C 
BRANCH  31  32
ATOM     32  C   UNL     1       6.738   4.495  14.008  0.00  0.00    +0.000 C 
ATOM     33  O   UNL     1       7.647   5.299  14.095  0.00  0.00    +0.000 OA
BRANCH  32  34
ATOM     34  O   UNL     1       6.715   3.475  13.132  0.00  0.00    +0.000 OA
ATOM     35  H   UNL     1       7.566   3.064  12.917  0.00  0.00    +0.000 HD
ENDBRANCH  32  34
ENDBRANCH  31  32
ENDBRANCH  30  31
ENDBRANCH  21  22
ENDBRANCH  20  21
ENDBRANCH  19  20
ENDBRANCH   1  19
TORSDOF 13
ENDMDL
MODEL 8
REMARK VINA RESULT:      -7.0      4.243     10.552
REMARK  Name = 
REMARK  15 active torsions:
REMARK  status: ('A' for Active; 'I' for Inactive)
REMARK    1  A    between atoms: C_1  and  C_2
REMARK    2  A    between atoms: C_2  and  C_3
REMARK    3  A    between atoms: C_3  and  C_4
REMARK    4  A    between atoms: C_6  and  C_7
REMARK    5  A    between atoms: C_9  and  C_10
REMARK    6  A    between atoms: C_10  and  C_11
REMARK    7  A    between atoms: C_16  and  O_17
REMARK    8  A    between atoms: O_17  and  C_18
REMARK    9  A    between atoms: C_18  and  C_19
REMARK   10  A    between atoms: C_19  and  C_20
REMARK   11  A    between atoms: C_20  and  O_21
REMARK   12  A    between atoms: O_21  and  C_22
REMARK   13  A    between atoms: C_30  and  C_31
REMARK   14  A    between atoms: C_31  and  C_32
REMARK   15  A    between atoms: C_32  and  O_34
REMARK                            x       y       z     vdW  Elec       q    Type
REMARK                         _______ _______ _______ _____ _____    ______ ____
ROOT
ATOM      1  C   UNL     1       1.098  11.883  19.968  0.00  0.00    +0.000 C 
ENDROOT
BRANCH   1   2
ATOM      2  O   UNL     1       0.374  10.759  19.489  0.00  0.00    +0.000 OA
BRANCH   2   8
ATOM      3  C   UNL     1       1.422   8.606  20.234  0.00  0.00    +0.000 A 
ATOM      4  C   UNL     1       2.130   7.472  19.770  0.00  0.00    +0.000 A 
ATOM      5  C   UNL     1       2.548   7.320  18.439  0.00  0.00    +0.000 A 
ATOM      6  C   UNL     1       2.198   8.315  17.530  0.00  0.00    +0.000 A 
ATOM      7  C   UNL     1       1.466   9.432  17.953  0.00  0.00    +0.000 A 
ATOM      8  C   UNL     1       1.088   9.602  19.297  0.00  0.00    +0.000 A 
BRANCH   5   9
ATOM      9  C   UNL     1       3.388   6.161  18.099  0.00  0.00    +0.000 A 
ATOM     10  N   UNL     1       4.607   6.267  17.598  0.00  0.00    +0.000 NA
ATOM     11  C   UNL     1       5.141   5.017  17.336  0.00  0.00    +0.000 A 
ATOM     12  C   UNL     1       4.325   3.961  17.689  0.00  0.00    +0.000 A 
ATOM     13  S   UNL     1       2.854   4.543  18.343  0.00  0.00    +0.000 S 
BRANCH  11  14
ATOM     14  C   UNL     1       6.494   4.932  16.710  0.00  0.00    +0.000 C 
ATOM     15  C   UNL     1       7.585   4.674  17.735  0.00  0.00    +0.000 C 
ENDBRANCH  11  14
ENDBRANCH   5   9
BRANCH   3  16
ATOM     16  C   UNL     1       1.113   8.587  21.715  0.00  0.00    +0.000 C 
BRANCH  16  18
ATOM     17  C   UNL     1      -0.491   9.703  23.286  0.00  0.00    +0.000 C 
ATOM     18  C   UNL     1      -0.360   8.821  22.051  0.00  0.00    +0.000 C 
ENDBRANCH  16  18
ENDBRANCH   3  16
ENDBRANCH   2   8
ENDBRANCH   1   2
BRANCH   1  19
ATOM     19  C   UNL     1       0.335  13.179  19.724  0.00  0.00    +0.000 C 
BRANCH  19  20
ATOM     20  C   UNL     1      -0.153  13.707  21.068  0.00  0.00    +0.000 C 
BRANCH  20  21
ATOM     21  O   UNL     1      -0.998  12.742  21.691  0.00  0.00    +0.000 OA
BRANCH  21  22
ATOM     22  C   UNL     1      -2.341  12.944  21.502  0.00  0.00    +0.000 A 
ATOM     23  C   UNL     1      -2.837  12.486  20.265  0.00  0.00    +0.000 A 
ATOM     24  C   UNL     1      -4.202  12.529  19.966  0.00  0.00    +0.000 A 
ATOM     25  C   UNL     1      -5.059  13.004  20.938  0.00  0.00    +0.000 A 
ATOM     26  C   UNL     1      -4.569  13.471  22.168  0.00  0.00    +0.000 A 
ATOM     27  C   UNL     1      -3.218  13.490  22.448  0.00  0.00    +0.000 A 
ATOM     28  C   UNL     1      -5.708  13.687  23.125  0.00  0.00    +0.000 C 
ATOM     29  C   UNL     1      -6.676  12.636  22.526  0.00  0.00    +0.000 C 
ATOM     30  C   UNL     1      -6.566  12.968  21.021  0.00  0.00    +0.000 C 
BRANCH  30  31
ATOM     31  C   UNL     1      -7.338  12.205  19.960  0.00  0.00    +0.000 C 
BRANCH  31  32
ATOM     32  C   UNL     1      -7.113  10.715  19.838  0.00  0.00    +0.000 C 
ATOM     33  O   UNL     1      -6.583  10.188  18.877  0.00  0.00    +0.000 OA
BRANCH  32  34
ATOM     34  O   UNL     1      -7.492  10.053  20.946  0.00  0.00    +0.000 OA
ATOM     35  H   UNL     1      -7.043  10.289  21.771  0.00  0.00    +0.000 HD
ENDBRANCH  32  34
ENDBRANCH  31  32
ENDBRANCH  30  31
ENDBRANCH  21  22
ENDBRANCH  20  21
ENDBRANCH  19  20
ENDBRANCH   1  19
TORSDOF 13
ENDMDL
MODEL 9
REMARK VINA RESULT:      -7.0      5.168      8.167
REMARK  Name = 
REMARK  15 active torsions:
REMARK  status: ('A' for Active; 'I' for Inactive)
REMARK    1  A    between atoms: C_1  and  C_2
REMARK    2  A    between atoms: C_2  and  C_3
REMARK    3  A    between atoms: C_3  and  C_4
REMARK    4  A    between atoms: C_6  and  C_7
REMARK    5  A    between atoms: C_9  and  C_10
REMARK    6  A    between atoms: C_10  and  C_11
REMARK    7  A    between atoms: C_16  and  O_17
REMARK    8  A    between atoms: O_17  and  C_18
REMARK    9  A    between atoms: C_18  and  C_19
REMARK   10  A    between atoms: C_19  and  C_20
REMARK   11  A    between atoms: C_20  and  O_21
REMARK   12  A    between atoms: O_21  and  C_22
REMARK   13  A    between atoms: C_30  and  C_31
REMARK   14  A    between atoms: C_31  and  C_32
REMARK   15  A    between atoms: C_32  and  O_34
REMARK                            x       y       z     vdW  Elec       q    Type
REMARK                         _______ _______ _______ _____ _____    ______ ____
ROOT
ATOM      1  C   UNL     1       5.650   6.324  16.827  0.00  0.00    +0.000 C 
ENDROOT
BRANCH   1   2
ATOM      2  O   UNL     1       4.565   5.682  17.480  0.00  0.00    +0.000 OA
BRANCH   2   8
ATOM      3  C   UNL     1       2.940   6.287  19.292  0.00  0.00    +0.000 A 
ATOM      4  C   UNL     1       2.075   7.313  19.739  0.00  0.00    +0.000 A 
ATOM      5  C   UNL     1       1.860   8.501  19.025  0.00  0.00    +0.000 A 
ATOM      6  C   UNL     1       2.576   8.690  17.846  0.00  0.00    +0.000 A 
ATOM      7  C   UNL     1       3.466   7.706  17.395  0.00  0.00    +0.000 A 
ATOM      8  C   UNL     1       3.645   6.497  18.092  0.00  0.00    +0.000 A 
BRANCH   5   9
ATOM      9  C   UNL     1       0.842   9.441  19.522  0.00  0.00    +0.000 A 
ATOM     10  N   UNL     1       0.666   9.712  20.804  0.00  0.00    +0.000 NA
ATOM     11  C   UNL     1      -0.388  10.593  20.979  0.00  0.00    +0.000 A 
ATOM     12  C   UNL     1      -0.977  11.020  19.806  0.00  0.00    +0.000 A 
ATOM     13  S   UNL     1      -0.212  10.291  18.460  0.00  0.00    +0.000 S 
BRANCH  11  14
ATOM     14  C   UNL     1      -0.780  10.977  22.368  0.00  0.00    +0.000 C 
ATOM     15  C   UNL     1      -0.550   9.849  23.361  0.00  0.00    +0.000 C 
ENDBRANCH  11  14
ENDBRANCH   5   9
BRANCH   3  16
ATOM     16  C   UNL     1       2.986   5.072  20.191  0.00  0.00    +0.000 C 
BRANCH  16  18
ATOM     17  C   UNL     1       1.756   3.329  21.510  0.00  0.00    +0.000 C 
ATOM     18  C   UNL     1       1.612   4.516  20.566  0.00  0.00    +0.000 C 
ENDBRANCH  16  18
ENDBRANCH   3  16
ENDBRANCH   2   8
ENDBRANCH   1   2
BRANCH   1  19
ATOM     19  C   UNL     1       6.987   5.892  17.417  0.00  0.00    +0.000 C 
BRANCH  19  20
ATOM     20  C   UNL     1       7.581   7.076  18.172  0.00  0.00    +0.000 C 
BRANCH  20  21
ATOM     21  O   UNL     1       7.956   8.099  17.253  0.00  0.00    +0.000 OA
BRANCH  21  22
ATOM     22  C   UNL     1       8.229   9.316  17.824  0.00  0.00    +0.000 A 
ATOM     23  C   UNL     1       9.054   9.260  18.965  0.00  0.00    +0.000 A 
ATOM     24  C   UNL     1       9.503  10.423  19.599  0.00  0.00    +0.000 A 
ATOM     25  C   UNL     1       9.139  11.635  19.049  0.00  0.00    +0.000 A 
ATOM     26  C   UNL     1       8.309  11.697  17.919  0.00  0.00    +0.000 A 
ATOM     27  C   UNL     1       7.810  10.556  17.324  0.00  0.00    +0.000 A 
ATOM     28  C   UNL     1       8.276  13.101  17.382  0.00  0.00    +0.000 C 
ATOM     29  C   UNL     1       9.675  13.540  17.884  0.00  0.00    +0.000 C 
ATOM     30  C   UNL     1       9.630  13.033  19.342  0.00  0.00    +0.000 C 
BRANCH  30  31
ATOM     31  C   UNL     1      10.790  13.213  20.304  0.00  0.00    +0.000 C 
BRANCH  31  32
ATOM     32  C   UNL     1      11.239  14.619  20.634  0.00  0.00    +0.000 C 
ATOM     33  O   UNL     1      12.109  15.212  20.022  0.00  0.00    +0.000 OA
BRANCH  32  34
ATOM     34  O   UNL     1      10.512  15.163  21.626  0.00  0.00    +0.000 OA
ATOM     35  H   UNL     1       9.994  15.952  21.407  0.00  0.00    +0.000 HD
ENDBRANCH  32  34
ENDBRANCH  31  32
ENDBRANCH  30  31
ENDBRANCH  21  22
ENDBRANCH  20  21
ENDBRANCH  19  20
ENDBRANCH   1  19
TORSDOF 13
ENDMDL
