MODEL 1
REMARK VINA RESULT:      -7.1      0.000      0.000
REMARK  Name = 
REMARK  10 active torsions:
REMARK  status: ('A' for Active; 'I' for Inactive)
REMARK    1  A    between atoms: C_1  and  C_2
REMARK    2  A    between atoms: C_2  and  N_3
REMARK    3  A    between atoms: C_4  and  C_5
REMARK    4  A    between atoms: C_5  and  C_6
REMARK    5  A    between atoms: C_6  and  N_7
REMARK    6  A    between atoms: C_8  and  C_10
REMARK    7  A    between atoms: C_13  and  O_14
REMARK    8  A    between atoms: O_14  and  C_15
REMARK    9  A    between atoms: C_16  and  O_17
REMARK   10  A    between atoms: O_17  and  C_18
REMARK                            x       y       z     vdW  Elec       q    Type
REMARK                         _______ _______ _______ _____ _____    ______ ____
ROOT
ATOM      1  N   UNL     1       2.254   4.565  18.438  0.00  0.00    +0.000 N 
ATOM      2  C   UNL     1       2.489   5.431  19.487  0.00  0.00    +0.000 C 
ATOM      3  O   UNL     1       3.006   5.100  20.544  0.00  0.00    +0.000 OA
ATOM      4  H   UNL     1       2.113   4.971  17.522  0.00  0.00    +0.000 HD
ENDROOT
BRANCH   2   5
ATOM      5  C   UNL     1       2.085   6.850  19.301  0.00  0.00    +0.000 A 
ATOM      6  C   UNL     1       2.286   7.409  18.036  0.00  0.00    +0.000 A 
ATOM      7  C   UNL     1       1.999   8.754  17.808  0.00  0.00    +0.000 A 
ATOM      8  C   UNL     1       1.523   9.558  18.847  0.00  0.00    +0.000 A 
ATOM      9  C   UNL     1       1.311   8.995  20.125  0.00  0.00    +0.000 A 
ATOM     10  C   UNL     1       1.593   7.640  20.345  0.00  0.00    +0.000 A 
BRANCH   8  11
ATOM     11  O   UNL     1       1.250  10.896  18.716  0.00  0.00    +0.000 OA
ATOM     12  C   UNL     1       2.294  11.728  18.222  0.00  0.00    +0.000 C 
ENDBRANCH   8  11
BRANCH   9  13
ATOM     13  O   UNL     1       0.854   9.854  21.095  0.00  0.00    +0.000 OA
ATOM     14  C   UNL     1       0.319   9.290  22.284  0.00  0.00    +0.000 C 
ENDBRANCH   9  13
ENDBRANCH   2   5
BRANCH   1  15
ATOM     15  C   UNL     1       2.727   3.186  18.444  0.00  0.00    +0.000 C 
BRANCH  15  16
ATOM     16  C   UNL     1       4.007   2.918  17.641  0.00  0.00    +0.000 C 
BRANCH  16  18
ATOM     17  N   UNL     1       5.349   4.937  16.893  0.00  0.00    +0.000 N 
ATOM     18  C   UNL     1       5.023   3.995  17.845  0.00  0.00    +0.000 A 
ATOM     19  N   UNL     1       5.756   4.153  18.929  0.00  0.00    +0.000 NA
ATOM     20  C   UNL     1       6.569   5.222  18.682  0.00  0.00    +0.000 A 
ATOM     21  C   UNL     1       7.558   5.793  19.494  0.00  0.00    +0.000 A 
ATOM     22  C   UNL     1       8.255   6.909  19.021  0.00  0.00    +0.000 A 
ATOM     23  C   UNL     1       7.971   7.448  17.764  0.00  0.00    +0.000 A 
ATOM     24  C   UNL     1       6.996   6.883  16.935  0.00  0.00    +0.000 A 
ATOM     25  C   UNL     1       6.317   5.759  17.424  0.00  0.00    +0.000 A 
BRANCH  17  27
ATOM     26  C   UNL     1       5.702   4.281  14.533  0.00  0.00    +0.000 C 
ATOM     27  C   UNL     1       4.843   5.026  15.536  0.00  0.00    +0.000 C 
ENDBRANCH  17  27
ENDBRANCH  16  18
ENDBRANCH  15  16
ENDBRANCH   1  15
TORSDOF 7
ENDMDL
MODEL 2
REMARK VINA RESULT:      -6.9      4.123      6.506
REMARK  Name = 
REMARK  10 active torsions:
REMARK  status: ('A' for Active; 'I' for Inactive)
REMARK    1  A    between atoms: C_1  and  C_2
REMARK    2  A    between atoms: C_2  and  N_3
REMARK    3  A    between atoms: C_4  and  C_5
REMARK    4  A    between atoms: C_5  and  C_6
REMARK    5  A    between atoms: C_6  and  N_7
REMARK    6  A    between atoms: C_8  and  C_10
REMARK    7  A    between atoms: C_13  and  O_14
REMARK    8  A    between atoms: O_14  and  C_15
REMARK    9  A    between atoms: C_16  and  O_17
REMARK   10  A    between atoms: O_17  and  C_18
REMARK                            x       y       z     vdW  Elec       q    Type
REMARK                         _______ _______ _______ _____ _____    ______ ____
ROOT
ATOM      1  N   UNL     1       8.557   7.495  19.091  0.00  0.00    +0.000 N 
ATOM      2  C   UNL     1       8.170   8.485  18.210  0.00  0.00    +0.000 C 
ATOM      3  O   UNL     1       7.405   8.305  17.274  0.00  0.00    +0.000 OA
ATOM      4  H   UNL     1       8.932   7.788  19.983  0.00  0.00    +0.000 HD
ENDROOT
BRANCH   2   5
ATOM      5  C   UNL     1       8.725   9.846  18.429  0.00  0.00    +0.000 A 
ATOM      6  C   UNL     1       9.654   9.997  19.463  0.00  0.00    +0.000 A 
ATOM      7  C   UNL     1      10.161  11.257  19.775  0.00  0.00    +0.000 A 
ATOM      8  C   UNL     1       9.734  12.383  19.065  0.00  0.00    +0.000 A 
ATOM      9  C   UNL     1       8.802  12.234  18.014  0.00  0.00    +0.000 A 
ATOM     10  C   UNL     1       8.303  10.963  17.701  0.00  0.00    +0.000 A 
BRANCH   8  11
ATOM     11  O   UNL     1      10.158  13.661  19.331  0.00  0.00    +0.000 OA
ATOM     12  C   UNL     1      10.038  14.120  20.673  0.00  0.00    +0.000 C 
ENDBRANCH   8  11
BRANCH   9  13
ATOM     13  O   UNL     1       8.424  13.390  17.374  0.00  0.00    +0.000 OA
ATOM     14  C   UNL     1       7.098  13.857  17.576  0.00  0.00    +0.000 C 
ENDBRANCH   9  13
ENDBRANCH   2   5
BRANCH   1  15
ATOM     15  C   UNL     1       7.978   6.157  19.065  0.00  0.00    +0.000 C 
BRANCH  15  16
ATOM     16  C   UNL     1       7.369   5.723  17.725  0.00  0.00    +0.000 C 
BRANCH  16  18
ATOM     17  N   UNL     1       5.226   4.611  16.943  0.00  0.00    +0.000 N 
ATOM     18  C   UNL     1       6.171   4.850  17.918  0.00  0.00    +0.000 A 
ATOM     19  N   UNL     1       5.848   4.242  19.042  0.00  0.00    +0.000 NA
ATOM     20  C   UNL     1       4.675   3.588  18.791  0.00  0.00    +0.000 A 
ATOM     21  C   UNL     1       3.888   2.813  19.654  0.00  0.00    +0.000 A 
ATOM     22  C   UNL     1       2.722   2.224  19.155  0.00  0.00    +0.000 A 
ATOM     23  C   UNL     1       2.347   2.402  17.821  0.00  0.00    +0.000 A 
ATOM     24  C   UNL     1       3.114   3.184  16.950  0.00  0.00    +0.000 A 
ATOM     25  C   UNL     1       4.272   3.773  17.473  0.00  0.00    +0.000 A 
BRANCH  17  27
ATOM     26  C   UNL     1       5.761   4.286  14.548  0.00  0.00    +0.000 C 
ATOM     27  C   UNL     1       5.171   5.190  15.613  0.00  0.00    +0.000 C 
ENDBRANCH  17  27
ENDBRANCH  16  18
ENDBRANCH  15  16
ENDBRANCH   1  15
TORSDOF 7
ENDMDL
MODEL 3
REMARK VINA RESULT:      -6.9      4.199      6.410
REMARK  Name = 
REMARK  10 active torsions:
REMARK  status: ('A' for Active; 'I' for Inactive)
REMARK    1  A    between atoms: C_1  and  C_2
REMARK    2  A    between atoms: C_2  and  N_3
REMARK    3  A    between atoms: C_4  and  C_5
REMARK    4  A    between atoms: C_5  and  C_6
REMARK    5  A    between atoms: C_6  and  N_7
REMARK    6  A    between atoms: C_8  and  C_10
REMARK    7  A    between atoms: C_13  and  O_14
REMARK    8  A    between atoms: O_14  and  C_15
REMARK    9  A    between atoms: C_16  and  O_17
REMARK   10  A    between atoms: O_17  and  C_18
REMARK                            x       y       z     vdW  Elec       q    Type
REMARK                         _______ _______ _______ _____ _____    ______ ____
ROOT
ATOM      1  N   UNL     1       8.539   7.450  19.123  0.00  0.00    +0.000 N 
ATOM      2  C   UNL     1       8.211   8.410  18.186  0.00  0.00    +0.000 C 
ATOM      3  O   UNL     1       7.622   8.172  17.142  0.00  0.00    +0.000 OA
ATOM      4  H   UNL     1       8.741   7.768  20.062  0.00  0.00    +0.000 HD
ENDROOT
BRANCH   2   5
ATOM      5  C   UNL     1       8.603   9.813  18.484  0.00  0.00    +0.000 A 
ATOM      6  C   UNL     1       8.384  10.762  17.481  0.00  0.00    +0.000 A 
ATOM      7  C   UNL     1       8.794  12.082  17.661  0.00  0.00    +0.000 A 
ATOM      8  C   UNL     1       9.440  12.464  18.840  0.00  0.00    +0.000 A 
ATOM      9  C   UNL     1       9.657  11.510  19.859  0.00  0.00    +0.000 A 
ATOM     10  C   UNL     1       9.235  10.186  19.674  0.00  0.00    +0.000 A 
BRANCH   8  11
ATOM     11  O   UNL     1       9.905  13.732  19.081  0.00  0.00    +0.000 OA
ATOM     12  C   UNL     1       9.407  14.776  18.251  0.00  0.00    +0.000 C 
ENDBRANCH   8  11
BRANCH   9  13
ATOM     13  O   UNL     1      10.310  11.961  20.980  0.00  0.00    +0.000 OA
ATOM     14  C   UNL     1       9.522  12.408  22.073  0.00  0.00    +0.000 C 
ENDBRANCH   9  13
ENDBRANCH   2   5
BRANCH   1  15
ATOM     15  C   UNL     1       8.090   6.067  19.013  0.00  0.00    +0.000 C 
BRANCH  15  16
ATOM     16  C   UNL     1       7.390   5.698  17.698  0.00  0.00    +0.000 C 
BRANCH  16  18
ATOM     17  N   UNL     1       5.216   4.603  16.982  0.00  0.00    +0.000 N 
ATOM     18  C   UNL     1       6.182   4.850  17.934  0.00  0.00    +0.000 A 
ATOM     19  N   UNL     1       5.870   4.274  19.077  0.00  0.00    +0.000 NA
ATOM     20  C   UNL     1       4.682   3.634  18.863  0.00  0.00    +0.000 A 
ATOM     21  C   UNL     1       3.899   2.892  19.759  0.00  0.00    +0.000 A 
ATOM     22  C   UNL     1       2.715   2.311  19.294  0.00  0.00    +0.000 A 
ATOM     23  C   UNL     1       2.320   2.462  17.963  0.00  0.00    +0.000 A 
ATOM     24  C   UNL     1       3.082   3.210  17.060  0.00  0.00    +0.000 A 
ATOM     25  C   UNL     1       4.259   3.793  17.548  0.00  0.00    +0.000 A 
BRANCH  17  27
ATOM     26  C   UNL     1       5.786   4.251  14.599  0.00  0.00    +0.000 C 
ATOM     27  C   UNL     1       5.147   5.151  15.639  0.00  0.00    +0.000 C 
ENDBRANCH  17  27
ENDBRANCH  16  18
ENDBRANCH  15  16
ENDBRANCH   1  15
TORSDOF 7
ENDMDL
MODEL 4
REMARK VINA RESULT:      -6.9      4.846      7.169
REMARK  Name = 
REMARK  10 active torsions:
REMARK  status: ('A' for Active; 'I' for Inactive)
REMARK    1  A    between atoms: C_1  and  C_2
REMARK    2  A    between atoms: C_2  and  N_3
REMARK    3  A    between atoms: C_4  and  C_5
REMARK    4  A    between atoms: C_5  and  C_6
REMARK    5  A    between atoms: C_6  and  N_7
REMARK    6  A    between atoms: C_8  and  C_10
REMARK    7  A    between atoms: C_13  and  O_14
REMARK    8  A    between atoms: O_14  and  C_15
REMARK    9  A    between atoms: C_16  and  O_17
REMARK   10  A    between atoms: O_17  and  C_18
REMARK                            x       y       z     vdW  Elec       q    Type
REMARK                         _______ _______ _______ _____ _____    ______ ____
ROOT
ATOM      1  N   UNL     1       8.127   9.445  17.751  0.00  0.00    +0.000 N 
ATOM      2  C   UNL     1       8.973  10.155  18.578  0.00  0.00    +0.000 C 
ATOM      3  O   UNL     1       9.466   9.703  19.602  0.00  0.00    +0.000 OA
ATOM      4  H   UNL     1       8.018   9.777  16.801  0.00  0.00    +0.000 HD
ENDROOT
BRANCH   2   5
ATOM      5  C   UNL     1       9.297  11.551  18.183  0.00  0.00    +0.000 A 
ATOM      6  C   UNL     1      10.650  11.897  18.118  0.00  0.00    +0.000 A 
ATOM      7  C   UNL     1      11.027  13.207  17.827  0.00  0.00    +0.000 A 
ATOM      8  C   UNL     1      10.056  14.188  17.611  0.00  0.00    +0.000 A 
ATOM      9  C   UNL     1       8.688  13.841  17.668  0.00  0.00    +0.000 A 
ATOM     10  C   UNL     1       8.316  12.520  17.953  0.00  0.00    +0.000 A 
BRANCH   8  11
ATOM     11  O   UNL     1      10.343  15.505  17.353  0.00  0.00    +0.000 OA
ATOM     12  C   UNL     1      11.178  16.183  18.284  0.00  0.00    +0.000 C 
ENDBRANCH   8  11
BRANCH   9  13
ATOM     13  O   UNL     1       7.796  14.865  17.457  0.00  0.00    +0.000 OA
ATOM     14  C   UNL     1       6.452  14.671  17.874  0.00  0.00    +0.000 C 
ENDBRANCH   9  13
ENDBRANCH   2   5
BRANCH   1  15
ATOM     15  C   UNL     1       7.843   8.029  17.955  0.00  0.00    +0.000 C 
BRANCH  15  16
ATOM     16  C   UNL     1       7.367   7.261  16.714  0.00  0.00    +0.000 C 
BRANCH  16  18
ATOM     17  N   UNL     1       5.875   5.213  16.600  0.00  0.00    +0.000 N 
ATOM     18  C   UNL     1       6.095   6.521  16.975  0.00  0.00    +0.000 A 
ATOM     19  N   UNL     1       5.025   7.029  17.552  0.00  0.00    +0.000 NA
ATOM     20  C   UNL     1       4.092   6.032  17.559  0.00  0.00    +0.000 A 
ATOM     21  C   UNL     1       2.772   6.053  18.030  0.00  0.00    +0.000 A 
ATOM     22  C   UNL     1       2.008   4.886  17.942  0.00  0.00    +0.000 A 
ATOM     23  C   UNL     1       2.547   3.718  17.397  0.00  0.00    +0.000 A 
ATOM     24  C   UNL     1       3.858   3.683  16.909  0.00  0.00    +0.000 A 
ATOM     25  C   UNL     1       4.603   4.867  16.997  0.00  0.00    +0.000 A 
BRANCH  17  27
ATOM     26  C   UNL     1       6.482   4.359  14.358  0.00  0.00    +0.000 C 
ATOM     27  C   UNL     1       6.768   4.352  15.847  0.00  0.00    +0.000 C 
ENDBRANCH  17  27
ENDBRANCH  16  18
ENDBRANCH  15  16
ENDBRANCH   1  15
TORSDOF 7
ENDMDL
MODEL 5
REMARK VINA RESULT:      -6.8      4.808      7.387
REMARK  Name = 
REMARK  10 active torsions:
REMARK  status: ('A' for Active; 'I' for Inactive)
REMARK    1  A    between atoms: C_1  and  C_2
REMARK    2  A    between atoms: C_2  and  N_3
REMARK    3  A    between atoms: C_4  and  C_5
REMARK    4  A    between atoms: C_5  and  C_6
REMARK    5  A    between atoms: C_6  and  N_7
REMARK    6  A    between atoms: C_8  and  C_10
REMARK    7  A    between atoms: C_13  and  O_14
REMARK    8  A    between atoms: O_14  and  C_15
REMARK    9  A    between atoms: C_16  and  O_17
REMARK   10  A    between atoms: O_17  and  C_18
REMARK                            x       y       z     vdW  Elec       q    Type
REMARK                         _______ _______ _______ _____ _____    ______ ____
ROOT
ATOM      1  N   UNL     1       7.069   8.013  17.655  0.00  0.00    +0.000 N 
ATOM      2  C   UNL     1       6.993   6.844  16.925  0.00  0.00    +0.000 C 
ATOM      3  O   UNL     1       7.841   6.484  16.121  0.00  0.00    +0.000 OA
ATOM      4  H   UNL     1       6.502   8.078  18.490  0.00  0.00    +0.000 HD
ENDROOT
BRANCH   2   5
ATOM      5  C   UNL     1       5.803   5.981  17.145  0.00  0.00    +0.000 A 
ATOM      6  C   UNL     1       5.860   4.678  16.644  0.00  0.00    +0.000 A 
ATOM      7  C   UNL     1       4.754   3.836  16.749  0.00  0.00    +0.000 A 
ATOM      8  C   UNL     1       3.574   4.293  17.342  0.00  0.00    +0.000 A 
ATOM      9  C   UNL     1       3.515   5.607  17.857  0.00  0.00    +0.000 A 
ATOM     10  C   UNL     1       4.634   6.445  17.756  0.00  0.00    +0.000 A 
BRANCH   8  11
ATOM     11  O   UNL     1       2.432   3.541  17.453  0.00  0.00    +0.000 OA
ATOM     12  C   UNL     1       2.499   2.373  18.263  0.00  0.00    +0.000 C 
ENDBRANCH   8  11
BRANCH   9  13
ATOM     13  O   UNL     1       2.316   5.985  18.412  0.00  0.00    +0.000 OA
ATOM     14  C   UNL     1       2.299   6.312  19.794  0.00  0.00    +0.000 C 
ENDBRANCH   9  13
ENDBRANCH   2   5
BRANCH   1  15
ATOM     15  C   UNL     1       8.247   8.873  17.631  0.00  0.00    +0.000 C 
BRANCH  15  16
ATOM     16  C   UNL     1       8.671   9.458  18.985  0.00  0.00    +0.000 C 
BRANCH  16  18
ATOM     17  N   UNL     1       9.978  11.449  19.860  0.00  0.00    +0.000 N 
ATOM     18  C   UNL     1       9.569  10.641  18.820  0.00  0.00    +0.000 A 
ATOM     19  N   UNL     1      10.044  11.080  17.672  0.00  0.00    +0.000 NA
ATOM     20  C   UNL     1      10.782  12.190  17.970  0.00  0.00    +0.000 A 
ATOM     21  C   UNL     1      11.478  13.051  17.110  0.00  0.00    +0.000 A 
ATOM     22  C   UNL     1      12.183  14.126  17.661  0.00  0.00    +0.000 A 
ATOM     23  C   UNL     1      12.196  14.339  19.042  0.00  0.00    +0.000 A 
ATOM     24  C   UNL     1      11.495  13.497  19.913  0.00  0.00    +0.000 A 
ATOM     25  C   UNL     1      10.787  12.433  19.339  0.00  0.00    +0.000 A 
BRANCH  17  27
ATOM     26  C   UNL     1       8.554  12.407  21.644  0.00  0.00    +0.000 C 
ATOM     27  C   UNL     1       9.577  11.359  21.252  0.00  0.00    +0.000 C 
ENDBRANCH  17  27
ENDBRANCH  16  18
ENDBRANCH  15  16
ENDBRANCH   1  15
TORSDOF 7
ENDMDL
MODEL 6
REMARK VINA RESULT:      -6.8      1.384      2.172
REMARK  Name = 
REMARK  10 active torsions:
REMARK  status: ('A' for Active; 'I' for Inactive)
REMARK    1  A    between atoms: C_1  and  C_2
REMARK    2  A    between atoms: C_2  and  N_3
REMARK    3  A    between atoms: C_4  and  C_5
REMARK    4  A    between atoms: C_5  and  C_6
REMARK    5  A    between atoms: C_6  and  N_7
REMARK    6  A    between atoms: C_8  and  C_10
REMARK    7  A    between atoms: C_13  and  O_14
REMARK    8  A    between atoms: O_14  and  C_15
REMARK    9  A    between atoms: C_16  and  O_17
REMARK   10  A    between atoms: O_17  and  C_18
REMARK                            x       y       z     vdW  Elec       q    Type
REMARK                         _______ _______ _______ _____ _____    ______ ____
ROOT
ATOM      1  N   UNL     1       2.890   4.759  20.839  0.00  0.00    +0.000 N 
ATOM      2  C   UNL     1       1.633   5.241  20.533  0.00  0.00    +0.000 C 
ATOM      3  O   UNL     1       0.624   4.551  20.508  0.00  0.00    +0.000 OA
ATOM      4  H   UNL     1       3.587   5.431  21.128  0.00  0.00    +0.000 HD
ENDROOT
BRANCH   2   5
ATOM      5  C   UNL     1       1.517   6.690  20.222  0.00  0.00    +0.000 A 
ATOM      6  C   UNL     1       1.972   7.110  18.969  0.00  0.00    +0.000 A 
ATOM      7  C   UNL     1       1.963   8.464  18.635  0.00  0.00    +0.000 A 
ATOM      8  C   UNL     1       1.513   9.413  19.557  0.00  0.00    +0.000 A 
ATOM      9  C   UNL     1       1.045   8.991  20.822  0.00  0.00    +0.000 A 
ATOM     10  C   UNL     1       1.049   7.628  21.147  0.00  0.00    +0.000 A 
BRANCH   8  11
ATOM     11  O   UNL     1       1.503  10.765  19.321  0.00  0.00    +0.000 OA
ATOM     12  C   UNL     1       2.189  11.227  18.163  0.00  0.00    +0.000 C 
ENDBRANCH   8  11
BRANCH   9  13
ATOM     13  O   UNL     1       0.632   9.986  21.675  0.00  0.00    +0.000 OA
ATOM     14  C   UNL     1      -0.367   9.667  22.633  0.00  0.00    +0.000 C 
ENDBRANCH   9  13
ENDBRANCH   2   5
BRANCH   1  15
ATOM     15  C   UNL     1       3.111   3.391  21.294  0.00  0.00    +0.000 C 
BRANCH  15  16
ATOM     16  C   UNL     1       3.927   2.500  20.348  0.00  0.00    +0.000 C 
BRANCH  16  18
ATOM     17  N   UNL     1       4.095   3.414  17.987  0.00  0.00    +0.000 N 
ATOM     18  C   UNL     1       4.587   3.297  19.269  0.00  0.00    +0.000 A 
ATOM     19  N   UNL     1       5.729   3.945  19.394  0.00  0.00    +0.000 NA
ATOM     20  C   UNL     1       5.980   4.500  18.172  0.00  0.00    +0.000 A 
ATOM     21  C   UNL     1       7.076   5.267  17.753  0.00  0.00    +0.000 A 
ATOM     22  C   UNL     1       7.101   5.744  16.439  0.00  0.00    +0.000 A 
ATOM     23  C   UNL     1       6.053   5.466  15.559  0.00  0.00    +0.000 A 
ATOM     24  C   UNL     1       4.958   4.690  15.956  0.00  0.00    +0.000 A 
ATOM     25  C   UNL     1       4.959   4.213  17.273  0.00  0.00    +0.000 A 
BRANCH  17  27
ATOM     26  C   UNL     1       1.697   3.647  17.423  0.00  0.00    +0.000 C 
ATOM     27  C   UNL     1       2.925   2.758  17.432  0.00  0.00    +0.000 C 
ENDBRANCH  17  27
ENDBRANCH  16  18
ENDBRANCH  15  16
ENDBRANCH   1  15
TORSDOF 7
ENDMDL
MODEL 7
REMARK VINA RESULT:      -6.8      3.504      8.404
REMARK  Name = 
REMARK  10 active torsions:
REMARK  status: ('A' for Active; 'I' for Inactive)
REMARK    1  A    between atoms: C_1  and  C_2
REMARK    2  A    between atoms: C_2  and  N_3
REMARK    3  A    between atoms: C_4  and  C_5
REMARK    4  A    between atoms: C_5  and  C_6
REMARK    5  A    between atoms: C_6  and  N_7
REMARK    6  A    between atoms: C_8  and  C_10
REMARK    7  A    between atoms: C_13  and  O_14
REMARK    8  A    between atoms: O_14  and  C_15
REMARK    9  A    between atoms: C_16  and  O_17
REMARK   10  A    between atoms: O_17  and  C_18
REMARK                            x       y       z     vdW  Elec       q    Type
REMARK                         _______ _______ _______ _____ _____    ______ ____
ROOT
ATOM      1  N   UNL     1       1.955   8.463  17.623  0.00  0.00    +0.000 N 
ATOM      2  C   UNL     1       2.438   7.491  18.476  0.00  0.00    +0.000 C 
ATOM      3  O   UNL     1       2.123   7.397  19.654  0.00  0.00    +0.000 OA
ATOM      4  H   UNL     1       2.026   8.286  16.630  0.00  0.00    +0.000 HD
ENDROOT
BRANCH   2   5
ATOM      5  C   UNL     1       3.397   6.506  17.911  0.00  0.00    +0.000 A 
ATOM      6  C   UNL     1       4.466   7.012  17.166  0.00  0.00    +0.000 A 
ATOM      7  C   UNL     1       5.363   6.144  16.545  0.00  0.00    +0.000 A 
ATOM      8  C   UNL     1       5.192   4.761  16.649  0.00  0.00    +0.000 A 
ATOM      9  C   UNL     1       4.117   4.246  17.408  0.00  0.00    +0.000 A 
ATOM     10  C   UNL     1       3.225   5.124  18.037  0.00  0.00    +0.000 A 
BRANCH   8  11
ATOM     11  O   UNL     1       6.008   3.841  16.041  0.00  0.00    +0.000 OA
ATOM     12  C   UNL     1       6.286   4.031  14.659  0.00  0.00    +0.000 C 
ENDBRANCH   8  11
BRANCH   9  13
ATOM     13  O   UNL     1       4.011   2.876  17.452  0.00  0.00    +0.000 OA
ATOM     14  C   UNL     1       3.653   2.277  18.688  0.00  0.00    +0.000 C 
ENDBRANCH   9  13
ENDBRANCH   2   5
BRANCH   1  15
ATOM     15  C   UNL     1       0.909   9.399  18.019  0.00  0.00    +0.000 C 
BRANCH  15  16
ATOM     16  C   UNL     1       1.370  10.588  18.874  0.00  0.00    +0.000 C 
BRANCH  16  18
ATOM     17  N   UNL     1      -0.757  11.784  19.567  0.00  0.00    +0.000 N 
ATOM     18  C   UNL     1       0.330  10.991  19.868  0.00  0.00    +0.000 A 
ATOM     19  N   UNL     1       0.342  10.680  21.149  0.00  0.00    +0.000 NA
ATOM     20  C   UNL     1      -0.762  11.274  21.690  0.00  0.00    +0.000 A 
ATOM     21  C   UNL     1      -1.205  11.282  23.020  0.00  0.00    +0.000 A 
ATOM     22  C   UNL     1      -2.389  11.956  23.331  0.00  0.00    +0.000 A 
ATOM     23  C   UNL     1      -3.122  12.608  22.336  0.00  0.00    +0.000 A 
ATOM     24  C   UNL     1      -2.687  12.622  21.006  0.00  0.00    +0.000 A 
ATOM     25  C   UNL     1      -1.492  11.950  20.719  0.00  0.00    +0.000 A 
BRANCH  17  27
ATOM     26  C   UNL     1      -2.062  11.636  17.469  0.00  0.00    +0.000 C 
ATOM     27  C   UNL     1      -1.058  12.416  18.296  0.00  0.00    +0.000 C 
ENDBRANCH  17  27
ENDBRANCH  16  18
ENDBRANCH  15  16
ENDBRANCH   1  15
TORSDOF 7
ENDMDL
MODEL 8
REMARK VINA RESULT:      -6.7      3.332      8.161
REMARK  Name = 
REMARK  10 active torsions:
REMARK  status: ('A' for Active; 'I' for Inactive)
REMARK    1  A    between atoms: C_1  and  C_2
REMARK    2  A    between atoms: C_2  and  N_3
REMARK    3  A    between atoms: C_4  and  C_5
REMARK    4  A    between atoms: C_5  and  C_6
REMARK    5  A    between atoms: C_6  and  N_7
REMARK    6  A    between atoms: C_8  and  C_10
REMARK    7  A    between atoms: C_13  and  O_14
REMARK    8  A    between atoms: O_14  and  C_15
REMARK    9  A    between atoms: C_16  and  O_17
REMARK   10  A    between atoms: O_17  and  C_18
REMARK                            x       y       z     vdW  Elec       q    Type
REMARK                         _______ _______ _______ _____ _____    ______ ____
ROOT
ATOM      1  N   UNL     1       2.220   7.281  20.316  0.00  0.00    +0.000 N 
ATOM      2  C   UNL     1       2.286   5.909  20.179  0.00  0.00    +0.000 C 
ATOM      3  O   UNL     1       1.621   5.124  20.838  0.00  0.00    +0.000 OA
ATOM      4  H   UNL     1       2.562   7.842  19.547  0.00  0.00    +0.000 HD
ENDROOT
BRANCH   2   5
ATOM      5  C   UNL     1       3.226   5.372  19.160  0.00  0.00    +0.000 A 
ATOM      6  C   UNL     1       2.668   4.863  17.984  0.00  0.00    +0.000 A 
ATOM      7  C   UNL     1       3.481   4.277  17.016  0.00  0.00    +0.000 A 
ATOM      8  C   UNL     1       4.861   4.179  17.221  0.00  0.00    +0.000 A 
ATOM      9  C   UNL     1       5.430   4.699  18.405  0.00  0.00    +0.000 A 
ATOM     10  C   UNL     1       4.606   5.295  19.369  0.00  0.00    +0.000 A 
BRANCH   8  11
ATOM     11  O   UNL     1       5.725   3.586  16.335  0.00  0.00    +0.000 OA
ATOM     12  C   UNL     1       5.963   4.264  15.107  0.00  0.00    +0.000 C 
ENDBRANCH   8  11
BRANCH   9  13
ATOM     13  O   UNL     1       6.790   4.552  18.536  0.00  0.00    +0.000 OA
ATOM     14  C   UNL     1       7.573   5.727  18.687  0.00  0.00    +0.000 C 
ENDBRANCH   9  13
ENDBRANCH   2   5
BRANCH   1  15
ATOM     15  C   UNL     1       1.243   7.933  21.180  0.00  0.00    +0.000 C 
BRANCH  15  16
ATOM     16  C   UNL     1       1.196   9.465  21.094  0.00  0.00    +0.000 C 
BRANCH  16  18
ATOM     17  N   UNL     1      -0.827  10.850  20.444  0.00  0.00    +0.000 N 
ATOM     18  C   UNL     1       0.153   9.933  20.131  0.00  0.00    +0.000 A 
ATOM     19  N   UNL     1       0.014   9.504  18.893  0.00  0.00    +0.000 NA
ATOM     20  C   UNL     1      -1.072  10.159  18.388  0.00  0.00    +0.000 A 
ATOM     21  C   UNL     1      -1.667  10.049  17.123  0.00  0.00    +0.000 A 
ATOM     22  C   UNL     1      -2.776  10.848  16.830  0.00  0.00    +0.000 A 
ATOM     23  C   UNL     1      -3.283  11.741  17.777  0.00  0.00    +0.000 A 
ATOM     24  C   UNL     1      -2.710  11.854  19.048  0.00  0.00    +0.000 A 
ATOM     25  C   UNL     1      -1.606  11.037  19.325  0.00  0.00    +0.000 A 
BRANCH  17  27
ATOM     26  C   UNL     1      -0.411  12.821  21.882  0.00  0.00    +0.000 C 
ATOM     27  C   UNL     1      -1.075  11.466  21.735  0.00  0.00    +0.000 C 
ENDBRANCH  17  27
ENDBRANCH  16  18
ENDBRANCH  15  16
ENDBRANCH   1  15
TORSDOF 7
ENDMDL
MODEL 9
REMARK VINA RESULT:      -6.7      3.891      8.493
REMARK  Name = 
REMARK  10 active torsions:
REMARK  status: ('A' for Active; 'I' for Inactive)
REMARK    1  A    between atoms: C_1  and  C_2
REMARK    2  A    between atoms: C_2  and  N_3
REMARK    3  A    between atoms: C_4  and  C_5
REMARK    4  A    between atoms: C_5  and  C_6
REMARK    5  A    between atoms: C_6  and  N_7
REMARK    6  A    between atoms: C_8  and  C_10
REMARK    7  A    between atoms: C_13  and  O_14
REMARK    8  A    between atoms: O_14  and  C_15
REMARK    9  A    between atoms: C_16  and  O_17
REMARK   10  A    between atoms: O_17  and  C_18
REMARK                            x       y       z     vdW  Elec       q    Type
REMARK                         _______ _______ _______ _____ _____    ______ ____
ROOT
ATOM      1  N   UNL     1       1.770   8.285  19.630  0.00  0.00    +0.000 N 
ATOM      2  C   UNL     1       1.994   6.951  19.901  0.00  0.00    +0.000 C 
ATOM      3  O   UNL     1       1.582   6.377  20.899  0.00  0.00    +0.000 OA
ATOM      4  H   UNL     1       1.877   8.590  18.671  0.00  0.00    +0.000 HD
ENDROOT
BRANCH   2   5
ATOM      5  C   UNL     1       2.783   6.178  18.906  0.00  0.00    +0.000 A 
ATOM      6  C   UNL     1       3.661   6.898  18.090  0.00  0.00    +0.000 A 
ATOM      7  C   UNL     1       4.378   6.251  17.086  0.00  0.00    +0.000 A 
ATOM      8  C   UNL     1       4.215   4.879  16.876  0.00  0.00    +0.000 A 
ATOM      9  C   UNL     1       3.335   4.146  17.703  0.00  0.00    +0.000 A 
ATOM     10  C   UNL     1       2.623   4.802  18.716  0.00  0.00    +0.000 A 
BRANCH   8  11
ATOM     11  O   UNL     1       4.856   4.174  15.889  0.00  0.00    +0.000 OA
ATOM     12  C   UNL     1       6.276   4.108  15.955  0.00  0.00    +0.000 C 
ENDBRANCH   8  11
BRANCH   9  13
ATOM     13  O   UNL     1       3.220   2.805  17.424  0.00  0.00    +0.000 OA
ATOM     14  C   UNL     1       3.522   1.883  18.461  0.00  0.00    +0.000 C 
ENDBRANCH   9  13
ENDBRANCH   2   5
BRANCH   1  15
ATOM     15  C   UNL     1       0.899   9.114  20.456  0.00  0.00    +0.000 C 
BRANCH  15  16
ATOM     16  C   UNL     1       0.676  10.548  19.956  0.00  0.00    +0.000 C 
BRANCH  16  18
ATOM     17  N   UNL     1      -1.626  11.371  19.280  0.00  0.00    +0.000 N 
ATOM     18  C   UNL     1      -0.490  10.634  19.025  0.00  0.00    +0.000 A 
ATOM     19  N   UNL     1      -0.596   9.992  17.879  0.00  0.00    +0.000 NA
ATOM     20  C   UNL     1      -1.822  10.324  17.374  0.00  0.00    +0.000 A 
ATOM     21  C   UNL     1      -2.442   9.894  16.193  0.00  0.00    +0.000 A 
ATOM     22  C   UNL     1      -3.709  10.394  15.879  0.00  0.00    +0.000 A 
ATOM     23  C   UNL     1      -4.347  11.306  16.723  0.00  0.00    +0.000 A 
ATOM     24  C   UNL     1      -3.748  11.735  17.913  0.00  0.00    +0.000 A 
ATOM     25  C   UNL     1      -2.482  11.214  18.214  0.00  0.00    +0.000 A 
BRANCH  17  27
ATOM     26  C   UNL     1      -1.595  13.597  20.363  0.00  0.00    +0.000 C 
ATOM     27  C   UNL     1      -1.934  12.123  20.483  0.00  0.00    +0.000 C 
ENDBRANCH  17  27
ENDBRANCH  16  18
ENDBRANCH  15  16
ENDBRANCH   1  15
TORSDOF 7
ENDMDL
