MODEL 1
REMARK VINA RESULT:      -7.0      0.000      0.000
REMARK  Name = 
REMARK  5 active torsions:
REMARK  status: ('A' for Active; 'I' for Inactive)
REMARK    1  A    between atoms: C_1  and  C_2
REMARK    2  A    between atoms: C_2  and  N_3
REMARK    3  A    between atoms: N_6  and  C_7
REMARK    4  A    between atoms: C_7  and  C_8
REMARK    5  A    between atoms: N_10  and  C_11
REMARK                            x       y       z     vdW  Elec       q    Type
REMARK                         _______ _______ _______ _____ _____    ______ ____
ROOT
ATOM      1  C   UNL     1       5.011   5.112  18.314  0.00  0.00    +0.000 A 
ATOM      2  N   UNL     1       4.505   6.326  18.018  0.00  0.00    +0.000 NA
ATOM      3  N   UNL     1       3.319   6.361  18.665  0.00  0.00    +0.000 N 
ATOM      4  C   UNL     1       2.495   7.544  18.602  0.00  0.00    +0.000 C 
ATOM      5  C   UNL     1       3.054   5.216  19.354  0.00  0.00    +0.000 A 
ATOM      6  C   UNL     1       4.129   4.380  19.147  0.00  0.00    +0.000 A 
ATOM      7  C   UNL     1       4.236   3.035  19.776  0.00  0.00    +0.000 C 
ATOM      8  C   UNL     1       2.867   2.568  20.312  0.00  0.00    +0.000 C 
ATOM      9  C   UNL     1       2.117   3.689  21.060  0.00  0.00    +0.000 C 
ATOM     10  C   UNL     1       1.844   4.911  20.161  0.00  0.00    +0.000 C 
ENDROOT
BRANCH   1  11
ATOM     11  C   UNL     1       6.369   4.694  17.838  0.00  0.00    +0.000 C 
BRANCH  11  15
ATOM     12  N   UNL     1       6.245   3.525  14.418  0.00  0.00    +0.000 N 
ATOM     13  C   UNL     1       6.509   4.400  15.438  0.00  0.00    +0.000 C 
ATOM     14  O   UNL     1       6.920   5.541  15.274  0.00  0.00    +0.000 OA
ATOM     15  N   UNL     1       6.266   3.849  16.666  0.00  0.00    +0.000 N 
ATOM     16  H   UNL     1       6.225   2.546  14.662  0.00  0.00    +0.000 HD
ATOM     17  H   UNL     1       5.545   3.144  16.731  0.00  0.00    +0.000 HD
BRANCH  12  19
ATOM     18  C   UNL     1       5.559   3.146  12.077  0.00  0.00    +0.000 C 
ATOM     19  C   UNL     1       6.478   3.887  13.034  0.00  0.00    +0.000 C 
ENDBRANCH  12  19
ENDBRANCH  11  15
ENDBRANCH   1  11
TORSDOF 3
ENDMDL
MODEL 2
REMARK VINA RESULT:      -7.0      1.271      2.692
REMARK  Name = 
REMARK  5 active torsions:
REMARK  status: ('A' for Active; 'I' for Inactive)
REMARK    1  A    between atoms: C_1  and  C_2
REMARK    2  A    between atoms: C_2  and  N_3
REMARK    3  A    between atoms: N_6  and  C_7
REMARK    4  A    between atoms: C_7  and  C_8
REMARK    5  A    between atoms: N_10  and  C_11
REMARK                            x       y       z     vdW  Elec       q    Type
REMARK                         _______ _______ _______ _____ _____    ______ ____
ROOT
ATOM      1  C   UNL     1       5.641   4.671  17.964  0.00  0.00    +0.000 A 
ATOM      2  N   UNL     1       5.371   3.669  18.826  0.00  0.00    +0.000 NA
ATOM      3  N   UNL     1       4.167   3.993  19.348  0.00  0.00    +0.000 N 
ATOM      4  C   UNL     1       3.534   3.116  20.303  0.00  0.00    +0.000 C 
ATOM      5  C   UNL     1       3.669   5.161  18.855  0.00  0.00    +0.000 A 
ATOM      6  C   UNL     1       4.600   5.633  17.956  0.00  0.00    +0.000 A 
ATOM      7  C   UNL     1       4.399   6.878  17.168  0.00  0.00    +0.000 C 
ATOM      8  C   UNL     1       3.269   7.737  17.773  0.00  0.00    +0.000 C 
ATOM      9  C   UNL     1       2.041   6.893  18.169  0.00  0.00    +0.000 C 
ATOM     10  C   UNL     1       2.384   5.816  19.216  0.00  0.00    +0.000 C 
ENDROOT
BRANCH   1  11
ATOM     11  C   UNL     1       6.875   4.660  17.115  0.00  0.00    +0.000 C 
BRANCH  11  15
ATOM     12  N   UNL     1       6.335   3.312  13.803  0.00  0.00    +0.000 N 
ATOM     13  C   UNL     1       6.605   4.275  14.739  0.00  0.00    +0.000 C 
ATOM     14  O   UNL     1       6.731   5.464  14.483  0.00  0.00    +0.000 OA
ATOM     15  N   UNL     1       6.724   3.752  15.997  0.00  0.00    +0.000 N 
ATOM     16  H   UNL     1       6.565   2.363  14.057  0.00  0.00    +0.000 HD
ATOM     17  H   UNL     1       6.190   2.921  16.213  0.00  0.00    +0.000 HD
BRANCH  12  19
ATOM     18  C   UNL     1       4.832   3.336  11.845  0.00  0.00    +0.000 C 
ATOM     19  C   UNL     1       6.215   3.640  12.396  0.00  0.00    +0.000 C 
ENDBRANCH  12  19
ENDBRANCH  11  15
ENDBRANCH   1  11
TORSDOF 3
ENDMDL
MODEL 3
REMARK VINA RESULT:      -7.0      1.182      1.218
REMARK  Name = 
REMARK  5 active torsions:
REMARK  status: ('A' for Active; 'I' for Inactive)
REMARK    1  A    between atoms: C_1  and  C_2
REMARK    2  A    between atoms: C_2  and  N_3
REMARK    3  A    between atoms: N_6  and  C_7
REMARK    4  A    between atoms: C_7  and  C_8
REMARK    5  A    between atoms: N_10  and  C_11
REMARK                            x       y       z     vdW  Elec       q    Type
REMARK                         _______ _______ _______ _____ _____    ______ ____
ROOT
ATOM      1  C   UNL     1       4.931   5.071  17.624  0.00  0.00    +0.000 A 
ATOM      2  N   UNL     1       4.538   6.348  17.799  0.00  0.00    +0.000 NA
ATOM      3  N   UNL     1       3.241   6.252  18.167  0.00  0.00    +0.000 N 
ATOM      4  C   UNL     1       2.487   7.443  18.476  0.00  0.00    +0.000 C 
ATOM      5  C   UNL     1       2.798   4.965  18.226  0.00  0.00    +0.000 A 
ATOM      6  C   UNL     1       3.867   4.170  17.877  0.00  0.00    +0.000 A 
ATOM      7  C   UNL     1       3.794   2.683  17.864  0.00  0.00    +0.000 C 
ATOM      8  C   UNL     1       2.328   2.204  17.881  0.00  0.00    +0.000 C 
ATOM      9  C   UNL     1       1.467   2.988  18.892  0.00  0.00    +0.000 C 
ATOM     10  C   UNL     1       1.433   4.498  18.583  0.00  0.00    +0.000 C 
ENDROOT
BRANCH   1  11
ATOM     11  C   UNL     1       6.346   4.729  17.270  0.00  0.00    +0.000 C 
BRANCH  11  15
ATOM     12  N   UNL     1       6.327   3.335  13.934  0.00  0.00    +0.000 N 
ATOM     13  C   UNL     1       6.422   4.316  14.885  0.00  0.00    +0.000 C 
ATOM     14  O   UNL     1       6.528   5.509  14.633  0.00  0.00    +0.000 OA
ATOM     15  N   UNL     1       6.392   3.808  16.154  0.00  0.00    +0.000 N 
ATOM     16  H   UNL     1       6.563   2.400  14.229  0.00  0.00    +0.000 HD
ATOM     17  H   UNL     1       5.872   2.954  16.306  0.00  0.00    +0.000 HD
BRANCH  12  19
ATOM     18  C   UNL     1       5.613   2.651  11.671  0.00  0.00    +0.000 C 
ATOM     19  C   UNL     1       6.386   3.648  12.519  0.00  0.00    +0.000 C 
ENDBRANCH  12  19
ENDBRANCH  11  15
ENDBRANCH   1  11
TORSDOF 3
ENDMDL
MODEL 4
REMARK VINA RESULT:      -6.8      3.049      4.836
REMARK  Name = 
REMARK  5 active torsions:
REMARK  status: ('A' for Active; 'I' for Inactive)
REMARK    1  A    between atoms: C_1  and  C_2
REMARK    2  A    between atoms: C_2  and  N_3
REMARK    3  A    between atoms: N_6  and  C_7
REMARK    4  A    between atoms: C_7  and  C_8
REMARK    5  A    between atoms: N_10  and  C_11
REMARK                            x       y       z     vdW  Elec       q    Type
REMARK                         _______ _______ _______ _____ _____    ______ ____
ROOT
ATOM      1  C   UNL     1       5.883   4.829  18.455  0.00  0.00    +0.000 A 
ATOM      2  N   UNL     1       5.712   3.689  19.154  0.00  0.00    +0.000 NA
ATOM      3  N   UNL     1       4.387   3.653  19.417  0.00  0.00    +0.000 N 
ATOM      4  C   UNL     1       3.822   2.537  20.135  0.00  0.00    +0.000 C 
ATOM      5  C   UNL     1       3.716   4.728  18.917  0.00  0.00    +0.000 A 
ATOM      6  C   UNL     1       4.655   5.515  18.288  0.00  0.00    +0.000 A 
ATOM      7  C   UNL     1       4.304   6.773  17.573  0.00  0.00    +0.000 C 
ATOM      8  C   UNL     1       2.896   7.259  17.975  0.00  0.00    +0.000 C 
ATOM      9  C   UNL     1       1.869   6.109  18.020  0.00  0.00    +0.000 C 
ATOM     10  C   UNL     1       2.261   5.014  19.031  0.00  0.00    +0.000 C 
ENDROOT
BRANCH   1  11
ATOM     11  C   UNL     1       7.222   5.215  17.905  0.00  0.00    +0.000 C 
BRANCH  11  15
ATOM     12  N   UNL     1       8.592   8.438  18.807  0.00  0.00    +0.000 N 
ATOM     13  C   UNL     1       7.923   7.530  18.029  0.00  0.00    +0.000 C 
ATOM     14  O   UNL     1       7.490   7.772  16.911  0.00  0.00    +0.000 OA
ATOM     15  N   UNL     1       7.788   6.319  18.651  0.00  0.00    +0.000 N 
ATOM     16  H   UNL     1       8.618   8.247  19.797  0.00  0.00    +0.000 HD
ATOM     17  H   UNL     1       8.506   6.045  19.307  0.00  0.00    +0.000 HD
BRANCH  12  19
ATOM     18  C   UNL     1       9.628  10.612  19.347  0.00  0.00    +0.000 C 
ATOM     19  C   UNL     1       8.806   9.800  18.360  0.00  0.00    +0.000 C 
ENDBRANCH  12  19
ENDBRANCH  11  15
ENDBRANCH   1  11
TORSDOF 3
ENDMDL
MODEL 5
REMARK VINA RESULT:      -6.7      1.571      2.614
REMARK  Name = 
REMARK  5 active torsions:
REMARK  status: ('A' for Active; 'I' for Inactive)
REMARK    1  A    between atoms: C_1  and  C_2
REMARK    2  A    between atoms: C_2  and  N_3
REMARK    3  A    between atoms: N_6  and  C_7
REMARK    4  A    between atoms: C_7  and  C_8
REMARK    5  A    between atoms: N_10  and  C_11
REMARK                            x       y       z     vdW  Elec       q    Type
REMARK                         _______ _______ _______ _____ _____    ______ ____
ROOT
ATOM      1  C   UNL     1       5.061   4.919  19.007  0.00  0.00    +0.000 A 
ATOM      2  N   UNL     1       5.508   3.660  19.182  0.00  0.00    +0.000 NA
ATOM      3  N   UNL     1       4.489   3.025  19.802  0.00  0.00    +0.000 N 
ATOM      4  C   UNL     1       4.600   1.623  20.125  0.00  0.00    +0.000 C 
ATOM      5  C   UNL     1       3.418   3.835  20.031  0.00  0.00    +0.000 A 
ATOM      6  C   UNL     1       3.753   5.074  19.533  0.00  0.00    +0.000 A 
ATOM      7  C   UNL     1       2.818   6.231  19.555  0.00  0.00    +0.000 C 
ATOM      8  C   UNL     1       1.655   5.980  20.538  0.00  0.00    +0.000 C 
ATOM      9  C   UNL     1       1.082   4.554  20.413  0.00  0.00    +0.000 C 
ATOM     10  C   UNL     1       2.141   3.471  20.699  0.00  0.00    +0.000 C 
ENDROOT
BRANCH   1  11
ATOM     11  C   UNL     1       5.877   5.946  18.284  0.00  0.00    +0.000 C 
BRANCH  11  15
ATOM     12  N   UNL     1       6.248   5.398  14.729  0.00  0.00    +0.000 N 
ATOM     13  C   UNL     1       6.540   5.255  16.059  0.00  0.00    +0.000 C 
ATOM     14  O   UNL     1       7.499   4.627  16.488  0.00  0.00    +0.000 OA
ATOM     15  N   UNL     1       5.630   5.891  16.858  0.00  0.00    +0.000 N 
ATOM     16  H   UNL     1       5.297   5.646  14.503  0.00  0.00    +0.000 HD
ATOM     17  H   UNL     1       5.176   6.715  16.489  0.00  0.00    +0.000 HD
BRANCH  12  19
ATOM     18  C   UNL     1       6.303   3.676  12.960  0.00  0.00    +0.000 C 
ATOM     19  C   UNL     1       7.058   4.764  13.707  0.00  0.00    +0.000 C 
ENDBRANCH  12  19
ENDBRANCH  11  15
ENDBRANCH   1  11
TORSDOF 3
ENDMDL
MODEL 6
REMARK VINA RESULT:      -6.7      1.912      2.700
REMARK  Name = 
REMARK  5 active torsions:
REMARK  status: ('A' for Active; 'I' for Inactive)
REMARK    1  A    between atoms: C_1  and  C_2
REMARK    2  A    between atoms: C_2  and  N_3
REMARK    3  A    between atoms: N_6  and  C_7
REMARK    4  A    between atoms: C_7  and  C_8
REMARK    5  A    between atoms: N_10  and  C_11
REMARK                            x       y       z     vdW  Elec       q    Type
REMARK                         _______ _______ _______ _____ _____    ______ ____
ROOT
ATOM      1  C   UNL     1       4.878   3.882  18.360  0.00  0.00    +0.000 A 
ATOM      2  N   UNL     1       5.450   3.205  19.375  0.00  0.00    +0.000 NA
ATOM      3  N   UNL     1       4.421   2.566  19.974  0.00  0.00    +0.000 N 
ATOM      4  C   UNL     1       4.666   1.702  21.104  0.00  0.00    +0.000 C 
ATOM      5  C   UNL     1       3.221   2.816  19.381  0.00  0.00    +0.000 A 
ATOM      6  C   UNL     1       3.476   3.670  18.331  0.00  0.00    +0.000 A 
ATOM      7  C   UNL     1       2.415   4.146  17.403  0.00  0.00    +0.000 C 
ATOM      8  C   UNL     1       1.013   3.906  18.001  0.00  0.00    +0.000 C 
ATOM      9  C   UNL     1       0.880   2.509  18.640  0.00  0.00    +0.000 C 
ATOM     10  C   UNL     1       1.890   2.290  19.783  0.00  0.00    +0.000 C 
ENDROOT
BRANCH   1  11
ATOM     11  C   UNL     1       5.696   4.681  17.393  0.00  0.00    +0.000 C 
BRANCH  11  15
ATOM     12  N   UNL     1       6.350   3.434  14.062  0.00  0.00    +0.000 N 
ATOM     13  C   UNL     1       6.032   4.365  15.015  0.00  0.00    +0.000 C 
ATOM     14  O   UNL     1       5.703   5.517  14.766  0.00  0.00    +0.000 OA
ATOM     15  N   UNL     1       6.131   3.860  16.282  0.00  0.00    +0.000 N 
ATOM     16  H   UNL     1       6.899   2.647  14.371  0.00  0.00    +0.000 HD
ATOM     17  H   UNL     1       5.955   2.872  16.409  0.00  0.00    +0.000 HD
BRANCH  12  19
ATOM     18  C   UNL     1       5.102   3.296  11.936  0.00  0.00    +0.000 C 
ATOM     19  C   UNL     1       6.356   3.770  12.652  0.00  0.00    +0.000 C 
ENDBRANCH  12  19
ENDBRANCH  11  15
ENDBRANCH   1  11
TORSDOF 3
ENDMDL
MODEL 7
REMARK VINA RESULT:      -6.6      1.548      2.655
REMARK  Name = 
REMARK  5 active torsions:
REMARK  status: ('A' for Active; 'I' for Inactive)
REMARK    1  A    between atoms: C_1  and  C_2
REMARK    2  A    between atoms: C_2  and  N_3
REMARK    3  A    between atoms: N_6  and  C_7
REMARK    4  A    between atoms: C_7  and  C_8
REMARK    5  A    between atoms: N_10  and  C_11
REMARK                            x       y       z     vdW  Elec       q    Type
REMARK                         _______ _______ _______ _____ _____    ______ ____
ROOT
ATOM      1  C   UNL     1       4.634   3.989  18.750  0.00  0.00    +0.000 A 
ATOM      2  N   UNL     1       5.366   2.984  19.271  0.00  0.00    +0.000 NA
ATOM      3  N   UNL     1       4.563   2.436  20.210  0.00  0.00    +0.000 N 
ATOM      4  C   UNL     1       5.011   1.291  20.965  0.00  0.00    +0.000 C 
ATOM      5  C   UNL     1       3.355   3.058  20.306  0.00  0.00    +0.000 A 
ATOM      6  C   UNL     1       3.365   4.074  19.377  0.00  0.00    +0.000 A 
ATOM      7  C   UNL     1       2.196   4.965  19.144  0.00  0.00    +0.000 C 
ATOM      8  C   UNL     1       1.191   4.871  20.312  0.00  0.00    +0.000 C 
ATOM      9  C   UNL     1       0.949   3.415  20.759  0.00  0.00    +0.000 C 
ATOM     10  C   UNL     1       2.243   2.726  21.235  0.00  0.00    +0.000 C 
ENDROOT
BRANCH   1  11
ATOM     11  C   UNL     1       5.143   4.821  17.614  0.00  0.00    +0.000 C 
BRANCH  11  15
ATOM     12  N   UNL     1       6.280   3.573  14.416  0.00  0.00    +0.000 N 
ATOM     13  C   UNL     1       5.864   4.511  15.322  0.00  0.00    +0.000 C 
ATOM     14  O   UNL     1       5.661   5.687  15.049  0.00  0.00    +0.000 OA
ATOM     15  N   UNL     1       5.708   3.985  16.575  0.00  0.00    +0.000 N 
ATOM     16  H   UNL     1       6.714   2.745  14.795  0.00  0.00    +0.000 HD
ATOM     17  H   UNL     1       5.448   3.011  16.646  0.00  0.00    +0.000 HD
BRANCH  12  19
ATOM     18  C   UNL     1       5.673   3.166  12.057  0.00  0.00    +0.000 C 
ATOM     19  C   UNL     1       6.553   3.925  13.036  0.00  0.00    +0.000 C 
ENDBRANCH  12  19
ENDBRANCH  11  15
ENDBRANCH   1  11
TORSDOF 3
ENDMDL
MODEL 8
REMARK VINA RESULT:      -6.5      1.432      2.474
REMARK  Name = 
REMARK  5 active torsions:
REMARK  status: ('A' for Active; 'I' for Inactive)
REMARK    1  A    between atoms: C_1  and  C_2
REMARK    2  A    between atoms: C_2  and  N_3
REMARK    3  A    between atoms: N_6  and  C_7
REMARK    4  A    between atoms: C_7  and  C_8
REMARK    5  A    between atoms: N_10  and  C_11
REMARK                            x       y       z     vdW  Elec       q    Type
REMARK                         _______ _______ _______ _____ _____    ______ ____
ROOT
ATOM      1  C   UNL     1       5.060   4.574  18.434  0.00  0.00    +0.000 A 
ATOM      2  N   UNL     1       5.321   3.372  18.985  0.00  0.00    +0.000 NA
ATOM      3  N   UNL     1       4.348   3.208  19.909  0.00  0.00    +0.000 N 
ATOM      4  C   UNL     1       4.288   1.995  20.688  0.00  0.00    +0.000 C 
ATOM      5  C   UNL     1       3.486   4.262  19.967  0.00  0.00    +0.000 A 
ATOM      6  C   UNL     1       3.918   5.170  19.027  0.00  0.00    +0.000 A 
ATOM      7  C   UNL     1       3.206   6.448  18.755  0.00  0.00    +0.000 C 
ATOM      8  C   UNL     1       2.225   6.786  19.897  0.00  0.00    +0.000 C 
ATOM      9  C   UNL     1       1.414   5.556  20.354  0.00  0.00    +0.000 C 
ATOM     10  C   UNL     1       2.317   4.419  20.871  0.00  0.00    +0.000 C 
ENDROOT
BRANCH   1  11
ATOM     11  C   UNL     1       5.880   5.111  17.302  0.00  0.00    +0.000 C 
BRANCH  11  15
ATOM     12  N   UNL     1       6.229   3.424  14.122  0.00  0.00    +0.000 N 
ATOM     13  C   UNL     1       6.175   4.491  14.979  0.00  0.00    +0.000 C 
ATOM     14  O   UNL     1       6.213   5.661  14.622  0.00  0.00    +0.000 OA
ATOM     15  N   UNL     1       6.082   4.099  16.286  0.00  0.00    +0.000 N 
ATOM     16  H   UNL     1       6.509   2.542  14.522  0.00  0.00    +0.000 HD
ATOM     17  H   UNL     1       5.616   3.223  16.481  0.00  0.00    +0.000 HD
BRANCH  12  19
ATOM     18  C   UNL     1       5.115   3.251  11.926  0.00  0.00    +0.000 C 
ATOM     19  C   UNL     1       6.377   3.612  12.692  0.00  0.00    +0.000 C 
ENDBRANCH  12  19
ENDBRANCH  11  15
ENDBRANCH   1  11
TORSDOF 3
ENDMDL
MODEL 9
REMARK VINA RESULT:      -6.5      2.520      3.531
REMARK  Name = 
REMARK  5 active torsions:
REMARK  status: ('A' for Active; 'I' for Inactive)
REMARK    1  A    between atoms: C_1  and  C_2
REMARK    2  A    between atoms: C_2  and  N_3
REMARK    3  A    between atoms: N_6  and  C_7
REMARK    4  A    between atoms: C_7  and  C_8
REMARK    5  A    between atoms: N_10  and  C_11
REMARK                            x       y       z     vdW  Elec       q    Type
REMARK                         _______ _______ _______ _____ _____    ______ ____
ROOT
ATOM      1  C   UNL     1       3.505   5.327  17.869  0.00  0.00    +0.000 A 
ATOM      2  N   UNL     1       3.299   6.518  18.466  0.00  0.00    +0.000 NA
ATOM      3  N   UNL     1       2.381   6.259  19.423  0.00  0.00    +0.000 N 
ATOM      4  C   UNL     1       1.934   7.313  20.301  0.00  0.00    +0.000 C 
ATOM      5  C   UNL     1       1.994   4.953  19.450  0.00  0.00    +0.000 A 
ATOM      6  C   UNL     1       2.700   4.317  18.453  0.00  0.00    +0.000 A 
ATOM      7  C   UNL     1       2.586   2.856  18.191  0.00  0.00    +0.000 C 
ATOM      8  C   UNL     1       1.328   2.272  18.868  0.00  0.00    +0.000 C 
ATOM      9  C   UNL     1       1.143   2.793  20.307  0.00  0.00    +0.000 C 
ATOM     10  C   UNL     1       0.999   4.327  20.360  0.00  0.00    +0.000 C 
ENDROOT
BRANCH   1  11
ATOM     11  C   UNL     1       4.519   5.163  16.778  0.00  0.00    +0.000 C 
BRANCH  11  15
ATOM     12  N   UNL     1       7.023   7.726  17.266  0.00  0.00    +0.000 N 
ATOM     13  C   UNL     1       6.442   6.494  17.408  0.00  0.00    +0.000 C 
ATOM     14  O   UNL     1       6.876   5.610  18.135  0.00  0.00    +0.000 OA
ATOM     15  N   UNL     1       5.322   6.360  16.636  0.00  0.00    +0.000 N 
ATOM     16  H   UNL     1       6.784   8.240  16.432  0.00  0.00    +0.000 HD
ATOM     17  H   UNL     1       4.784   7.193  16.440  0.00  0.00    +0.000 HD
BRANCH  12  19
ATOM     18  C   UNL     1       8.403   9.563  18.170  0.00  0.00    +0.000 C 
ATOM     19  C   UNL     1       8.251   8.065  17.959  0.00  0.00    +0.000 C 
ENDBRANCH  12  19
ENDBRANCH  11  15
ENDBRANCH   1  11
TORSDOF 3
ENDMDL
