MODEL 1
REMARK VINA RESULT:      -8.5      0.000      0.000
REMARK  Name = 
REMARK  2 active torsions:
REMARK  status: ('A' for Active; 'I' for Inactive)
REMARK    1  A    between atoms: C_15  and  C_16
REMARK    2  A    between atoms: C_19  and  C_20
REMARK                            x       y       z     vdW  Elec       q    Type
REMARK                         _______ _______ _______ _____ _____    ______ ____
ROOT
ATOM      1  O   UNL     1       0.738   8.116  21.769  0.00  0.00    +0.000 OA
ATOM      2  C   UNL     1       1.099   8.275  20.605  0.00  0.00    +0.000 C 
ATOM      3  C   UNL     1       1.979   7.158  19.935  0.00  0.00    +0.000 A 
ATOM      4  C   UNL     1       2.137   5.974  20.704  0.00  0.00    +0.000 A 
ATOM      5  C   UNL     1       2.664   4.780  20.167  0.00  0.00    +0.000 A 
ATOM      6  C   UNL     1       3.062   4.732  18.851  0.00  0.00    +0.000 A 
ATOM      7  F   UNL     1       3.485   3.575  18.318  0.00  0.00    +0.000 F 
ATOM      8  C   UNL     1       3.042   5.877  18.092  0.00  0.00    +0.000 A 
ATOM      9  C   UNL     1       2.539   7.094  18.630  0.00  0.00    +0.000 A 
ATOM     10  C   UNL     1       2.784   8.258  17.721  0.00  0.00    +0.000 C 
ATOM     11  C   UNL     1       1.607   9.188  17.648  0.00  0.00    +0.000 C 
ATOM     12  C   UNL     1       1.531  10.032  18.919  0.00  0.00    +0.000 C 
ATOM     13  C   UNL     1       1.299  11.499  18.557  0.00  0.00    +0.000 C 
ATOM     14  C   UNL     1      -0.051  12.148  18.689  0.00  0.00    +0.000 C 
ATOM     15  C   UNL     1      -1.112  11.245  19.286  0.00  0.00    +0.000 C 
ATOM     16  C   UNL     1      -0.535  10.300  20.388  0.00  0.00    +0.000 C 
ATOM     17  N   UNL     1       0.628   9.433  19.878  0.00  0.00    +0.000 N 
ENDROOT
BRANCH  15  18
ATOM     18  C   UNL     1      -2.397  12.070  19.428  0.00  0.00    +0.000 A 
ATOM     19  N   UNL     1      -3.435  12.049  18.558  0.00  0.00    +0.000 NA
ATOM     20  O   UNL     1      -4.566  12.389  19.360  0.00  0.00    +0.000 OA
ATOM     21  C   UNL     1      -4.100  12.567  20.615  0.00  0.00    +0.000 A 
ATOM     22  N   UNL     1      -2.787  12.413  20.710  0.00  0.00    +0.000 NA
BRANCH  21  23
ATOM     23  C   UNL     1      -5.017  12.785  21.764  0.00  0.00    +0.000 A 
ATOM     24  C   UNL     1      -4.619  13.668  22.786  0.00  0.00    +0.000 A 
ATOM     25  C   UNL     1      -5.516  13.997  23.817  0.00  0.00    +0.000 A 
ATOM     26  C   UNL     1      -6.781  13.458  23.779  0.00  0.00    +0.000 A 
ATOM     27  F   UNL     1      -7.677  13.798  24.713  0.00  0.00    +0.000 F 
ATOM     28  C   UNL     1      -7.101  12.567  22.764  0.00  0.00    +0.000 A 
ATOM     29  N   UNL     1      -6.246  12.202  21.759  0.00  0.00    +0.000 NA
ENDBRANCH  21  23
ENDBRANCH  15  18
TORSDOF 2
ENDMDL
MODEL 2
REMARK VINA RESULT:      -8.5      2.800     10.056
REMARK  Name = 
REMARK  2 active torsions:
REMARK  status: ('A' for Active; 'I' for Inactive)
REMARK    1  A    between atoms: C_15  and  C_16
REMARK    2  A    between atoms: C_19  and  C_20
REMARK                            x       y       z     vdW  Elec       q    Type
REMARK                         _______ _______ _______ _____ _____    ______ ____
ROOT
ATOM      1  O   UNL     1      -2.699  10.111  16.625  0.00  0.00    +0.000 OA
ATOM      2  C   UNL     1      -2.678  10.746  17.676  0.00  0.00    +0.000 C 
ATOM      3  C   UNL     1      -3.995  11.469  18.141  0.00  0.00    +0.000 A 
ATOM      4  C   UNL     1      -5.147  11.176  17.365  0.00  0.00    +0.000 A 
ATOM      5  C   UNL     1      -6.453  11.517  17.779  0.00  0.00    +0.000 A 
ATOM      6  C   UNL     1      -6.649  12.173  18.973  0.00  0.00    +0.000 A 
ATOM      7  F   UNL     1      -7.894  12.423  19.406  0.00  0.00    +0.000 F 
ATOM      8  C   UNL     1      -5.565  12.586  19.709  0.00  0.00    +0.000 A 
ATOM      9  C   UNL     1      -4.242  12.272  19.287  0.00  0.00    +0.000 A 
ATOM     10  C   UNL     1      -3.206  12.973  20.109  0.00  0.00    +0.000 C 
ATOM     11  C   UNL     1      -2.037  12.089  20.438  0.00  0.00    +0.000 C 
ATOM     12  C   UNL     1      -1.142  11.933  19.210  0.00  0.00    +0.000 C 
ATOM     13  C   UNL     1       0.321  12.132  19.603  0.00  0.00    +0.000 C 
ATOM     14  C   UNL     1       1.265  10.974  19.772  0.00  0.00    +0.000 C 
ATOM     15  C   UNL     1       0.655   9.628  19.435  0.00  0.00    +0.000 C 
ATOM     16  C   UNL     1      -0.347   9.714  18.239  0.00  0.00    +0.000 C 
ATOM     17  N   UNL     1      -1.477  10.728  18.482  0.00  0.00    +0.000 N 
ENDROOT
BRANCH  15  18
ATOM     18  C   UNL     1       1.755   8.570  19.578  0.00  0.00    +0.000 A 
ATOM     19  N   UNL     1       1.764   7.575  20.498  0.00  0.00    +0.000 NA
ATOM     20  O   UNL     1       2.526   6.539  19.880  0.00  0.00    +0.000 OA
ATOM     21  C   UNL     1       2.884   7.006  18.664  0.00  0.00    +0.000 A 
ATOM     22  N   UNL     1       2.468   8.243  18.438  0.00  0.00    +0.000 NA
BRANCH  21  23
ATOM     23  C   UNL     1       3.565   6.140  17.666  0.00  0.00    +0.000 A 
ATOM     24  C   UNL     1       4.472   6.733  16.767  0.00  0.00    +0.000 A 
ATOM     25  C   UNL     1       5.229   5.926  15.900  0.00  0.00    +0.000 A 
ATOM     26  C   UNL     1       5.076   4.562  15.978  0.00  0.00    +0.000 A 
ATOM     27  F   UNL     1       5.825   3.763  15.208  0.00  0.00    +0.000 F 
ATOM     28  C   UNL     1       4.140   4.040  16.860  0.00  0.00    +0.000 A 
ATOM     29  N   UNL     1       3.367   4.795  17.700  0.00  0.00    +0.000 NA
ENDBRANCH  21  23
ENDBRANCH  15  18
TORSDOF 2
ENDMDL
MODEL 3
REMARK VINA RESULT:      -8.1      1.896      9.713
REMARK  Name = 
REMARK  2 active torsions:
REMARK  status: ('A' for Active; 'I' for Inactive)
REMARK    1  A    between atoms: C_15  and  C_16
REMARK    2  A    between atoms: C_19  and  C_20
REMARK                            x       y       z     vdW  Elec       q    Type
REMARK                         _______ _______ _______ _____ _____    ______ ____
ROOT
ATOM      1  O   UNL     1      -3.875  12.484  19.147  0.00  0.00    +0.000 OA
ATOM      2  C   UNL     1      -3.275  12.459  20.219  0.00  0.00    +0.000 C 
ATOM      3  C   UNL     1      -4.080  12.769  21.534  0.00  0.00    +0.000 A 
ATOM      4  C   UNL     1      -5.485  12.891  21.365  0.00  0.00    +0.000 A 
ATOM      5  C   UNL     1      -6.386  12.906  22.452  0.00  0.00    +0.000 A 
ATOM      6  C   UNL     1      -5.913  12.814  23.741  0.00  0.00    +0.000 A 
ATOM      7  F   UNL     1      -6.773  12.744  24.769  0.00  0.00    +0.000 F 
ATOM      8  C   UNL     1      -4.559  12.812  23.971  0.00  0.00    +0.000 A 
ATOM      9  C   UNL     1      -3.640  12.824  22.884  0.00  0.00    +0.000 A 
ATOM     10  C   UNL     1      -2.228  13.017  23.341  0.00  0.00    +0.000 C 
ATOM     11  C   UNL     1      -1.258  12.142  22.600  0.00  0.00    +0.000 C 
ATOM     12  C   UNL     1      -1.017  12.702  21.199  0.00  0.00    +0.000 C 
ATOM     13  C   UNL     1       0.480  12.717  20.895  0.00  0.00    +0.000 C 
ATOM     14  C   UNL     1       1.124  11.687  20.009  0.00  0.00    +0.000 C 
ATOM     15  C   UNL     1       0.145  10.707  19.394  0.00  0.00    +0.000 C 
ATOM     16  C   UNL     1      -1.218  11.379  19.030  0.00  0.00    +0.000 C 
ATOM     17  N   UNL     1      -1.885  12.060  20.236  0.00  0.00    +0.000 N 
ENDROOT
BRANCH  15  18
ATOM     18  C   UNL     1       0.938   9.780  18.464  0.00  0.00    +0.000 A 
ATOM     19  N   UNL     1       1.882  10.186  17.582  0.00  0.00    +0.000 NA
ATOM     20  O   UNL     1       2.747   9.058  17.458  0.00  0.00    +0.000 OA
ATOM     21  C   UNL     1       2.248   8.105  18.275  0.00  0.00    +0.000 A 
ATOM     22  N   UNL     1       1.135   8.478  18.890  0.00  0.00    +0.000 NA
BRANCH  21  23
ATOM     23  C   UNL     1       2.974   6.833  18.525  0.00  0.00    +0.000 A 
ATOM     24  C   UNL     1       4.074   6.512  17.708  0.00  0.00    +0.000 A 
ATOM     25  C   UNL     1       4.860   5.385  18.000  0.00  0.00    +0.000 A 
ATOM     26  C   UNL     1       4.540   4.635  19.108  0.00  0.00    +0.000 A 
ATOM     27  F   UNL     1       5.305   3.591  19.447  0.00  0.00    +0.000 F 
ATOM     28  C   UNL     1       3.423   4.982  19.854  0.00  0.00    +0.000 A 
ATOM     29  N   UNL     1       2.618   6.057  19.584  0.00  0.00    +0.000 NA
ENDBRANCH  21  23
ENDBRANCH  15  18
TORSDOF 2
ENDMDL
MODEL 4
REMARK VINA RESULT:      -8.0      3.915     10.791
REMARK  Name = 
REMARK  2 active torsions:
REMARK  status: ('A' for Active; 'I' for Inactive)
REMARK    1  A    between atoms: C_15  and  C_16
REMARK    2  A    between atoms: C_19  and  C_20
REMARK                            x       y       z     vdW  Elec       q    Type
REMARK                         _______ _______ _______ _____ _____    ______ ____
ROOT
ATOM      1  O   UNL     1      -0.390   8.300  21.866  0.00  0.00    +0.000 OA
ATOM      2  C   UNL     1      -0.036   9.253  21.175  0.00  0.00    +0.000 C 
ATOM      3  C   UNL     1      -0.504  10.694  21.593  0.00  0.00    +0.000 A 
ATOM      4  C   UNL     1      -1.169  10.772  22.846  0.00  0.00    +0.000 A 
ATOM      5  C   UNL     1      -1.423  11.997  23.500  0.00  0.00    +0.000 A 
ATOM      6  C   UNL     1      -1.037  13.182  22.920  0.00  0.00    +0.000 A 
ATOM      7  F   UNL     1      -1.204  14.340  23.579  0.00  0.00    +0.000 F 
ATOM      8  C   UNL     1      -0.496  13.177  21.657  0.00  0.00    +0.000 A 
ATOM      9  C   UNL     1      -0.259  11.951  20.975  0.00  0.00    +0.000 A 
ATOM     10  C   UNL     1       0.146  12.165  19.551  0.00  0.00    +0.000 C 
ATOM     11  C   UNL     1       1.250  11.243  19.120  0.00  0.00    +0.000 C 
ATOM     12  C   UNL     1       0.695   9.840  18.886  0.00  0.00    +0.000 C 
ATOM     13  C   UNL     1       1.224   9.284  17.564  0.00  0.00    +0.000 C 
ATOM     14  C   UNL     1       2.333   8.270  17.513  0.00  0.00    +0.000 C 
ATOM     15  C   UNL     1       2.802   7.802  18.876  0.00  0.00    +0.000 C 
ATOM     16  C   UNL     1       1.629   7.697  19.903  0.00  0.00    +0.000 C 
ATOM     17  N   UNL     1       0.862   9.019  20.066  0.00  0.00    +0.000 N 
ENDROOT
BRANCH  15  18
ATOM     18  C   UNL     1       3.869   6.723  18.654  0.00  0.00    +0.000 A 
ATOM     19  N   UNL     1       3.814   5.461  19.145  0.00  0.00    +0.000 NA
ATOM     20  O   UNL     1       4.574   4.694  18.213  0.00  0.00    +0.000 OA
ATOM     21  C   UNL     1       4.996   5.559  17.264  0.00  0.00    +0.000 A 
ATOM     22  N   UNL     1       4.621   6.808  17.496  0.00  0.00    +0.000 NA
BRANCH  21  23
ATOM     23  C   UNL     1       5.696   5.093  16.039  0.00  0.00    +0.000 A 
ATOM     24  C   UNL     1       5.006   4.250  15.148  0.00  0.00    +0.000 A 
ATOM     25  C   UNL     1       5.591   3.899  13.919  0.00  0.00    +0.000 A 
ATOM     26  C   UNL     1       6.826   4.418  13.612  0.00  0.00    +0.000 A 
ATOM     27  F   UNL     1       7.384   4.151  12.425  0.00  0.00    +0.000 F 
ATOM     28  C   UNL     1       7.471   5.215  14.548  0.00  0.00    +0.000 A 
ATOM     29  N   UNL     1       6.945   5.557  15.764  0.00  0.00    +0.000 NA
ENDBRANCH  21  23
ENDBRANCH  15  18
TORSDOF 2
ENDMDL
MODEL 5
REMARK VINA RESULT:      -7.8      1.270      1.480
REMARK  Name = 
REMARK  2 active torsions:
REMARK  status: ('A' for Active; 'I' for Inactive)
REMARK    1  A    between atoms: C_15  and  C_16
REMARK    2  A    between atoms: C_19  and  C_20
REMARK                            x       y       z     vdW  Elec       q    Type
REMARK                         _______ _______ _______ _____ _____    ______ ____
ROOT
ATOM      1  O   UNL     1       0.747   8.166  21.879  0.00  0.00    +0.000 OA
ATOM      2  C   UNL     1       1.090   8.323  20.709  0.00  0.00    +0.000 C 
ATOM      3  C   UNL     1       1.863   7.156  19.993  0.00  0.00    +0.000 A 
ATOM      4  C   UNL     1       1.948   5.947  20.732  0.00  0.00    +0.000 A 
ATOM      5  C   UNL     1       2.365   4.727  20.156  0.00  0.00    +0.000 A 
ATOM      6  C   UNL     1       2.725   4.679  18.830  0.00  0.00    +0.000 A 
ATOM      7  F   UNL     1       3.043   3.505  18.261  0.00  0.00    +0.000 F 
ATOM      8  C   UNL     1       2.776   5.839  18.095  0.00  0.00    +0.000 A 
ATOM      9  C   UNL     1       2.384   7.079  18.672  0.00  0.00    +0.000 A 
ATOM     10  C   UNL     1       2.696   8.241  17.782  0.00  0.00    +0.000 C 
ATOM     11  C   UNL     1       1.595   9.262  17.759  0.00  0.00    +0.000 C 
ATOM     12  C   UNL     1       1.617  10.079  19.049  0.00  0.00    +0.000 C 
ATOM     13  C   UNL     1       1.492  11.567  18.724  0.00  0.00    +0.000 C 
ATOM     14  C   UNL     1       0.201  12.317  18.906  0.00  0.00    +0.000 C 
ATOM     15  C   UNL     1      -0.913  11.486  19.512  0.00  0.00    +0.000 C 
ATOM     16  C   UNL     1      -0.384  10.473  20.578  0.00  0.00    +0.000 C 
ATOM     17  N   UNL     1       0.694   9.531  20.019  0.00  0.00    +0.000 N 
ENDROOT
BRANCH  15  18
ATOM     18  C   UNL     1      -2.125  12.404  19.706  0.00  0.00    +0.000 A 
ATOM     19  N   UNL     1      -3.394  12.107  19.337  0.00  0.00    +0.000 NA
ATOM     20  O   UNL     1      -4.203  12.859  20.240  0.00  0.00    +0.000 OA
ATOM     21  C   UNL     1      -3.349  13.516  21.056  0.00  0.00    +0.000 A 
ATOM     22  N   UNL     1      -2.076  13.300  20.760  0.00  0.00    +0.000 NA
BRANCH  21  23
ATOM     23  C   UNL     1      -3.831  14.289  22.230  0.00  0.00    +0.000 A 
ATOM     24  C   UNL     1      -3.023  15.327  22.732  0.00  0.00    +0.000 A 
ATOM     25  C   UNL     1      -3.507  16.160  23.755  0.00  0.00    +0.000 A 
ATOM     26  C   UNL     1      -4.783  15.948  24.222  0.00  0.00    +0.000 A 
ATOM     27  F   UNL     1      -5.295  16.761  25.153  0.00  0.00    +0.000 F 
ATOM     28  C   UNL     1      -5.517  14.886  23.711  0.00  0.00    +0.000 A 
ATOM     29  N   UNL     1      -5.070  14.038  22.734  0.00  0.00    +0.000 NA
ENDBRANCH  21  23
ENDBRANCH  15  18
TORSDOF 2
ENDMDL
MODEL 6
REMARK VINA RESULT:      -7.8      2.537      9.947
REMARK  Name = 
REMARK  2 active torsions:
REMARK  status: ('A' for Active; 'I' for Inactive)
REMARK    1  A    between atoms: C_15  and  C_16
REMARK    2  A    between atoms: C_19  and  C_20
REMARK                            x       y       z     vdW  Elec       q    Type
REMARK                         _______ _______ _______ _____ _____    ______ ____
ROOT
ATOM      1  O   UNL     1      -2.799  10.348  17.128  0.00  0.00    +0.000 OA
ATOM      2  C   UNL     1      -2.777  10.988  18.177  0.00  0.00    +0.000 C 
ATOM      3  C   UNL     1      -4.051  11.819  18.574  0.00  0.00    +0.000 A 
ATOM      4  C   UNL     1      -5.185  11.614  17.744  0.00  0.00    +0.000 A 
ATOM      5  C   UNL     1      -6.478  12.063  18.094  0.00  0.00    +0.000 A 
ATOM      6  C   UNL     1      -6.676  12.743  19.273  0.00  0.00    +0.000 A 
ATOM      7  F   UNL     1      -7.917  13.097  19.645  0.00  0.00    +0.000 F 
ATOM      8  C   UNL     1      -5.598  13.073  20.059  0.00  0.00    +0.000 A 
ATOM      9  C   UNL     1      -4.287  12.649  19.703  0.00  0.00    +0.000 A 
ATOM     10  C   UNL     1      -3.238  13.270  20.572  0.00  0.00    +0.000 C 
ATOM     11  C   UNL     1      -2.162  12.298  20.960  0.00  0.00    +0.000 C 
ATOM     12  C   UNL     1      -1.225  12.059  19.778  0.00  0.00    +0.000 C 
ATOM     13  C   UNL     1       0.229  12.142  20.241  0.00  0.00    +0.000 C 
ATOM     14  C   UNL     1       1.067  10.913  20.460  0.00  0.00    +0.000 C 
ATOM     15  C   UNL     1       0.365   9.618  20.100  0.00  0.00    +0.000 C 
ATOM     16  C   UNL     1      -0.567   9.775  18.857  0.00  0.00    +0.000 C 
ATOM     17  N   UNL     1      -1.621  10.879  19.040  0.00  0.00    +0.000 N 
ENDROOT
BRANCH  15  18
ATOM     18  C   UNL     1       1.368   8.476  20.301  0.00  0.00    +0.000 A 
ATOM     19  N   UNL     1       1.183   7.413  21.121  0.00  0.00    +0.000 NA
ATOM     20  O   UNL     1       1.963   6.377  20.526  0.00  0.00    +0.000 OA
ATOM     21  C   UNL     1       2.522   6.911  19.419  0.00  0.00    +0.000 A 
ATOM     22  N   UNL     1       2.219   8.190  19.248  0.00  0.00    +0.000 NA
BRANCH  21  23
ATOM     23  C   UNL     1       3.288   6.081  18.453  0.00  0.00    +0.000 A 
ATOM     24  C   UNL     1       2.817   4.789  18.154  0.00  0.00    +0.000 A 
ATOM     25  C   UNL     1       3.442   4.030  17.149  0.00  0.00    +0.000 A 
ATOM     26  C   UNL     1       4.492   4.594  16.463  0.00  0.00    +0.000 A 
ATOM     27  F   UNL     1       5.070   3.921  15.461  0.00  0.00    +0.000 F 
ATOM     28  C   UNL     1       4.932   5.858  16.829  0.00  0.00    +0.000 A 
ATOM     29  N   UNL     1       4.366   6.616  17.819  0.00  0.00    +0.000 NA
ENDBRANCH  21  23
ENDBRANCH  15  18
TORSDOF 2
ENDMDL
MODEL 7
REMARK VINA RESULT:      -7.8      3.579     10.433
REMARK  Name = 
REMARK  2 active torsions:
REMARK  status: ('A' for Active; 'I' for Inactive)
REMARK    1  A    between atoms: C_15  and  C_16
REMARK    2  A    between atoms: C_19  and  C_20
REMARK                            x       y       z     vdW  Elec       q    Type
REMARK                         _______ _______ _______ _____ _____    ______ ____
ROOT
ATOM      1  O   UNL     1      -0.873   9.907  22.442  0.00  0.00    +0.000 OA
ATOM      2  C   UNL     1      -0.453  10.666  21.571  0.00  0.00    +0.000 C 
ATOM      3  C   UNL     1      -0.658  12.213  21.764  0.00  0.00    +0.000 A 
ATOM      4  C   UNL     1      -1.174  12.598  23.030  0.00  0.00    +0.000 A 
ATOM      5  C   UNL     1      -1.177  13.937  23.477  0.00  0.00    +0.000 A 
ATOM      6  C   UNL     1      -0.679  14.935  22.672  0.00  0.00    +0.000 A 
ATOM      7  F   UNL     1      -0.605  16.195  23.129  0.00  0.00    +0.000 F 
ATOM      8  C   UNL     1      -0.275  14.638  21.392  0.00  0.00    +0.000 A 
ATOM      9  C   UNL     1      -0.292  13.296  20.920  0.00  0.00    +0.000 A 
ATOM     10  C   UNL     1      -0.006  13.210  19.454  0.00  0.00    +0.000 C 
ATOM     11  C   UNL     1       0.901  12.063  19.111  0.00  0.00    +0.000 C 
ATOM     12  C   UNL     1       0.123  10.750  19.167  0.00  0.00    +0.000 C 
ATOM     13  C   UNL     1       0.428   9.910  17.927  0.00  0.00    +0.000 C 
ATOM     14  C   UNL     1       1.364   8.734  17.972  0.00  0.00    +0.000 C 
ATOM     15  C   UNL     1       1.893   8.421  19.357  0.00  0.00    +0.000 C 
ATOM     16  C   UNL     1       0.827   8.675  20.470  0.00  0.00    +0.000 C 
ATOM     17  N   UNL     1       0.285  10.114  20.457  0.00  0.00    +0.000 N 
ENDROOT
BRANCH  15  18
ATOM     18  C   UNL     1       2.760   7.161  19.249  0.00  0.00    +0.000 A 
ATOM     19  N   UNL     1       2.379   5.918  19.632  0.00  0.00    +0.000 NA
ATOM     20  O   UNL     1       3.141   5.049  18.795  0.00  0.00    +0.000 OA
ATOM     21  C   UNL     1       3.885   5.846  17.998  0.00  0.00    +0.000 A 
ATOM     22  N   UNL     1       3.715   7.136  18.248  0.00  0.00    +0.000 NA
BRANCH  21  23
ATOM     23  C   UNL     1       4.698   5.294  16.884  0.00  0.00    +0.000 A 
ATOM     24  C   UNL     1       4.919   3.905  16.834  0.00  0.00    +0.000 A 
ATOM     25  C   UNL     1       5.570   3.337  15.726  0.00  0.00    +0.000 A 
ATOM     26  C   UNL     1       5.955   4.167  14.699  0.00  0.00    +0.000 A 
ATOM     27  F   UNL     1       6.524   3.650  13.603  0.00  0.00    +0.000 F 
ATOM     28  C   UNL     1       5.741   5.532  14.822  0.00  0.00    +0.000 A 
ATOM     29  N   UNL     1       5.134   6.124  15.897  0.00  0.00    +0.000 NA
ENDBRANCH  21  23
ENDBRANCH  15  18
TORSDOF 2
ENDMDL
MODEL 8
REMARK VINA RESULT:      -7.7      2.395      9.692
REMARK  Name = 
REMARK  2 active torsions:
REMARK  status: ('A' for Active; 'I' for Inactive)
REMARK    1  A    between atoms: C_15  and  C_16
REMARK    2  A    between atoms: C_19  and  C_20
REMARK                            x       y       z     vdW  Elec       q    Type
REMARK                         _______ _______ _______ _____ _____    ______ ____
ROOT
ATOM      1  O   UNL     1      -3.920  10.591  16.748  0.00  0.00    +0.000 OA
ATOM      2  C   UNL     1      -3.556  11.106  17.802  0.00  0.00    +0.000 C 
ATOM      3  C   UNL     1      -4.653  11.652  18.786  0.00  0.00    +0.000 A 
ATOM      4  C   UNL     1      -5.992  11.343  18.427  0.00  0.00    +0.000 A 
ATOM      5  C   UNL     1      -7.079  11.516  19.311  0.00  0.00    +0.000 A 
ATOM      6  C   UNL     1      -6.868  12.017  20.574  0.00  0.00    +0.000 A 
ATOM      7  F   UNL     1      -7.888  12.105  21.442  0.00  0.00    +0.000 F 
ATOM      8  C   UNL     1      -5.613  12.444  20.936  0.00  0.00    +0.000 A 
ATOM      9  C   UNL     1      -4.514  12.299  20.044  0.00  0.00    +0.000 A 
ATOM     10  C   UNL     1      -3.287  12.997  20.542  0.00  0.00    +0.000 C 
ATOM     11  C   UNL     1      -2.037  12.193  20.323  0.00  0.00    +0.000 C 
ATOM     12  C   UNL     1      -1.632  12.253  18.851  0.00  0.00    +0.000 C 
ATOM     13  C   UNL     1      -0.135  12.540  18.735  0.00  0.00    +0.000 C 
ATOM     14  C   UNL     1       0.860  11.461  18.409  0.00  0.00    +0.000 C 
ATOM     15  C   UNL     1       0.232  10.110  18.128  0.00  0.00    +0.000 C 
ATOM     16  C   UNL     1      -1.132  10.235  17.377  0.00  0.00    +0.000 C 
ATOM     17  N   UNL     1      -2.147  11.110  18.130  0.00  0.00    +0.000 N 
ENDROOT
BRANCH  15  18
ATOM     18  C   UNL     1       1.360   9.147  17.737  0.00  0.00    +0.000 A 
ATOM     19  N   UNL     1       2.679   9.455  17.728  0.00  0.00    +0.000 NA
ATOM     20  O   UNL     1       3.328   8.205  17.957  0.00  0.00    +0.000 OA
ATOM     21  C   UNL     1       2.347   7.287  18.089  0.00  0.00    +0.000 A 
ATOM     22  N   UNL     1       1.133   7.796  17.937  0.00  0.00    +0.000 NA
BRANCH  21  23
ATOM     23  C   UNL     1       2.638   5.886  18.490  0.00  0.00    +0.000 A 
ATOM     24  C   UNL     1       1.841   4.854  17.961  0.00  0.00    +0.000 A 
ATOM     25  C   UNL     1       2.171   3.512  18.214  0.00  0.00    +0.000 A 
ATOM     26  C   UNL     1       3.295   3.246  18.962  0.00  0.00    +0.000 A 
ATOM     27  F   UNL     1       3.670   1.978  19.172  0.00  0.00    +0.000 F 
ATOM     28  C   UNL     1       4.020   4.307  19.485  0.00  0.00    +0.000 A 
ATOM     29  N   UNL     1       3.714   5.626  19.281  0.00  0.00    +0.000 NA
ENDBRANCH  21  23
ENDBRANCH  15  18
TORSDOF 2
ENDMDL
MODEL 9
REMARK VINA RESULT:      -7.6      2.853     10.096
REMARK  Name = 
REMARK  2 active torsions:
REMARK  status: ('A' for Active; 'I' for Inactive)
REMARK    1  A    between atoms: C_15  and  C_16
REMARK    2  A    between atoms: C_19  and  C_20
REMARK                            x       y       z     vdW  Elec       q    Type
REMARK                         _______ _______ _______ _____ _____    ______ ____
ROOT
ATOM      1  O   UNL     1       0.540  14.758  22.439  0.00  0.00    +0.000 OA
ATOM      2  C   UNL     1      -0.459  14.089  22.692  0.00  0.00    +0.000 C 
ATOM      3  C   UNL     1      -1.657  14.786  23.435  0.00  0.00    +0.000 A 
ATOM      4  C   UNL     1      -1.528  16.191  23.598  0.00  0.00    +0.000 A 
ATOM      5  C   UNL     1      -2.603  17.015  23.998  0.00  0.00    +0.000 A 
ATOM      6  C   UNL     1      -3.835  16.462  24.262  0.00  0.00    +0.000 A 
ATOM      7  F   UNL     1      -4.877  17.253  24.561  0.00  0.00    +0.000 F 
ATOM      8  C   UNL     1      -3.988  15.097  24.235  0.00  0.00    +0.000 A 
ATOM      9  C   UNL     1      -2.905  14.254  23.860  0.00  0.00    +0.000 A 
ATOM     10  C   UNL     1      -3.212  12.806  24.082  0.00  0.00    +0.000 C 
ATOM     11  C   UNL     1      -2.723  11.934  22.962  0.00  0.00    +0.000 C 
ATOM     12  C   UNL     1      -1.209  11.761  23.060  0.00  0.00    +0.000 C 
ATOM     13  C   UNL     1      -0.841  10.288  22.881  0.00  0.00    +0.000 C 
ATOM     14  C   UNL     1      -0.276   9.760  21.592  0.00  0.00    +0.000 C 
ATOM     15  C   UNL     1      -0.034  10.827  20.543  0.00  0.00    +0.000 C 
ATOM     16  C   UNL     1       0.449  12.174  21.168  0.00  0.00    +0.000 C 
ATOM     17  N   UNL     1      -0.527  12.723  22.222  0.00  0.00    +0.000 N 
ENDROOT
BRANCH  15  18
ATOM     18  C   UNL     1       0.610  10.147  19.329  0.00  0.00    +0.000 A 
ATOM     19  N   UNL     1       1.334  10.780  18.375  0.00  0.00    +0.000 NA
ATOM     20  O   UNL     1       2.222   9.774  17.889  0.00  0.00    +0.000 OA
ATOM     21  C   UNL     1       1.953   8.656  18.597  0.00  0.00    +0.000 A 
ATOM     22  N   UNL     1       0.965   8.816  19.466  0.00  0.00    +0.000 NA
BRANCH  21  23
ATOM     23  C   UNL     1       2.787   7.433  18.472  0.00  0.00    +0.000 A 
ATOM     24  C   UNL     1       2.523   6.346  19.326  0.00  0.00    +0.000 A 
ATOM     25  C   UNL     1       3.204   5.130  19.147  0.00  0.00    +0.000 A 
ATOM     26  C   UNL     1       4.103   5.033  18.110  0.00  0.00    +0.000 A 
ATOM     27  F   UNL     1       4.725   3.871  17.876  0.00  0.00    +0.000 F 
ATOM     28  C   UNL     1       4.346   6.151  17.325  0.00  0.00    +0.000 A 
ATOM     29  N   UNL     1       3.722   7.358  17.486  0.00  0.00    +0.000 NA
ENDBRANCH  21  23
ENDBRANCH  15  18
TORSDOF 2
ENDMDL
