MODEL 1
REMARK VINA RESULT:      -7.9      0.000      0.000
REMARK  Name = 
REMARK  16 active torsions:
REMARK  status: ('A' for Active; 'I' for Inactive)
REMARK    1  A    between atoms: C_1  and  C_2
REMARK    2  A    between atoms: C_4  and  C_5
REMARK    3  A    between atoms: C_7  and  C_8
REMARK    4  A    between atoms: C_13  and  O_14
REMARK    5  A    between atoms: O_14  and  C_15
REMARK    6  A    between atoms: N_17  and  C_18
REMARK    7  A    between atoms: N_17  and  C_19
REMARK    8  A    between atoms: C_22  and  C_23
REMARK    9  A    between atoms: C_23  and  C_24
REMARK   10  A    between atoms: C_24  and  N_25
REMARK   11  A    between atoms: N_25  and  C_26
REMARK   12  A    between atoms: C_26  and  C_27
REMARK   13  A    between atoms: C_27  and  C_28
REMARK   14  A    between atoms: C_28  and  C_29
REMARK   15  A    between atoms: C_29  and  C_30
REMARK   16  A    between atoms: C_33  and  O_34
REMARK                            x       y       z     vdW  Elec       q    Type
REMARK                         _______ _______ _______ _____ _____    ______ ____
ROOT
ATOM      1  C   UNL     1       1.023   9.558  19.087  0.00  0.00    +0.000 A 
ATOM      2  N   UNL     1       1.888   9.160  18.092  0.00  0.00    +0.000 N 
ATOM      3  C   UNL     1       2.509   7.976  18.403  0.00  0.00    +0.000 A 
ATOM      4  C   UNL     1       3.421   7.220  17.653  0.00  0.00    +0.000 A 
ATOM      5  C   UNL     1       3.908   6.030  18.207  0.00  0.00    +0.000 A 
ATOM      6  C   UNL     1       3.513   5.640  19.477  0.00  0.00    +0.000 A 
ATOM      7  C   UNL     1       2.589   6.396  20.207  0.00  0.00    +0.000 A 
ATOM      8  C   UNL     1       2.069   7.599  19.668  0.00  0.00    +0.000 A 
ATOM      9  C   UNL     1       1.127   8.599  20.104  0.00  0.00    +0.000 A 
ATOM     10  H   UNL     1       2.046   9.670  17.236  0.00  0.00    +0.000 HD
ENDROOT
BRANCH   1  17
ATOM     11  C   UNL     1       0.716  14.576  18.978  0.00  0.00    +0.000 C 
ATOM     12  C   UNL     1       0.035  13.242  18.884  0.00  0.00    +0.000 A 
ATOM     13  C   UNL     1      -1.343  13.145  18.685  0.00  0.00    +0.000 A 
ATOM     14  C   UNL     1      -1.959  11.891  18.617  0.00  0.00    +0.000 A 
ATOM     15  C   UNL     1      -3.434  11.780  18.360  0.00  0.00    +0.000 C 
ATOM     16  C   UNL     1      -1.183  10.728  18.776  0.00  0.00    +0.000 A 
ATOM     17  C   UNL     1       0.208  10.791  18.958  0.00  0.00    +0.000 A 
ATOM     18  C   UNL     1       0.793  12.066  18.996  0.00  0.00    +0.000 A 
ENDBRANCH   1  17
BRANCH   6  19
ATOM     19  O   UNL     1       3.935   4.437  20.099  0.00  0.00    +0.000 OA
BRANCH  19  20
ATOM     20  C   UNL     1       4.387   3.340  19.361  0.00  0.00    +0.000 C 
ATOM     21  O   UNL     1       5.532   3.219  18.945  0.00  0.00    +0.000 OA
ATOM     22  N   UNL     1       3.397   2.385  19.144  0.00  0.00    +0.000 N 
ATOM     23  C   UNL     1       2.061   2.445  19.711  0.00  0.00    +0.000 C 
ATOM     24  C   UNL     1       3.711   1.215  18.344  0.00  0.00    +0.000 C 
ENDBRANCH  19  20
ENDBRANCH   6  19
BRANCH   9  25
ATOM     25  C   UNL     1       0.328   8.633  21.374  0.00  0.00    +0.000 C 
BRANCH  25  26
ATOM     26  C   UNL     1       0.779   9.576  22.490  0.00  0.00    +0.000 C 
BRANCH  26  27
ATOM     27  N   UNL     1      -0.198   9.714  23.580  0.00  0.00    +0.000 NA
ATOM     28  H   UNL     1       0.263  10.101  24.403  0.00  0.00    +0.000 HD
BRANCH  27  29
ATOM     29  C   UNL     1      -1.294  10.587  23.173  0.00  0.00    +0.000 C 
BRANCH  29  30
ATOM     30  C   UNL     1      -0.768  11.869  22.548  0.00  0.00    +0.000 C 
BRANCH  30  31
ATOM     31  C   UNL     1      -1.958  12.658  22.010  0.00  0.00    +0.000 C 
BRANCH  31  32
ATOM     32  C   UNL     1      -2.481  13.654  23.035  0.00  0.00    +0.000 C 
BRANCH  32  33
ATOM     33  C   UNL     1      -3.926  13.363  23.342  0.00  0.00    +0.000 A 
ATOM     34  C   UNL     1      -4.271  12.580  24.451  0.00  0.00    +0.000 A 
ATOM     35  C   UNL     1      -5.607  12.267  24.709  0.00  0.00    +0.000 A 
ATOM     36  C   UNL     1      -6.595  12.734  23.847  0.00  0.00    +0.000 A 
ATOM     37  C   UNL     1      -6.270  13.504  22.737  0.00  0.00    +0.000 A 
ATOM     38  C   UNL     1      -4.936  13.816  22.481  0.00  0.00    +0.000 A 
BRANCH  36  39
ATOM     39  O   UNL     1      -7.911  12.446  24.056  0.00  0.00    +0.000 OA
ATOM     40  H   UNL     1      -8.362  12.437  23.196  0.00  0.00    +0.000 HD
ENDBRANCH  36  39
ENDBRANCH  32  33
ENDBRANCH  31  32
ENDBRANCH  30  31
ENDBRANCH  29  30
ENDBRANCH  27  29
ENDBRANCH  26  27
ENDBRANCH  25  26
ENDBRANCH   9  25
TORSDOF 12
ENDMDL
MODEL 2
REMARK VINA RESULT:      -7.5      3.427      7.850
REMARK  Name = 
REMARK  16 active torsions:
REMARK  status: ('A' for Active; 'I' for Inactive)
REMARK    1  A    between atoms: C_1  and  C_2
REMARK    2  A    between atoms: C_4  and  C_5
REMARK    3  A    between atoms: C_7  and  C_8
REMARK    4  A    between atoms: C_13  and  O_14
REMARK    5  A    between atoms: O_14  and  C_15
REMARK    6  A    between atoms: N_17  and  C_18
REMARK    7  A    between atoms: N_17  and  C_19
REMARK    8  A    between atoms: C_22  and  C_23
REMARK    9  A    between atoms: C_23  and  C_24
REMARK   10  A    between atoms: C_24  and  N_25
REMARK   11  A    between atoms: N_25  and  C_26
REMARK   12  A    between atoms: C_26  and  C_27
REMARK   13  A    between atoms: C_27  and  C_28
REMARK   14  A    between atoms: C_28  and  C_29
REMARK   15  A    between atoms: C_29  and  C_30
REMARK   16  A    between atoms: C_33  and  O_34
REMARK                            x       y       z     vdW  Elec       q    Type
REMARK                         _______ _______ _______ _____ _____    ______ ____
ROOT
ATOM      1  C   UNL     1       1.599   8.078  20.171  0.00  0.00    +0.000 A 
ATOM      2  N   UNL     1       1.326   8.069  21.521  0.00  0.00    +0.000 N 
ATOM      3  C   UNL     1       0.539   9.133  21.888  0.00  0.00    +0.000 A 
ATOM      4  C   UNL     1       0.012   9.465  23.143  0.00  0.00    +0.000 A 
ATOM      5  C   UNL     1      -0.775  10.618  23.246  0.00  0.00    +0.000 A 
ATOM      6  C   UNL     1      -0.992  11.415  22.133  0.00  0.00    +0.000 A 
ATOM      7  C   UNL     1      -0.474  11.062  20.884  0.00  0.00    +0.000 A 
ATOM      8  C   UNL     1       0.316   9.894  20.744  0.00  0.00    +0.000 A 
ATOM      9  C   UNL     1       0.986   9.229  19.655  0.00  0.00    +0.000 A 
ATOM     10  H   UNL     1       1.659   7.368  22.165  0.00  0.00    +0.000 HD
ENDROOT
BRANCH   1  17
ATOM     11  C   UNL     1       3.170   3.303  20.070  0.00  0.00    +0.000 C 
ATOM     12  C   UNL     1       3.170   4.671  19.455  0.00  0.00    +0.000 A 
ATOM     13  C   UNL     1       3.914   4.949  18.307  0.00  0.00    +0.000 A 
ATOM     14  C   UNL     1       3.912   6.237  17.760  0.00  0.00    +0.000 A 
ATOM     15  C   UNL     1       4.675   6.531  16.501  0.00  0.00    +0.000 C 
ATOM     16  C   UNL     1       3.175   7.257  18.390  0.00  0.00    +0.000 A 
ATOM     17  C   UNL     1       2.402   7.004  19.535  0.00  0.00    +0.000 A 
ATOM     18  C   UNL     1       2.410   5.696  20.040  0.00  0.00    +0.000 A 
ENDBRANCH   1  17
BRANCH   6  19
ATOM     19  O   UNL     1      -1.800  12.581  22.145  0.00  0.00    +0.000 OA
BRANCH  19  20
ATOM     20  C   UNL     1      -2.764  12.805  23.131  0.00  0.00    +0.000 C 
ATOM     21  O   UNL     1      -3.755  12.104  23.293  0.00  0.00    +0.000 OA
ATOM     22  N   UNL     1      -2.486  13.916  23.923  0.00  0.00    +0.000 N 
ATOM     23  C   UNL     1      -1.270  14.706  23.829  0.00  0.00    +0.000 C 
ATOM     24  C   UNL     1      -3.431  14.300  24.955  0.00  0.00    +0.000 C 
ENDBRANCH  19  20
ENDBRANCH   6  19
BRANCH   9  25
ATOM     25  C   UNL     1       1.010   9.613  18.204  0.00  0.00    +0.000 C 
BRANCH  25  26
ATOM     26  C   UNL     1      -0.197  10.357  17.632  0.00  0.00    +0.000 C 
BRANCH  26  27
ATOM     27  N   UNL     1      -1.450   9.591  17.700  0.00  0.00    +0.000 NA
ATOM     28  H   UNL     1      -1.888   9.736  18.610  0.00  0.00    +0.000 HD
BRANCH  27  29
ATOM     29  C   UNL     1      -2.362  10.012  16.642  0.00  0.00    +0.000 C 
BRANCH  29  30
ATOM     30  C   UNL     1      -3.093  11.289  17.027  0.00  0.00    +0.000 C 
BRANCH  30  31
ATOM     31  C   UNL     1      -4.549  11.152  16.590  0.00  0.00    +0.000 C 
BRANCH  31  32
ATOM     32  C   UNL     1      -5.404  12.294  17.119  0.00  0.00    +0.000 C 
BRANCH  32  33
ATOM     33  C   UNL     1      -6.046  11.894  18.421  0.00  0.00    +0.000 A 
ATOM     34  C   UNL     1      -5.949  12.728  19.544  0.00  0.00    +0.000 A 
ATOM     35  C   UNL     1      -6.500  12.336  20.765  0.00  0.00    +0.000 A 
ATOM     36  C   UNL     1      -7.140  11.104  20.860  0.00  0.00    +0.000 A 
ATOM     37  C   UNL     1      -7.236  10.261  19.760  0.00  0.00    +0.000 A 
ATOM     38  C   UNL     1      -6.686  10.653  18.541  0.00  0.00    +0.000 A 
BRANCH  36  39
ATOM     39  O   UNL     1      -7.685  10.677  22.036  0.00  0.00    +0.000 OA
ATOM     40  H   UNL     1      -8.620  10.936  22.050  0.00  0.00    +0.000 HD
ENDBRANCH  36  39
ENDBRANCH  32  33
ENDBRANCH  31  32
ENDBRANCH  30  31
ENDBRANCH  29  30
ENDBRANCH  27  29
ENDBRANCH  26  27
ENDBRANCH  25  26
ENDBRANCH   9  25
TORSDOF 12
ENDMDL
MODEL 3
REMARK VINA RESULT:      -7.5      2.239      3.319
REMARK  Name = 
REMARK  16 active torsions:
REMARK  status: ('A' for Active; 'I' for Inactive)
REMARK    1  A    between atoms: C_1  and  C_2
REMARK    2  A    between atoms: C_4  and  C_5
REMARK    3  A    between atoms: C_7  and  C_8
REMARK    4  A    between atoms: C_13  and  O_14
REMARK    5  A    between atoms: O_14  and  C_15
REMARK    6  A    between atoms: N_17  and  C_18
REMARK    7  A    between atoms: N_17  and  C_19
REMARK    8  A    between atoms: C_22  and  C_23
REMARK    9  A    between atoms: C_23  and  C_24
REMARK   10  A    between atoms: C_24  and  N_25
REMARK   11  A    between atoms: N_25  and  C_26
REMARK   12  A    between atoms: C_26  and  C_27
REMARK   13  A    between atoms: C_27  and  C_28
REMARK   14  A    between atoms: C_28  and  C_29
REMARK   15  A    between atoms: C_29  and  C_30
REMARK   16  A    between atoms: C_33  and  O_34
REMARK                            x       y       z     vdW  Elec       q    Type
REMARK                         _______ _______ _______ _____ _____    ______ ____
ROOT
ATOM      1  C   UNL     1       1.064   9.578  19.195  0.00  0.00    +0.000 A 
ATOM      2  N   UNL     1       1.916   9.121  18.214  0.00  0.00    +0.000 N 
ATOM      3  C   UNL     1       2.441   7.893  18.530  0.00  0.00    +0.000 A 
ATOM      4  C   UNL     1       3.309   7.075  17.792  0.00  0.00    +0.000 A 
ATOM      5  C   UNL     1       3.695   5.849  18.348  0.00  0.00    +0.000 A 
ATOM      6  C   UNL     1       3.246   5.483  19.608  0.00  0.00    +0.000 A 
ATOM      7  C   UNL     1       2.368   6.302  20.325  0.00  0.00    +0.000 A 
ATOM      8  C   UNL     1       1.950   7.543  19.784  0.00  0.00    +0.000 A 
ATOM      9  C   UNL     1       1.077   8.609  20.208  0.00  0.00    +0.000 A 
ATOM     10  H   UNL     1       2.129   9.623  17.365  0.00  0.00    +0.000 HD
ENDROOT
BRANCH   1  17
ATOM     11  C   UNL     1      -3.247  12.139  18.815  0.00  0.00    +0.000 C 
ATOM     12  C   UNL     1      -1.748  12.145  18.889  0.00  0.00    +0.000 A 
ATOM     13  C   UNL     1      -1.024  13.337  18.825  0.00  0.00    +0.000 A 
ATOM     14  C   UNL     1       0.373  13.317  18.879  0.00  0.00    +0.000 A 
ATOM     15  C   UNL     1       1.155  14.599  18.853  0.00  0.00    +0.000 C 
ATOM     16  C   UNL     1       1.046  12.084  18.973  0.00  0.00    +0.000 A 
ATOM     17  C   UNL     1       0.347  10.870  19.059  0.00  0.00    +0.000 A 
ATOM     18  C   UNL     1      -1.054  10.932  19.026  0.00  0.00    +0.000 A 
ENDBRANCH   1  17
BRANCH   6  19
ATOM     19  O   UNL     1       3.565   4.249  20.230  0.00  0.00    +0.000 OA
BRANCH  19  20
ATOM     20  C   UNL     1       4.208   3.216  19.542  0.00  0.00    +0.000 C 
ATOM     21  O   UNL     1       5.416   3.167  19.352  0.00  0.00    +0.000 OA
ATOM     22  N   UNL     1       3.330   2.235  19.089  0.00  0.00    +0.000 N 
ATOM     23  C   UNL     1       1.908   2.206  19.387  0.00  0.00    +0.000 C 
ATOM     24  C   UNL     1       3.852   1.126  18.311  0.00  0.00    +0.000 C 
ENDBRANCH  19  20
ENDBRANCH   6  19
BRANCH   9  25
ATOM     25  C   UNL     1       0.258   8.696  21.463  0.00  0.00    +0.000 C 
BRANCH  25  26
ATOM     26  C   UNL     1       0.882   9.361  22.691  0.00  0.00    +0.000 C 
BRANCH  26  27
ATOM     27  N   UNL     1      -0.103   9.782  23.700  0.00  0.00    +0.000 NA
ATOM     28  H   UNL     1       0.359  10.354  24.406  0.00  0.00    +0.000 HD
BRANCH  27  29
ATOM     29  C   UNL     1      -1.179  10.544  23.074  0.00  0.00    +0.000 C 
BRANCH  29  30
ATOM     30  C   UNL     1      -0.651  11.833  22.464  0.00  0.00    +0.000 C 
BRANCH  30  31
ATOM     31  C   UNL     1      -1.273  13.004  23.219  0.00  0.00    +0.000 C 
BRANCH  31  32
ATOM     32  C   UNL     1      -2.373  13.675  22.410  0.00  0.00    +0.000 C 
BRANCH  32  33
ATOM     33  C   UNL     1      -1.867  14.967  21.828  0.00  0.00    +0.000 A 
ATOM     34  C   UNL     1      -2.596  15.628  20.830  0.00  0.00    +0.000 A 
ATOM     35  C   UNL     1      -2.104  16.800  20.253  0.00  0.00    +0.000 A 
ATOM     36  C   UNL     1      -0.876  17.303  20.673  0.00  0.00    +0.000 A 
ATOM     37  C   UNL     1      -0.136  16.656  21.654  0.00  0.00    +0.000 A 
ATOM     38  C   UNL     1      -0.628  15.486  22.230  0.00  0.00    +0.000 A 
BRANCH  36  39
ATOM     39  O   UNL     1      -0.354  18.440  20.131  0.00  0.00    +0.000 OA
ATOM     40  H   UNL     1      -0.941  19.181  20.351  0.00  0.00    +0.000 HD
ENDBRANCH  36  39
ENDBRANCH  32  33
ENDBRANCH  31  32
ENDBRANCH  30  31
ENDBRANCH  29  30
ENDBRANCH  27  29
ENDBRANCH  26  27
ENDBRANCH  25  26
ENDBRANCH   9  25
TORSDOF 12
ENDMDL
MODEL 4
REMARK VINA RESULT:      -7.5      1.420      1.820
REMARK  Name = 
REMARK  16 active torsions:
REMARK  status: ('A' for Active; 'I' for Inactive)
REMARK    1  A    between atoms: C_1  and  C_2
REMARK    2  A    between atoms: C_4  and  C_5
REMARK    3  A    between atoms: C_7  and  C_8
REMARK    4  A    between atoms: C_13  and  O_14
REMARK    5  A    between atoms: O_14  and  C_15
REMARK    6  A    between atoms: N_17  and  C_18
REMARK    7  A    between atoms: N_17  and  C_19
REMARK    8  A    between atoms: C_22  and  C_23
REMARK    9  A    between atoms: C_23  and  C_24
REMARK   10  A    between atoms: C_24  and  N_25
REMARK   11  A    between atoms: N_25  and  C_26
REMARK   12  A    between atoms: C_26  and  C_27
REMARK   13  A    between atoms: C_27  and  C_28
REMARK   14  A    between atoms: C_28  and  C_29
REMARK   15  A    between atoms: C_29  and  C_30
REMARK   16  A    between atoms: C_33  and  O_34
REMARK                            x       y       z     vdW  Elec       q    Type
REMARK                         _______ _______ _______ _____ _____    ______ ____
ROOT
ATOM      1  C   UNL     1       1.047   9.656  18.960  0.00  0.00    +0.000 A 
ATOM      2  N   UNL     1       1.876   9.371  17.898  0.00  0.00    +0.000 N 
ATOM      3  C   UNL     1       2.558   8.194  18.087  0.00  0.00    +0.000 A 
ATOM      4  C   UNL     1       3.460   7.536  17.240  0.00  0.00    +0.000 A 
ATOM      5  C   UNL     1       4.019   6.330  17.677  0.00  0.00    +0.000 A 
ATOM      6  C   UNL     1       3.704   5.829  18.931  0.00  0.00    +0.000 A 
ATOM      7  C   UNL     1       2.789   6.488  19.759  0.00  0.00    +0.000 A 
ATOM      8  C   UNL     1       2.196   7.705  19.339  0.00  0.00    +0.000 A 
ATOM      9  C   UNL     1       1.240   8.629  19.894  0.00  0.00    +0.000 A 
ATOM     10  H   UNL     1       1.971   9.950  17.077  0.00  0.00    +0.000 HD
ENDROOT
BRANCH   1  17
ATOM     11  C   UNL     1       0.517  14.633  19.449  0.00  0.00    +0.000 C 
ATOM     12  C   UNL     1      -0.103  13.292  19.182  0.00  0.00    +0.000 A 
ATOM     13  C   UNL     1      -1.472  13.161  18.947  0.00  0.00    +0.000 A 
ATOM     14  C   UNL     1      -2.030  11.898  18.718  0.00  0.00    +0.000 A 
ATOM     15  C   UNL     1      -3.495  11.756  18.422  0.00  0.00    +0.000 C 
ATOM     16  C   UNL     1      -1.205  10.759  18.750  0.00  0.00    +0.000 A 
ATOM     17  C   UNL     1       0.179  10.860  18.965  0.00  0.00    +0.000 A 
ATOM     18  C   UNL     1       0.706  12.144  19.167  0.00  0.00    +0.000 A 
ENDBRANCH   1  17
BRANCH   6  19
ATOM     19  O   UNL     1       4.203   4.603  19.437  0.00  0.00    +0.000 OA
BRANCH  19  20
ATOM     20  C   UNL     1       3.778   3.368  18.941  0.00  0.00    +0.000 C 
ATOM     21  O   UNL     1       4.159   2.887  17.881  0.00  0.00    +0.000 OA
ATOM     22  N   UNL     1       2.870   2.726  19.779  0.00  0.00    +0.000 N 
ATOM     23  C   UNL     1       2.478   3.215  21.090  0.00  0.00    +0.000 C 
ATOM     24  C   UNL     1       2.302   1.457  19.364  0.00  0.00    +0.000 C 
ENDBRANCH  19  20
ENDBRANCH   6  19
BRANCH   9  25
ATOM     25  C   UNL     1       0.504   8.533  21.200  0.00  0.00    +0.000 C 
BRANCH  25  26
ATOM     26  C   UNL     1       1.099   9.238  22.420  0.00  0.00    +0.000 C 
BRANCH  26  27
ATOM     27  N   UNL     1       0.099   9.918  23.256  0.00  0.00    +0.000 NA
ATOM     28  H   UNL     1       0.572  10.506  23.942  0.00  0.00    +0.000 HD
BRANCH  27  29
ATOM     29  C   UNL     1      -0.783  10.736  22.431  0.00  0.00    +0.000 C 
BRANCH  29  30
ATOM     30  C   UNL     1      -1.217  11.990  23.173  0.00  0.00    +0.000 C 
BRANCH  30  31
ATOM     31  C   UNL     1      -2.193  12.755  22.282  0.00  0.00    +0.000 C 
BRANCH  31  32
ATOM     32  C   UNL     1      -3.637  12.525  22.702  0.00  0.00    +0.000 C 
BRANCH  32  33
ATOM     33  C   UNL     1      -4.569  13.109  21.675  0.00  0.00    +0.000 A 
ATOM     34  C   UNL     1      -4.333  14.386  21.148  0.00  0.00    +0.000 A 
ATOM     35  C   UNL     1      -5.224  14.950  20.234  0.00  0.00    +0.000 A 
ATOM     36  C   UNL     1      -6.356  14.235  19.855  0.00  0.00    +0.000 A 
ATOM     37  C   UNL     1      -6.610  12.972  20.374  0.00  0.00    +0.000 A 
ATOM     38  C   UNL     1      -5.720  12.409  21.288  0.00  0.00    +0.000 A 
BRANCH  36  39
ATOM     39  O   UNL     1      -7.257  14.751  18.971  0.00  0.00    +0.000 OA
ATOM     40  H   UNL     1      -7.245  15.718  19.052  0.00  0.00    +0.000 HD
ENDBRANCH  36  39
ENDBRANCH  32  33
ENDBRANCH  31  32
ENDBRANCH  30  31
ENDBRANCH  29  30
ENDBRANCH  27  29
ENDBRANCH  26  27
ENDBRANCH  25  26
ENDBRANCH   9  25
TORSDOF 12
ENDMDL
MODEL 5
REMARK VINA RESULT:      -7.4      1.643      2.003
REMARK  Name = 
REMARK  16 active torsions:
REMARK  status: ('A' for Active; 'I' for Inactive)
REMARK    1  A    between atoms: C_1  and  C_2
REMARK    2  A    between atoms: C_4  and  C_5
REMARK    3  A    between atoms: C_7  and  C_8
REMARK    4  A    between atoms: C_13  and  O_14
REMARK    5  A    between atoms: O_14  and  C_15
REMARK    6  A    between atoms: N_17  and  C_18
REMARK    7  A    between atoms: N_17  and  C_19
REMARK    8  A    between atoms: C_22  and  C_23
REMARK    9  A    between atoms: C_23  and  C_24
REMARK   10  A    between atoms: C_24  and  N_25
REMARK   11  A    between atoms: N_25  and  C_26
REMARK   12  A    between atoms: C_26  and  C_27
REMARK   13  A    between atoms: C_27  and  C_28
REMARK   14  A    between atoms: C_28  and  C_29
REMARK   15  A    between atoms: C_29  and  C_30
REMARK   16  A    between atoms: C_33  and  O_34
REMARK                            x       y       z     vdW  Elec       q    Type
REMARK                         _______ _______ _______ _____ _____    ______ ____
ROOT
ATOM      1  C   UNL     1       1.036   9.754  19.093  0.00  0.00    +0.000 A 
ATOM      2  N   UNL     1       1.826   9.472  18.001  0.00  0.00    +0.000 N 
ATOM      3  C   UNL     1       2.480   8.274  18.143  0.00  0.00    +0.000 A 
ATOM      4  C   UNL     1       3.339   7.613  17.254  0.00  0.00    +0.000 A 
ATOM      5  C   UNL     1       3.878   6.381  17.647  0.00  0.00    +0.000 A 
ATOM      6  C   UNL     1       3.583   5.859  18.896  0.00  0.00    +0.000 A 
ATOM      7  C   UNL     1       2.711   6.521  19.766  0.00  0.00    +0.000 A 
ATOM      8  C   UNL     1       2.141   7.764  19.392  0.00  0.00    +0.000 A 
ATOM      9  C   UNL     1       1.226   8.699  19.997  0.00  0.00    +0.000 A 
ATOM     10  H   UNL     1       1.915  10.069  17.193  0.00  0.00    +0.000 HD
ENDROOT
BRANCH   1  17
ATOM     11  C   UNL     1       0.679  14.755  19.473  0.00  0.00    +0.000 C 
ATOM     12  C   UNL     1       0.003  13.425  19.318  0.00  0.00    +0.000 A 
ATOM     13  C   UNL     1      -1.386  13.323  19.236  0.00  0.00    +0.000 A 
ATOM     14  C   UNL     1      -1.995  12.070  19.110  0.00  0.00    +0.000 A 
ATOM     15  C   UNL     1      -3.487  11.959  18.978  0.00  0.00    +0.000 C 
ATOM     16  C   UNL     1      -1.199  10.910  19.091  0.00  0.00    +0.000 A 
ATOM     17  C   UNL     1       0.202  10.980  19.152  0.00  0.00    +0.000 A 
ATOM     18  C   UNL     1       0.778  12.255  19.254  0.00  0.00    +0.000 A 
ENDBRANCH   1  17
BRANCH   6  19
ATOM     19  O   UNL     1       4.062   4.606  19.359  0.00  0.00    +0.000 OA
BRANCH  19  20
ATOM     20  C   UNL     1       3.539   3.396  18.897  0.00  0.00    +0.000 C 
ATOM     21  O   UNL     1       3.832   2.888  17.822  0.00  0.00    +0.000 OA
ATOM     22  N   UNL     1       2.643   2.813  19.790  0.00  0.00    +0.000 N 
ATOM     23  C   UNL     1       2.354   3.331  21.116  0.00  0.00    +0.000 C 
ATOM     24  C   UNL     1       1.980   1.577  19.417  0.00  0.00    +0.000 C 
ENDBRANCH  19  20
ENDBRANCH   6  19
BRANCH   9  25
ATOM     25  C   UNL     1       0.525   8.591  21.320  0.00  0.00    +0.000 C 
BRANCH  25  26
ATOM     26  C   UNL     1       1.002   9.483  22.468  0.00  0.00    +0.000 C 
BRANCH  26  27
ATOM     27  N   UNL     1       0.040   9.586  23.576  0.00  0.00    +0.000 NA
ATOM     28  H   UNL     1       0.494  10.018  24.380  0.00  0.00    +0.000 HD
BRANCH  27  29
ATOM     29  C   UNL     1      -1.115  10.381  23.174  0.00  0.00    +0.000 C 
BRANCH  29  30
ATOM     30  C   UNL     1      -0.681  11.707  22.569  0.00  0.00    +0.000 C 
BRANCH  30  31
ATOM     31  C   UNL     1      -1.750  12.748  22.891  0.00  0.00    +0.000 C 
BRANCH  31  32
ATOM     32  C   UNL     1      -1.142  14.015  23.474  0.00  0.00    +0.000 C 
BRANCH  32  33
ATOM     33  C   UNL     1      -2.231  14.911  24.002  0.00  0.00    +0.000 A 
ATOM     34  C   UNL     1      -3.574  14.643  23.706  0.00  0.00    +0.000 A 
ATOM     35  C   UNL     1      -4.581  15.501  24.154  0.00  0.00    +0.000 A 
ATOM     36  C   UNL     1      -4.237  16.630  24.890  0.00  0.00    +0.000 A 
ATOM     37  C   UNL     1      -2.910  16.915  25.184  0.00  0.00    +0.000 A 
ATOM     38  C   UNL     1      -1.905  16.059  24.738  0.00  0.00    +0.000 A 
BRANCH  36  39
ATOM     39  O   UNL     1      -5.188  17.499  25.339  0.00  0.00    +0.000 OA
ATOM     40  H   UNL     1      -5.125  17.546  26.307  0.00  0.00    +0.000 HD
ENDBRANCH  36  39
ENDBRANCH  32  33
ENDBRANCH  31  32
ENDBRANCH  30  31
ENDBRANCH  29  30
ENDBRANCH  27  29
ENDBRANCH  26  27
ENDBRANCH  25  26
ENDBRANCH   9  25
TORSDOF 12
ENDMDL
MODEL 6
REMARK VINA RESULT:      -7.2      3.313      7.795
REMARK  Name = 
REMARK  16 active torsions:
REMARK  status: ('A' for Active; 'I' for Inactive)
REMARK    1  A    between atoms: C_1  and  C_2
REMARK    2  A    between atoms: C_4  and  C_5
REMARK    3  A    between atoms: C_7  and  C_8
REMARK    4  A    between atoms: C_13  and  O_14
REMARK    5  A    between atoms: O_14  and  C_15
REMARK    6  A    between atoms: N_17  and  C_18
REMARK    7  A    between atoms: N_17  and  C_19
REMARK    8  A    between atoms: C_22  and  C_23
REMARK    9  A    between atoms: C_23  and  C_24
REMARK   10  A    between atoms: C_24  and  N_25
REMARK   11  A    between atoms: N_25  and  C_26
REMARK   12  A    between atoms: C_26  and  C_27
REMARK   13  A    between atoms: C_27  and  C_28
REMARK   14  A    between atoms: C_28  and  C_29
REMARK   15  A    between atoms: C_29  and  C_30
REMARK   16  A    between atoms: C_33  and  O_34
REMARK                            x       y       z     vdW  Elec       q    Type
REMARK                         _______ _______ _______ _____ _____    ______ ____
ROOT
ATOM      1  C   UNL     1       1.761   7.892  19.933  0.00  0.00    +0.000 A 
ATOM      2  N   UNL     1       1.475   7.750  21.273  0.00  0.00    +0.000 N 
ATOM      3  C   UNL     1       0.720   8.795  21.745  0.00  0.00    +0.000 A 
ATOM      4  C   UNL     1       0.192   9.010  23.025  0.00  0.00    +0.000 A 
ATOM      5  C   UNL     1      -0.558  10.171  23.245  0.00  0.00    +0.000 A 
ATOM      6  C   UNL     1      -0.738  11.089  22.222  0.00  0.00    +0.000 A 
ATOM      7  C   UNL     1      -0.220  10.853  20.945  0.00  0.00    +0.000 A 
ATOM      8  C   UNL     1       0.534   9.680  20.688  0.00  0.00    +0.000 A 
ATOM      9  C   UNL     1       1.192   9.112  19.538  0.00  0.00    +0.000 A 
ATOM     10  H   UNL     1       1.779   6.974  21.841  0.00  0.00    +0.000 HD
ENDROOT
BRANCH   1  17
ATOM     11  C   UNL     1       2.974   3.073  19.168  0.00  0.00    +0.000 C 
ATOM     12  C   UNL     1       3.131   4.516  18.787  0.00  0.00    +0.000 A 
ATOM     13  C   UNL     1       3.992   4.905  17.760  0.00  0.00    +0.000 A 
ATOM     14  C   UNL     1       4.136   6.258  17.434  0.00  0.00    +0.000 A 
ATOM     15  C   UNL     1       5.028   6.678  16.302  0.00  0.00    +0.000 C 
ATOM     16  C   UNL     1       3.424   7.226  18.166  0.00  0.00    +0.000 A 
ATOM     17  C   UNL     1       2.535   6.866  19.192  0.00  0.00    +0.000 A 
ATOM     18  C   UNL     1       2.400   5.499  19.473  0.00  0.00    +0.000 A 
ENDBRANCH   1  17
BRANCH   6  19
ATOM     19  O   UNL     1      -1.507  12.273  22.352  0.00  0.00    +0.000 OA
BRANCH  19  20
ATOM     20  C   UNL     1      -0.996  13.427  22.952  0.00  0.00    +0.000 C 
ATOM     21  O   UNL     1       0.121  13.877  22.732  0.00  0.00    +0.000 OA
ATOM     22  N   UNL     1      -1.892  14.024  23.835  0.00  0.00    +0.000 N 
ATOM     23  C   UNL     1      -3.259  13.580  24.041  0.00  0.00    +0.000 C 
ATOM     24  C   UNL     1      -1.475  15.203  24.572  0.00  0.00    +0.000 C 
ENDBRANCH  19  20
ENDBRANCH   6  19
BRANCH   9  25
ATOM     25  C   UNL     1       1.244   9.647  18.137  0.00  0.00    +0.000 C 
BRANCH  25  26
ATOM     26  C   UNL     1       2.267  10.736  17.814  0.00  0.00    +0.000 C 
BRANCH  26  27
ATOM     27  N   UNL     1       2.203  11.895  18.718  0.00  0.00    +0.000 NA
ATOM     28  H   UNL     1       3.148  12.206  18.939  0.00  0.00    +0.000 HD
BRANCH  27  29
ATOM     29  C   UNL     1       1.457  12.984  18.097  0.00  0.00    +0.000 C 
BRANCH  29  30
ATOM     30  C   UNL     1       0.742  13.822  19.145  0.00  0.00    +0.000 C 
BRANCH  30  31
ATOM     31  C   UNL     1      -0.751  13.518  19.057  0.00  0.00    +0.000 C 
BRANCH  31  32
ATOM     32  C   UNL     1      -1.050  12.471  17.995  0.00  0.00    +0.000 C 
BRANCH  32  33
ATOM     33  C   UNL     1      -2.489  12.038  18.091  0.00  0.00    +0.000 A 
ATOM     34  C   UNL     1      -3.243  12.333  19.236  0.00  0.00    +0.000 A 
ATOM     35  C   UNL     1      -4.561  11.890  19.347  0.00  0.00    +0.000 A 
ATOM     36  C   UNL     1      -5.120  11.144  18.314  0.00  0.00    +0.000 A 
ATOM     37  C   UNL     1      -4.384  10.834  17.177  0.00  0.00    +0.000 A 
ATOM     38  C   UNL     1      -3.067  11.277  17.066  0.00  0.00    +0.000 A 
BRANCH  36  39
ATOM     39  O   UNL     1      -6.402  10.683  18.385  0.00  0.00    +0.000 OA
ATOM     40  H   UNL     1      -6.666  10.659  19.319  0.00  0.00    +0.000 HD
ENDBRANCH  36  39
ENDBRANCH  32  33
ENDBRANCH  31  32
ENDBRANCH  30  31
ENDBRANCH  29  30
ENDBRANCH  27  29
ENDBRANCH  26  27
ENDBRANCH  25  26
ENDBRANCH   9  25
TORSDOF 12
ENDMDL
MODEL 7
REMARK VINA RESULT:      -7.2      1.396      1.729
REMARK  Name = 
REMARK  16 active torsions:
REMARK  status: ('A' for Active; 'I' for Inactive)
REMARK    1  A    between atoms: C_1  and  C_2
REMARK    2  A    between atoms: C_4  and  C_5
REMARK    3  A    between atoms: C_7  and  C_8
REMARK    4  A    between atoms: C_13  and  O_14
REMARK    5  A    between atoms: O_14  and  C_15
REMARK    6  A    between atoms: N_17  and  C_18
REMARK    7  A    between atoms: N_17  and  C_19
REMARK    8  A    between atoms: C_22  and  C_23
REMARK    9  A    between atoms: C_23  and  C_24
REMARK   10  A    between atoms: C_24  and  N_25
REMARK   11  A    between atoms: N_25  and  C_26
REMARK   12  A    between atoms: C_26  and  C_27
REMARK   13  A    between atoms: C_27  and  C_28
REMARK   14  A    between atoms: C_28  and  C_29
REMARK   15  A    between atoms: C_29  and  C_30
REMARK   16  A    between atoms: C_33  and  O_34
REMARK                            x       y       z     vdW  Elec       q    Type
REMARK                         _______ _______ _______ _____ _____    ______ ____
ROOT
ATOM      1  C   UNL     1       1.083   9.673  19.040  0.00  0.00    +0.000 A 
ATOM      2  N   UNL     1       1.887   9.431  17.949  0.00  0.00    +0.000 N 
ATOM      3  C   UNL     1       2.573   8.248  18.075  0.00  0.00    +0.000 A 
ATOM      4  C   UNL     1       3.455   7.626  17.181  0.00  0.00    +0.000 A 
ATOM      5  C   UNL     1       4.025   6.403  17.557  0.00  0.00    +0.000 A 
ATOM      6  C   UNL     1       3.738   5.852  18.796  0.00  0.00    +0.000 A 
ATOM      7  C   UNL     1       2.843   6.477  19.671  0.00  0.00    +0.000 A 
ATOM      8  C   UNL     1       2.241   7.709  19.314  0.00  0.00    +0.000 A 
ATOM      9  C   UNL     1       1.297   8.609  19.928  0.00  0.00    +0.000 A 
ATOM     10  H   UNL     1       1.964  10.043  17.150  0.00  0.00    +0.000 HD
ENDROOT
BRANCH   1  17
ATOM     11  C   UNL     1       0.562  14.621  19.767  0.00  0.00    +0.000 C 
ATOM     12  C   UNL     1      -0.061  13.294  19.448  0.00  0.00    +0.000 A 
ATOM     13  C   UNL     1      -1.434  13.174  19.226  0.00  0.00    +0.000 A 
ATOM     14  C   UNL     1      -1.996  11.923  18.947  0.00  0.00    +0.000 A 
ATOM     15  C   UNL     1      -3.465  11.794  18.666  0.00  0.00    +0.000 C 
ATOM     16  C   UNL     1      -1.171  10.784  18.914  0.00  0.00    +0.000 A 
ATOM     17  C   UNL     1       0.216  10.875  19.113  0.00  0.00    +0.000 A 
ATOM     18  C   UNL     1       0.746  12.149  19.367  0.00  0.00    +0.000 A 
ENDBRANCH   1  17
BRANCH   6  19
ATOM     19  O   UNL     1       4.248   4.606  19.242  0.00  0.00    +0.000 OA
BRANCH  19  20
ATOM     20  C   UNL     1       3.828   3.393  18.690  0.00  0.00    +0.000 C 
ATOM     21  O   UNL     1       4.181   2.981  17.592  0.00  0.00    +0.000 OA
ATOM     22  N   UNL     1       2.961   2.688  19.520  0.00  0.00    +0.000 N 
ATOM     23  C   UNL     1       2.605   3.095  20.868  0.00  0.00    +0.000 C 
ATOM     24  C   UNL     1       2.402   1.433  19.051  0.00  0.00    +0.000 C 
ENDBRANCH  19  20
ENDBRANCH   6  19
BRANCH   9  25
ATOM     25  C   UNL     1       0.592   8.461  21.245  0.00  0.00    +0.000 C 
BRANCH  25  26
ATOM     26  C   UNL     1       1.216   9.114  22.479  0.00  0.00    +0.000 C 
BRANCH  26  27
ATOM     27  N   UNL     1       0.263   9.899  23.278  0.00  0.00    +0.000 NA
ATOM     28  H   UNL     1       0.773  10.573  23.849  0.00  0.00    +0.000 HD
BRANCH  27  29
ATOM     29  C   UNL     1      -0.675  10.600  22.408  0.00  0.00    +0.000 C 
BRANCH  29  30
ATOM     30  C   UNL     1      -1.196  11.864  23.074  0.00  0.00    +0.000 C 
BRANCH  30  31
ATOM     31  C   UNL     1      -2.635  12.084  22.614  0.00  0.00    +0.000 C 
BRANCH  31  32
ATOM     32  C   UNL     1      -3.447  12.844  23.651  0.00  0.00    +0.000 C 
BRANCH  32  33
ATOM     33  C   UNL     1      -4.237  13.938  22.984  0.00  0.00    +0.000 A 
ATOM     34  C   UNL     1      -4.300  14.015  21.586  0.00  0.00    +0.000 A 
ATOM     35  C   UNL     1      -4.990  15.058  20.966  0.00  0.00    +0.000 A 
ATOM     36  C   UNL     1      -5.609  16.026  21.749  0.00  0.00    +0.000 A 
ATOM     37  C   UNL     1      -5.550  15.970  23.136  0.00  0.00    +0.000 A 
ATOM     38  C   UNL     1      -4.861  14.929  23.755  0.00  0.00    +0.000 A 
BRANCH  36  39
ATOM     39  O   UNL     1      -6.287  17.067  21.185  0.00  0.00    +0.000 OA
ATOM     40  H   UNL     1      -6.546  16.811  20.285  0.00  0.00    +0.000 HD
ENDBRANCH  36  39
ENDBRANCH  32  33
ENDBRANCH  31  32
ENDBRANCH  30  31
ENDBRANCH  29  30
ENDBRANCH  27  29
ENDBRANCH  26  27
ENDBRANCH  25  26
ENDBRANCH   9  25
TORSDOF 12
ENDMDL
MODEL 8
REMARK VINA RESULT:      -7.2      1.232      2.014
REMARK  Name = 
REMARK  16 active torsions:
REMARK  status: ('A' for Active; 'I' for Inactive)
REMARK    1  A    between atoms: C_1  and  C_2
REMARK    2  A    between atoms: C_4  and  C_5
REMARK    3  A    between atoms: C_7  and  C_8
REMARK    4  A    between atoms: C_13  and  O_14
REMARK    5  A    between atoms: O_14  and  C_15
REMARK    6  A    between atoms: N_17  and  C_18
REMARK    7  A    between atoms: N_17  and  C_19
REMARK    8  A    between atoms: C_22  and  C_23
REMARK    9  A    between atoms: C_23  and  C_24
REMARK   10  A    between atoms: C_24  and  N_25
REMARK   11  A    between atoms: N_25  and  C_26
REMARK   12  A    between atoms: C_26  and  C_27
REMARK   13  A    between atoms: C_27  and  C_28
REMARK   14  A    between atoms: C_28  and  C_29
REMARK   15  A    between atoms: C_29  and  C_30
REMARK   16  A    between atoms: C_33  and  O_34
REMARK                            x       y       z     vdW  Elec       q    Type
REMARK                         _______ _______ _______ _____ _____    ______ ____
ROOT
ATOM      1  C   UNL     1       1.067   9.726  19.019  0.00  0.00    +0.000 A 
ATOM      2  N   UNL     1       1.878   9.455  17.939  0.00  0.00    +0.000 N 
ATOM      3  C   UNL     1       2.539   8.261  18.086  0.00  0.00    +0.000 A 
ATOM      4  C   UNL     1       3.418   7.610  17.209  0.00  0.00    +0.000 A 
ATOM      5  C   UNL     1       3.959   6.381  17.605  0.00  0.00    +0.000 A 
ATOM      6  C   UNL     1       3.647   5.850  18.847  0.00  0.00    +0.000 A 
ATOM      7  C   UNL     1       2.756   6.502  19.705  0.00  0.00    +0.000 A 
ATOM      8  C   UNL     1       2.182   7.742  19.327  0.00  0.00    +0.000 A 
ATOM      9  C   UNL     1       1.250   8.668  19.921  0.00  0.00    +0.000 A 
ATOM     10  H   UNL     1       1.976  10.056  17.135  0.00  0.00    +0.000 HD
ENDROOT
BRANCH   1  17
ATOM     11  C   UNL     1      -3.463  11.893  18.773  0.00  0.00    +0.000 C 
ATOM     12  C   UNL     1      -1.981  12.026  18.970  0.00  0.00    +0.000 A 
ATOM     13  C   UNL     1      -1.388  13.270  19.191  0.00  0.00    +0.000 A 
ATOM     14  C   UNL     1      -0.003  13.372  19.354  0.00  0.00    +0.000 A 
ATOM     15  C   UNL     1       0.635  14.702  19.634  0.00  0.00    +0.000 C 
ATOM     16  C   UNL     1       0.792  12.214  19.270  0.00  0.00    +0.000 A 
ATOM     17  C   UNL     1       0.224  10.946  19.069  0.00  0.00    +0.000 A 
ATOM     18  C   UNL     1      -1.170  10.881  18.933  0.00  0.00    +0.000 A 
ENDBRANCH   1  17
BRANCH   6  19
ATOM     19  O   UNL     1       4.128   4.600  19.312  0.00  0.00    +0.000 OA
BRANCH  19  20
ATOM     20  C   UNL     1       3.627   3.388  18.830  0.00  0.00    +0.000 C 
ATOM     21  O   UNL     1       3.932   2.901  17.749  0.00  0.00    +0.000 OA
ATOM     22  N   UNL     1       2.738   2.777  19.711  0.00  0.00    +0.000 N 
ATOM     23  C   UNL     1       2.436   3.270  21.043  0.00  0.00    +0.000 C 
ATOM     24  C   UNL     1       2.098   1.535  19.318  0.00  0.00    +0.000 C 
ENDBRANCH  19  20
ENDBRANCH   6  19
BRANCH   9  25
ATOM     25  C   UNL     1       0.528   8.549  21.232  0.00  0.00    +0.000 C 
BRANCH  25  26
ATOM     26  C   UNL     1       1.177   9.160  22.474  0.00  0.00    +0.000 C 
BRANCH  26  27
ATOM     27  N   UNL     1       0.232   9.881  23.341  0.00  0.00    +0.000 NA
ATOM     28  H   UNL     1       0.740  10.312  24.112  0.00  0.00    +0.000 HD
BRANCH  27  29
ATOM     29  C   UNL     1      -0.475  10.906  22.581  0.00  0.00    +0.000 C 
BRANCH  29  30
ATOM     30  C   UNL     1      -1.804  11.250  23.235  0.00  0.00    +0.000 C 
BRANCH  30  31
ATOM     31  C   UNL     1      -2.376  12.477  22.530  0.00  0.00    +0.000 C 
BRANCH  31  32
ATOM     32  C   UNL     1      -2.877  13.514  23.524  0.00  0.00    +0.000 C 
BRANCH  32  33
ATOM     33  C   UNL     1      -4.213  14.047  23.080  0.00  0.00    +0.000 A 
ATOM     34  C   UNL     1      -4.760  13.653  21.851  0.00  0.00    +0.000 A 
ATOM     35  C   UNL     1      -5.975  14.185  21.415  0.00  0.00    +0.000 A 
ATOM     36  C   UNL     1      -6.634  15.119  22.208  0.00  0.00    +0.000 A 
ATOM     37  C   UNL     1      -6.102  15.528  23.424  0.00  0.00    +0.000 A 
ATOM     38  C   UNL     1      -4.889  14.996  23.860  0.00  0.00    +0.000 A 
BRANCH  36  39
ATOM     39  O   UNL     1      -7.819  15.671  21.817  0.00  0.00    +0.000 OA
ATOM     40  H   UNL     1      -8.454  14.953  21.665  0.00  0.00    +0.000 HD
ENDBRANCH  36  39
ENDBRANCH  32  33
ENDBRANCH  31  32
ENDBRANCH  30  31
ENDBRANCH  29  30
ENDBRANCH  27  29
ENDBRANCH  26  27
ENDBRANCH  25  26
ENDBRANCH   9  25
TORSDOF 12
ENDMDL
MODEL 9
REMARK VINA RESULT:      -7.1      3.477      8.015
REMARK  Name = 
REMARK  16 active torsions:
REMARK  status: ('A' for Active; 'I' for Inactive)
REMARK    1  A    between atoms: C_1  and  C_2
REMARK    2  A    between atoms: C_4  and  C_5
REMARK    3  A    between atoms: C_7  and  C_8
REMARK    4  A    between atoms: C_13  and  O_14
REMARK    5  A    between atoms: O_14  and  C_15
REMARK    6  A    between atoms: N_17  and  C_18
REMARK    7  A    between atoms: N_17  and  C_19
REMARK    8  A    between atoms: C_22  and  C_23
REMARK    9  A    between atoms: C_23  and  C_24
REMARK   10  A    between atoms: C_24  and  N_25
REMARK   11  A    between atoms: N_25  and  C_26
REMARK   12  A    between atoms: C_26  and  C_27
REMARK   13  A    between atoms: C_27  and  C_28
REMARK   14  A    between atoms: C_28  and  C_29
REMARK   15  A    between atoms: C_29  and  C_30
REMARK   16  A    between atoms: C_33  and  O_34
REMARK                            x       y       z     vdW  Elec       q    Type
REMARK                         _______ _______ _______ _____ _____    ______ ____
ROOT
ATOM      1  C   UNL     1       1.625   8.074  20.128  0.00  0.00    +0.000 A 
ATOM      2  N   UNL     1       1.383   8.041  21.484  0.00  0.00    +0.000 N 
ATOM      3  C   UNL     1       0.577   9.079  21.882  0.00  0.00    +0.000 A 
ATOM      4  C   UNL     1       0.069   9.381  23.153  0.00  0.00    +0.000 A 
ATOM      5  C   UNL     1      -0.745  10.512  23.288  0.00  0.00    +0.000 A 
ATOM      6  C   UNL     1      -1.008  11.317  22.191  0.00  0.00    +0.000 A 
ATOM      7  C   UNL     1      -0.508  10.994  20.926  0.00  0.00    +0.000 A 
ATOM      8  C   UNL     1       0.309   9.849  20.754  0.00  0.00    +0.000 A 
ATOM      9  C   UNL     1       0.972   9.216  19.642  0.00  0.00    +0.000 A 
ATOM     10  H   UNL     1       1.748   7.341  22.111  0.00  0.00    +0.000 HD
ENDROOT
BRANCH   1  17
ATOM     11  C   UNL     1       3.241   3.320  19.873  0.00  0.00    +0.000 C 
ATOM     12  C   UNL     1       3.232   4.709  19.305  0.00  0.00    +0.000 A 
ATOM     13  C   UNL     1       3.980   5.033  18.172  0.00  0.00    +0.000 A 
ATOM     14  C   UNL     1       3.969   6.339  17.670  0.00  0.00    +0.000 A 
ATOM     15  C   UNL     1       4.738   6.683  16.426  0.00  0.00    +0.000 C 
ATOM     16  C   UNL     1       3.220   7.329  18.330  0.00  0.00    +0.000 A 
ATOM     17  C   UNL     1       2.442   7.031  19.461  0.00  0.00    +0.000 A 
ATOM     18  C   UNL     1       2.459   5.706  19.920  0.00  0.00    +0.000 A 
ENDBRANCH   1  17
BRANCH   6  19
ATOM     19  O   UNL     1      -1.844  12.461  22.237  0.00  0.00    +0.000 OA
BRANCH  19  20
ATOM     20  C   UNL     1      -1.732  13.423  23.244  0.00  0.00    +0.000 C 
ATOM     21  O   UNL     1      -0.697  14.019  23.510  0.00  0.00    +0.000 OA
ATOM     22  N   UNL     1      -2.928  13.643  23.923  0.00  0.00    +0.000 N 
ATOM     23  C   UNL     1      -4.197  13.034  23.565  0.00  0.00    +0.000 C 
ATOM     24  C   UNL     1      -2.947  14.579  25.032  0.00  0.00    +0.000 C 
ENDBRANCH  19  20
ENDBRANCH   6  19
BRANCH   9  25
ATOM     25  C   UNL     1       0.955   9.620  18.196  0.00  0.00    +0.000 C 
BRANCH  25  26
ATOM     26  C   UNL     1      -0.388   9.635  17.464  0.00  0.00    +0.000 C 
BRANCH  26  27
ATOM     27  N   UNL     1      -1.114  10.908  17.586  0.00  0.00    +0.000 NA
ATOM     28  H   UNL     1      -0.574  11.651  17.142  0.00  0.00    +0.000 HD
BRANCH  27  29
ATOM     29  C   UNL     1      -2.427  10.808  16.958  0.00  0.00    +0.000 C 
BRANCH  29  30
ATOM     30  C   UNL     1      -3.471  11.579  17.751  0.00  0.00    +0.000 C 
BRANCH  30  31
ATOM     31  C   UNL     1      -4.797  10.831  17.641  0.00  0.00    +0.000 C 
BRANCH  31  32
ATOM     32  C   UNL     1      -5.827  11.366  18.623  0.00  0.00    +0.000 C 
BRANCH  32  33
ATOM     33  C   UNL     1      -6.206  12.776  18.254  0.00  0.00    +0.000 A 
ATOM     34  C   UNL     1      -6.169  13.795  19.215  0.00  0.00    +0.000 A 
ATOM     35  C   UNL     1      -6.567  15.091  18.886  0.00  0.00    +0.000 A 
ATOM     36  C   UNL     1      -7.010  15.362  17.596  0.00  0.00    +0.000 A 
ATOM     37  C   UNL     1      -7.062  14.362  16.633  0.00  0.00    +0.000 A 
ATOM     38  C   UNL     1      -6.664  13.067  16.961  0.00  0.00    +0.000 A 
BRANCH  36  39
ATOM     39  O   UNL     1      -7.417  16.613  17.234  0.00  0.00    +0.000 OA
ATOM     40  H   UNL     1      -8.275  16.787  17.651  0.00  0.00    +0.000 HD
ENDBRANCH  36  39
ENDBRANCH  32  33
ENDBRANCH  31  32
ENDBRANCH  30  31
ENDBRANCH  29  30
ENDBRANCH  27  29
ENDBRANCH  26  27
ENDBRANCH  25  26
ENDBRANCH   9  25
TORSDOF 12
ENDMDL
