MODEL 1
REMARK VINA RESULT:      -8.3      0.000      0.000
REMARK  Name = 
REMARK  6 active torsions:
REMARK  status: ('A' for Active; 'I' for Inactive)
REMARK    1  A    between atoms: C_1  and  O_2
REMARK    2  A    between atoms: O_2  and  C_3
REMARK    3  A    between atoms: C_6  and  O_7
REMARK    4  A    between atoms: O_7  and  C_8
REMARK    5  A    between atoms: C_10  and  C_11
REMARK    6  A    between atoms: N_12  and  O_13
REMARK                            x       y       z     vdW  Elec       q    Type
REMARK                         _______ _______ _______ _____ _____    ______ ____
ROOT
ATOM      1  C   UNL     1       6.881   5.628  16.412  0.00  0.00    +0.000 A 
ATOM      2  C   UNL     1       5.585   6.091  16.563  0.00  0.00    +0.000 A 
ATOM      3  C   UNL     1       5.017   5.990  17.833  0.00  0.00    +0.000 A 
ATOM      4  C   UNL     1       5.758   5.451  18.885  0.00  0.00    +0.000 A 
ATOM      5  C   UNL     1       7.025   4.979  18.620  0.00  0.00    +0.000 A 
ATOM      6  N   UNL     1       7.592   5.037  17.403  0.00  0.00    +0.000 NA
ENDROOT
BRANCH   3   7
ATOM      7  C   UNL     1       3.633   6.500  18.105  0.00  0.00    +0.000 C 
ATOM      8  N   UNL     1       3.387   7.722  17.731  0.00  0.00    +0.000 NA
ATOM      9  N   UNL     1       2.778   5.626  18.766  0.00  0.00    +0.000 N 
ATOM     10  C   UNL     1       2.029   6.035  19.949  0.00  0.00    +0.000 C 
ATOM     11  C   UNL     1       1.817   4.836  20.844  0.00  0.00    +0.000 C 
ATOM     12  C   UNL     1       2.032   3.562  20.473  0.00  0.00    +0.000 C 
ATOM     13  C   UNL     1       2.480   3.219  19.077  0.00  0.00    +0.000 C 
ATOM     14  C   UNL     1       2.303   4.403  18.118  0.00  0.00    +0.000 C 
BRANCH   8  15
ATOM     15  O   UNL     1       2.072   8.111  18.007  0.00  0.00    +0.000 OA
ATOM     16  H   UNL     1       1.623   7.918  17.163  0.00  0.00    +0.000 HD
ENDBRANCH   8  15
ENDBRANCH   3   7
BRANCH   1  17
ATOM     17  O   UNL     1       7.462   5.782  15.157  0.00  0.00    +0.000 OA
BRANCH  17  21
ATOM     18  C   UNL     1       6.022   3.228  12.175  0.00  0.00    +0.000 A 
ATOM     19  C   UNL     1       5.425   3.289  13.437  0.00  0.00    +0.000 A 
ATOM     20  C   UNL     1       5.922   4.153  14.418  0.00  0.00    +0.000 A 
ATOM     21  C   UNL     1       7.039   4.943  14.150  0.00  0.00    +0.000 A 
ATOM     22  C   UNL     1       7.621   4.899  12.878  0.00  0.00    +0.000 A 
ATOM     23  C   UNL     1       7.129   4.029  11.902  0.00  0.00    +0.000 A 
BRANCH  18  25
ATOM     24  C   UNL     1       6.188   1.122  11.117  0.00  0.00    +0.000 C 
ATOM     25  O   UNL     1       5.464   2.333  11.303  0.00  0.00    +0.000 OA
ENDBRANCH  18  25
ENDBRANCH  17  21
ENDBRANCH   1  17
TORSDOF 5
ENDMDL
MODEL 2
REMARK VINA RESULT:      -7.8      3.644      6.846
REMARK  Name = 
REMARK  6 active torsions:
REMARK  status: ('A' for Active; 'I' for Inactive)
REMARK    1  A    between atoms: C_1  and  O_2
REMARK    2  A    between atoms: O_2  and  C_3
REMARK    3  A    between atoms: C_6  and  O_7
REMARK    4  A    between atoms: O_7  and  C_8
REMARK    5  A    between atoms: C_10  and  C_11
REMARK    6  A    between atoms: N_12  and  O_13
REMARK                            x       y       z     vdW  Elec       q    Type
REMARK                         _______ _______ _______ _____ _____    ______ ____
ROOT
ATOM      1  C   UNL     1       4.212   6.649  17.339  0.00  0.00    +0.000 A 
ATOM      2  C   UNL     1       3.642   5.413  17.591  0.00  0.00    +0.000 A 
ATOM      3  C   UNL     1       4.508   4.364  17.900  0.00  0.00    +0.000 A 
ATOM      4  C   UNL     1       5.883   4.592  17.954  0.00  0.00    +0.000 A 
ATOM      5  C   UNL     1       6.352   5.850  17.644  0.00  0.00    +0.000 A 
ATOM      6  N   UNL     1       5.548   6.875  17.316  0.00  0.00    +0.000 NA
ENDROOT
BRANCH   3   7
ATOM      7  C   UNL     1       3.983   2.998  18.227  0.00  0.00    +0.000 C 
ATOM      8  N   UNL     1       4.505   2.007  17.565  0.00  0.00    +0.000 NA
ATOM      9  N   UNL     1       2.963   2.946  19.170  0.00  0.00    +0.000 N 
ATOM     10  C   UNL     1       1.726   2.215  18.920  0.00  0.00    +0.000 C 
ATOM     11  C   UNL     1       0.593   2.884  19.664  0.00  0.00    +0.000 C 
ATOM     12  C   UNL     1       0.755   3.817  20.617  0.00  0.00    +0.000 C 
ATOM     13  C   UNL     1       2.127   4.255  21.059  0.00  0.00    +0.000 C 
ATOM     14  C   UNL     1       3.213   3.288  20.570  0.00  0.00    +0.000 C 
BRANCH   8  15
ATOM     15  O   UNL     1       3.971   0.771  17.942  0.00  0.00    +0.000 OA
ATOM     16  H   UNL     1       4.767   0.284  18.223  0.00  0.00    +0.000 HD
ENDBRANCH   8  15
ENDBRANCH   3   7
BRANCH   1  17
ATOM     17  O   UNL     1       3.340   7.705  17.086  0.00  0.00    +0.000 OA
BRANCH  17  21
ATOM     18  C   UNL     1       0.928   9.203  20.155  0.00  0.00    +0.000 A 
ATOM     19  C   UNL     1       1.067   9.877  18.939  0.00  0.00    +0.000 A 
ATOM     20  C   UNL     1       1.877   9.356  17.926  0.00  0.00    +0.000 A 
ATOM     21  C   UNL     1       2.576   8.167  18.134  0.00  0.00    +0.000 A 
ATOM     22  C   UNL     1       2.417   7.480  19.342  0.00  0.00    +0.000 A 
ATOM     23  C   UNL     1       1.614   8.007  20.357  0.00  0.00    +0.000 A 
BRANCH  18  25
ATOM     24  C   UNL     1       0.219   9.309  22.407  0.00  0.00    +0.000 C 
ATOM     25  O   UNL     1       0.127   9.816  21.080  0.00  0.00    +0.000 OA
ENDBRANCH  18  25
ENDBRANCH  17  21
ENDBRANCH   1  17
TORSDOF 5
ENDMDL
MODEL 3
REMARK VINA RESULT:      -7.7      4.689      8.666
REMARK  Name = 
REMARK  6 active torsions:
REMARK  status: ('A' for Active; 'I' for Inactive)
REMARK    1  A    between atoms: C_1  and  O_2
REMARK    2  A    between atoms: O_2  and  C_3
REMARK    3  A    between atoms: C_6  and  O_7
REMARK    4  A    between atoms: O_7  and  C_8
REMARK    5  A    between atoms: C_10  and  C_11
REMARK    6  A    between atoms: N_12  and  O_13
REMARK                            x       y       z     vdW  Elec       q    Type
REMARK                         _______ _______ _______ _____ _____    ______ ____
ROOT
ATOM      1  C   UNL     1       0.975   9.633  19.070  0.00  0.00    +0.000 A 
ATOM      2  C   UNL     1       1.697   8.665  18.394  0.00  0.00    +0.000 A 
ATOM      3  C   UNL     1       2.163   7.582  19.140  0.00  0.00    +0.000 A 
ATOM      4  C   UNL     1       1.883   7.507  20.504  0.00  0.00    +0.000 A 
ATOM      5  C   UNL     1       1.193   8.544  21.090  0.00  0.00    +0.000 A 
ATOM      6  N   UNL     1       0.753   9.614  20.407  0.00  0.00    +0.000 NA
ENDROOT
BRANCH   3   7
ATOM      7  C   UNL     1       2.922   6.464  18.488  0.00  0.00    +0.000 C 
ATOM      8  N   UNL     1       3.825   6.812  17.618  0.00  0.00    +0.000 NA
ATOM      9  N   UNL     1       2.545   5.177  18.853  0.00  0.00    +0.000 N 
ATOM     10  C   UNL     1       2.247   4.154  17.857  0.00  0.00    +0.000 C 
ATOM     11  C   UNL     1       1.218   3.198  18.416  0.00  0.00    +0.000 C 
ATOM     12  C   UNL     1       0.858   3.139  19.709  0.00  0.00    +0.000 C 
ATOM     13  C   UNL     1       1.503   4.024  20.742  0.00  0.00    +0.000 C 
ATOM     14  C   UNL     1       2.784   4.678  20.208  0.00  0.00    +0.000 C 
BRANCH   8  15
ATOM     15  O   UNL     1       4.492   5.711  17.072  0.00  0.00    +0.000 OA
ATOM     16  H   UNL     1       4.160   5.707  16.156  0.00  0.00    +0.000 HD
ENDBRANCH   8  15
ENDBRANCH   3   7
BRANCH   1  17
ATOM     17  O   UNL     1       0.465  10.683  18.311  0.00  0.00    +0.000 OA
BRANCH  17  21
ATOM     18  C   UNL     1      -3.700  10.870  17.979  0.00  0.00    +0.000 A 
ATOM     19  C   UNL     1      -2.951   9.925  17.272  0.00  0.00    +0.000 A 
ATOM     20  C   UNL     1      -1.559   9.879  17.401  0.00  0.00    +0.000 A 
ATOM     21  C   UNL     1      -0.905  10.799  18.219  0.00  0.00    +0.000 A 
ATOM     22  C   UNL     1      -1.657  11.729  18.945  0.00  0.00    +0.000 A 
ATOM     23  C   UNL     1      -3.046  11.779  18.809  0.00  0.00    +0.000 A 
BRANCH  18  25
ATOM     24  C   UNL     1      -5.634  12.055  17.318  0.00  0.00    +0.000 C 
ATOM     25  O   UNL     1      -5.050  10.834  17.759  0.00  0.00    +0.000 OA
ENDBRANCH  18  25
ENDBRANCH  17  21
ENDBRANCH   1  17
TORSDOF 5
ENDMDL
MODEL 4
REMARK VINA RESULT:      -7.7      3.696      6.718
REMARK  Name = 
REMARK  6 active torsions:
REMARK  status: ('A' for Active; 'I' for Inactive)
REMARK    1  A    between atoms: C_1  and  O_2
REMARK    2  A    between atoms: O_2  and  C_3
REMARK    3  A    between atoms: C_6  and  O_7
REMARK    4  A    between atoms: O_7  and  C_8
REMARK    5  A    between atoms: C_10  and  C_11
REMARK    6  A    between atoms: N_12  and  O_13
REMARK                            x       y       z     vdW  Elec       q    Type
REMARK                         _______ _______ _______ _____ _____    ______ ____
ROOT
ATOM      1  C   UNL     1       4.288   6.570  17.328  0.00  0.00    +0.000 A 
ATOM      2  C   UNL     1       3.703   5.339  17.574  0.00  0.00    +0.000 A 
ATOM      3  C   UNL     1       4.547   4.302  17.973  0.00  0.00    +0.000 A 
ATOM      4  C   UNL     1       5.914   4.536  18.119  0.00  0.00    +0.000 A 
ATOM      5  C   UNL     1       6.402   5.786  17.808  0.00  0.00    +0.000 A 
ATOM      6  N   UNL     1       5.622   6.799  17.395  0.00  0.00    +0.000 NA
ENDROOT
BRANCH   3   7
ATOM      7  C   UNL     1       4.002   2.944  18.300  0.00  0.00    +0.000 C 
ATOM      8  N   UNL     1       4.527   1.943  17.656  0.00  0.00    +0.000 NA
ATOM      9  N   UNL     1       2.963   2.909  19.223  0.00  0.00    +0.000 N 
ATOM     10  C   UNL     1       1.724   2.189  18.954  0.00  0.00    +0.000 C 
ATOM     11  C   UNL     1       0.583   2.874  19.671  0.00  0.00    +0.000 C 
ATOM     12  C   UNL     1       0.736   3.813  20.620  0.00  0.00    +0.000 C 
ATOM     13  C   UNL     1       2.103   4.240  21.085  0.00  0.00    +0.000 C 
ATOM     14  C   UNL     1       3.189   3.260  20.625  0.00  0.00    +0.000 C 
BRANCH   8  15
ATOM     15  O   UNL     1       3.973   0.715  18.032  0.00  0.00    +0.000 OA
ATOM     16  H   UNL     1       4.764   0.149  18.099  0.00  0.00    +0.000 HD
ENDBRANCH   8  15
ENDBRANCH   3   7
BRANCH   1  17
ATOM     17  O   UNL     1       3.435   7.615  16.984  0.00  0.00    +0.000 OA
BRANCH  17  21
ATOM     18  C   UNL     1       1.027   9.052  20.086  0.00  0.00    +0.000 A 
ATOM     19  C   UNL     1       1.752   7.865  20.213  0.00  0.00    +0.000 A 
ATOM     20  C   UNL     1       2.554   7.405  19.164  0.00  0.00    +0.000 A 
ATOM     21  C   UNL     1       2.612   8.118  17.967  0.00  0.00    +0.000 A 
ATOM     22  C   UNL     1       1.904   9.319  17.849  0.00  0.00    +0.000 A 
ATOM     23  C   UNL     1       1.097   9.773  18.895  0.00  0.00    +0.000 A 
BRANCH  18  25
ATOM     24  C   UNL     1       0.892   9.250  22.437  0.00  0.00    +0.000 C 
ATOM     25  O   UNL     1       0.262   9.394  21.168  0.00  0.00    +0.000 OA
ENDBRANCH  18  25
ENDBRANCH  17  21
ENDBRANCH   1  17
TORSDOF 5
ENDMDL
MODEL 5
REMARK VINA RESULT:      -7.7      4.770      8.764
REMARK  Name = 
REMARK  6 active torsions:
REMARK  status: ('A' for Active; 'I' for Inactive)
REMARK    1  A    between atoms: C_1  and  O_2
REMARK    2  A    between atoms: O_2  and  C_3
REMARK    3  A    between atoms: C_6  and  O_7
REMARK    4  A    between atoms: O_7  and  C_8
REMARK    5  A    between atoms: C_10  and  C_11
REMARK    6  A    between atoms: N_12  and  O_13
REMARK                            x       y       z     vdW  Elec       q    Type
REMARK                         _______ _______ _______ _____ _____    ______ ____
ROOT
ATOM      1  C   UNL     1       0.836   9.772  19.112  0.00  0.00    +0.000 A 
ATOM      2  C   UNL     1       1.577   8.830  18.420  0.00  0.00    +0.000 A 
ATOM      3  C   UNL     1       2.098   7.764  19.154  0.00  0.00    +0.000 A 
ATOM      4  C   UNL     1       1.851   7.679  20.525  0.00  0.00    +0.000 A 
ATOM      5  C   UNL     1       1.138   8.692  21.127  0.00  0.00    +0.000 A 
ATOM      6  N   UNL     1       0.645   9.745  20.454  0.00  0.00    +0.000 NA
ENDROOT
BRANCH   3   7
ATOM      7  C   UNL     1       2.880   6.673  18.486  0.00  0.00    +0.000 C 
ATOM      8  N   UNL     1       3.770   7.053  17.616  0.00  0.00    +0.000 NA
ATOM      9  N   UNL     1       2.536   5.373  18.835  0.00  0.00    +0.000 N 
ATOM     10  C   UNL     1       2.259   4.356  17.828  0.00  0.00    +0.000 C 
ATOM     11  C   UNL     1       1.256   3.368  18.378  0.00  0.00    +0.000 C 
ATOM     12  C   UNL     1       0.904   3.283  19.672  0.00  0.00    +0.000 C 
ATOM     13  C   UNL     1       1.532   4.171  20.714  0.00  0.00    +0.000 C 
ATOM     14  C   UNL     1       2.794   4.862  20.182  0.00  0.00    +0.000 C 
BRANCH   8  15
ATOM     15  O   UNL     1       4.462   5.976  17.054  0.00  0.00    +0.000 OA
ATOM     16  H   UNL     1       4.161   6.005  16.127  0.00  0.00    +0.000 HD
ENDBRANCH   8  15
ENDBRANCH   3   7
BRANCH   1  17
ATOM     17  O   UNL     1       0.273  10.803  18.366  0.00  0.00    +0.000 OA
BRANCH  17  21
ATOM     18  C   UNL     1      -3.866  10.858  17.770  0.00  0.00    +0.000 A 
ATOM     19  C   UNL     1      -3.241  11.747  18.649  0.00  0.00    +0.000 A 
ATOM     20  C   UNL     1      -1.855  11.712  18.830  0.00  0.00    +0.000 A 
ATOM     21  C   UNL     1      -1.087  10.767  18.152  0.00  0.00    +0.000 A 
ATOM     22  C   UNL     1      -1.709   9.894  17.254  0.00  0.00    +0.000 A 
ATOM     23  C   UNL     1      -3.095   9.923  17.080  0.00  0.00    +0.000 A 
BRANCH  18  25
ATOM     24  C   UNL     1      -5.798  12.063  18.399  0.00  0.00    +0.000 C 
ATOM     25  O   UNL     1      -5.227  10.970  17.688  0.00  0.00    +0.000 OA
ENDBRANCH  18  25
ENDBRANCH  17  21
ENDBRANCH   1  17
TORSDOF 5
ENDMDL
MODEL 6
REMARK VINA RESULT:      -7.4      4.187      8.469
REMARK  Name = 
REMARK  6 active torsions:
REMARK  status: ('A' for Active; 'I' for Inactive)
REMARK    1  A    between atoms: C_1  and  O_2
REMARK    2  A    between atoms: O_2  and  C_3
REMARK    3  A    between atoms: C_6  and  O_7
REMARK    4  A    between atoms: O_7  and  C_8
REMARK    5  A    between atoms: C_10  and  C_11
REMARK    6  A    between atoms: N_12  and  O_13
REMARK                            x       y       z     vdW  Elec       q    Type
REMARK                         _______ _______ _______ _____ _____    ______ ____
ROOT
ATOM      1  C   UNL     1       1.766   8.722  18.884  0.00  0.00    +0.000 A 
ATOM      2  C   UNL     1       2.318   7.724  18.099  0.00  0.00    +0.000 A 
ATOM      3  C   UNL     1       2.532   6.485  18.703  0.00  0.00    +0.000 A 
ATOM      4  C   UNL     1       2.181   6.293  20.039  0.00  0.00    +0.000 A 
ATOM      5  C   UNL     1       1.678   7.363  20.745  0.00  0.00    +0.000 A 
ATOM      6  N   UNL     1       1.484   8.577  20.202  0.00  0.00    +0.000 NA
ENDROOT
BRANCH   3   7
ATOM      7  C   UNL     1       3.090   5.331  17.923  0.00  0.00    +0.000 C 
ATOM      8  N   UNL     1       2.264   4.358  17.667  0.00  0.00    +0.000 NA
ATOM      9  N   UNL     1       4.439   5.408  17.599  0.00  0.00    +0.000 N 
ATOM     10  C   UNL     1       5.356   4.308  17.873  0.00  0.00    +0.000 C 
ATOM     11  C   UNL     1       6.738   4.864  18.134  0.00  0.00    +0.000 C 
ATOM     12  C   UNL     1       7.110   6.129  17.873  0.00  0.00    +0.000 C 
ATOM     13  C   UNL     1       6.158   7.111  17.244  0.00  0.00    +0.000 C 
ATOM     14  C   UNL     1       4.930   6.409  16.651  0.00  0.00    +0.000 C 
BRANCH   8  15
ATOM     15  O   UNL     1       2.860   3.334  16.925  0.00  0.00    +0.000 OA
ATOM     16  H   UNL     1       2.590   2.540  17.423  0.00  0.00    +0.000 HD
ENDBRANCH   8  15
ENDBRANCH   3   7
BRANCH   1  17
ATOM     17  O   UNL     1       1.503   9.940  18.263  0.00  0.00    +0.000 OA
BRANCH  17  21
ATOM     18  C   UNL     1      -2.413  11.368  18.595  0.00  0.00    +0.000 A 
ATOM     19  C   UNL     1      -2.100  10.274  17.785  0.00  0.00    +0.000 A 
ATOM     20  C   UNL     1      -0.783   9.811  17.692  0.00  0.00    +0.000 A 
ATOM     21  C   UNL     1       0.234  10.460  18.389  0.00  0.00    +0.000 A 
ATOM     22  C   UNL     1      -0.084  11.541  19.219  0.00  0.00    +0.000 A 
ATOM     23  C   UNL     1      -1.398  12.007  19.305  0.00  0.00    +0.000 A 
BRANCH  18  25
ATOM     24  C   UNL     1      -4.454  11.440  17.407  0.00  0.00    +0.000 C 
ATOM     25  O   UNL     1      -3.729  11.744  18.593  0.00  0.00    +0.000 OA
ENDBRANCH  18  25
ENDBRANCH  17  21
ENDBRANCH   1  17
TORSDOF 5
ENDMDL
MODEL 7
REMARK VINA RESULT:      -7.4      3.716      7.539
REMARK  Name = 
REMARK  6 active torsions:
REMARK  status: ('A' for Active; 'I' for Inactive)
REMARK    1  A    between atoms: C_1  and  O_2
REMARK    2  A    between atoms: O_2  and  C_3
REMARK    3  A    between atoms: C_6  and  O_7
REMARK    4  A    between atoms: O_7  and  C_8
REMARK    5  A    between atoms: C_10  and  C_11
REMARK    6  A    between atoms: N_12  and  O_13
REMARK                            x       y       z     vdW  Elec       q    Type
REMARK                         _______ _______ _______ _____ _____    ______ ____
ROOT
ATOM      1  C   UNL     1       3.108   7.293  17.620  0.00  0.00    +0.000 A 
ATOM      2  C   UNL     1       2.862   5.941  17.784  0.00  0.00    +0.000 A 
ATOM      3  C   UNL     1       3.966   5.088  17.775  0.00  0.00    +0.000 A 
ATOM      4  C   UNL     1       5.248   5.613  17.617  0.00  0.00    +0.000 A 
ATOM      5  C   UNL     1       5.381   6.969  17.418  0.00  0.00    +0.000 A 
ATOM      6  N   UNL     1       4.338   7.816  17.395  0.00  0.00    +0.000 NA
ENDROOT
BRANCH   3   7
ATOM      7  C   UNL     1       3.804   3.611  17.984  0.00  0.00    +0.000 C 
ATOM      8  N   UNL     1       4.474   2.839  17.178  0.00  0.00    +0.000 NA
ATOM      9  N   UNL     1       2.920   3.230  18.986  0.00  0.00    +0.000 N 
ATOM     10  C   UNL     1       1.867   2.250  18.747  0.00  0.00    +0.000 C 
ATOM     11  C   UNL     1       0.688   2.557  19.643  0.00  0.00    +0.000 C 
ATOM     12  C   UNL     1       0.723   3.410  20.680  0.00  0.00    +0.000 C 
ATOM     13  C   UNL     1       1.993   4.121  21.066  0.00  0.00    +0.000 C 
ATOM     14  C   UNL     1       3.220   3.492  20.394  0.00  0.00    +0.000 C 
BRANCH   8  15
ATOM     15  O   UNL     1       4.278   1.482  17.452  0.00  0.00    +0.000 OA
ATOM     16  H   UNL     1       3.484   1.503  18.018  0.00  0.00    +0.000 HD
ENDBRANCH   8  15
ENDBRANCH   3   7
BRANCH   1  17
ATOM     17  O   UNL     1       2.009   8.146  17.685  0.00  0.00    +0.000 OA
BRANCH  17  21
ATOM     18  C   UNL     1       0.883   9.822  21.347  0.00  0.00    +0.000 A 
ATOM     19  C   UNL     1       0.767  10.534  20.150  0.00  0.00    +0.000 A 
ATOM     20  C   UNL     1       1.147   9.952  18.937  0.00  0.00    +0.000 A 
ATOM     21  C   UNL     1       1.672   8.660  18.917  0.00  0.00    +0.000 A 
ATOM     22  C   UNL     1       1.766   7.940  20.113  0.00  0.00    +0.000 A 
ATOM     23  C   UNL     1       1.394   8.525  21.325  0.00  0.00    +0.000 A 
BRANCH  18  25
ATOM     24  C   UNL     1      -0.621   9.958  23.164  0.00  0.00    +0.000 C 
ATOM     25  O   UNL     1       0.500  10.499  22.473  0.00  0.00    +0.000 OA
ENDBRANCH  18  25
ENDBRANCH  17  21
ENDBRANCH   1  17
TORSDOF 5
ENDMDL
MODEL 8
REMARK VINA RESULT:      -7.4      4.263      8.545
REMARK  Name = 
REMARK  6 active torsions:
REMARK  status: ('A' for Active; 'I' for Inactive)
REMARK    1  A    between atoms: C_1  and  O_2
REMARK    2  A    between atoms: O_2  and  C_3
REMARK    3  A    between atoms: C_6  and  O_7
REMARK    4  A    between atoms: O_7  and  C_8
REMARK    5  A    between atoms: C_10  and  C_11
REMARK    6  A    between atoms: N_12  and  O_13
REMARK                            x       y       z     vdW  Elec       q    Type
REMARK                         _______ _______ _______ _____ _____    ______ ____
ROOT
ATOM      1  C   UNL     1       1.640   8.788  18.811  0.00  0.00    +0.000 A 
ATOM      2  C   UNL     1       2.184   7.777  18.038  0.00  0.00    +0.000 A 
ATOM      3  C   UNL     1       2.491   6.578  18.683  0.00  0.00    +0.000 A 
ATOM      4  C   UNL     1       2.236   6.438  20.047  0.00  0.00    +0.000 A 
ATOM      5  C   UNL     1       1.733   7.520  20.735  0.00  0.00    +0.000 A 
ATOM      6  N   UNL     1       1.451   8.697  20.150  0.00  0.00    +0.000 NA
ENDROOT
BRANCH   3   7
ATOM      7  C   UNL     1       3.047   5.411  17.922  0.00  0.00    +0.000 C 
ATOM      8  N   UNL     1       2.216   4.444  17.665  0.00  0.00    +0.000 NA
ATOM      9  N   UNL     1       4.401   5.472  17.615  0.00  0.00    +0.000 N 
ATOM     10  C   UNL     1       5.304   4.366  17.912  0.00  0.00    +0.000 C 
ATOM     11  C   UNL     1       6.688   4.911  18.184  0.00  0.00    +0.000 C 
ATOM     12  C   UNL     1       7.075   6.169  17.916  0.00  0.00    +0.000 C 
ATOM     13  C   UNL     1       6.141   7.154  17.265  0.00  0.00    +0.000 C 
ATOM     14  C   UNL     1       4.914   6.458  16.663  0.00  0.00    +0.000 C 
BRANCH   8  15
ATOM     15  O   UNL     1       2.811   3.406  16.941  0.00  0.00    +0.000 OA
ATOM     16  H   UNL     1       2.753   3.739  16.026  0.00  0.00    +0.000 HD
ENDBRANCH   8  15
ENDBRANCH   3   7
BRANCH   1  17
ATOM     17  O   UNL     1       1.284   9.962  18.153  0.00  0.00    +0.000 OA
BRANCH  17  21
ATOM     18  C   UNL     1      -2.657  11.333  18.420  0.00  0.00    +0.000 A 
ATOM     19  C   UNL     1      -1.612  11.977  19.087  0.00  0.00    +0.000 A 
ATOM     20  C   UNL     1      -0.301  11.502  18.981  0.00  0.00    +0.000 A 
ATOM     21  C   UNL     1      -0.032  10.362  18.227  0.00  0.00    +0.000 A 
ATOM     22  C   UNL     1      -1.075   9.731  17.540  0.00  0.00    +0.000 A 
ATOM     23  C   UNL     1      -2.385  10.201  17.653  0.00  0.00    +0.000 A 
BRANCH  18  25
ATOM     24  C   UNL     1      -4.977  11.175  17.997  0.00  0.00    +0.000 C 
ATOM     25  O   UNL     1      -3.900  11.873  18.613  0.00  0.00    +0.000 OA
ENDBRANCH  18  25
ENDBRANCH  17  21
ENDBRANCH   1  17
TORSDOF 5
ENDMDL
MODEL 9
REMARK VINA RESULT:      -7.3      4.093      7.378
REMARK  Name = 
REMARK  6 active torsions:
REMARK  status: ('A' for Active; 'I' for Inactive)
REMARK    1  A    between atoms: C_1  and  O_2
REMARK    2  A    between atoms: O_2  and  C_3
REMARK    3  A    between atoms: C_6  and  O_7
REMARK    4  A    between atoms: O_7  and  C_8
REMARK    5  A    between atoms: C_10  and  C_11
REMARK    6  A    between atoms: N_12  and  O_13
REMARK                            x       y       z     vdW  Elec       q    Type
REMARK                         _______ _______ _______ _____ _____    ______ ____
ROOT
ATOM      1  C   UNL     1       3.371   7.114  17.766  0.00  0.00    +0.000 A 
ATOM      2  C   UNL     1       3.218   5.863  18.339  0.00  0.00    +0.000 A 
ATOM      3  C   UNL     1       4.376   5.120  18.565  0.00  0.00    +0.000 A 
ATOM      4  C   UNL     1       5.620   5.653  18.227  0.00  0.00    +0.000 A 
ATOM      5  C   UNL     1       5.661   6.889  17.622  0.00  0.00    +0.000 A 
ATOM      6  N   UNL     1       4.563   7.620  17.365  0.00  0.00    +0.000 NA
ENDROOT
BRANCH   3   7
ATOM      7  C   UNL     1       4.315   3.770  19.217  0.00  0.00    +0.000 C 
ATOM      8  N   UNL     1       5.425   3.092  19.241  0.00  0.00    +0.000 NA
ATOM      9  N   UNL     1       3.067   3.374  19.684  0.00  0.00    +0.000 N 
ATOM     10  C   UNL     1       2.499   2.075  19.343  0.00  0.00    +0.000 C 
ATOM     11  C   UNL     1       0.991   2.183  19.309  0.00  0.00    +0.000 C 
ATOM     12  C   UNL     1       0.293   3.224  19.791  0.00  0.00    +0.000 C 
ATOM     13  C   UNL     1       0.980   4.386  20.459  0.00  0.00    +0.000 C 
ATOM     14  C   UNL     1       2.435   4.054  20.815  0.00  0.00    +0.000 C 
BRANCH   8  15
ATOM     15  O   UNL     1       5.282   1.856  19.879  0.00  0.00    +0.000 OA
ATOM     16  H   UNL     1       5.743   2.011  20.724  0.00  0.00    +0.000 HD
ENDBRANCH   8  15
ENDBRANCH   3   7
BRANCH   1  17
ATOM     17  O   UNL     1       2.218   7.874  17.593  0.00  0.00    +0.000 OA
BRANCH  17  21
ATOM     18  C   UNL     1       0.897   9.926  20.989  0.00  0.00    +0.000 A 
ATOM     19  C   UNL     1       1.399   8.624  21.070  0.00  0.00    +0.000 A 
ATOM     20  C   UNL     1       1.838   7.958  19.921  0.00  0.00    +0.000 A 
ATOM     21  C   UNL     1       1.752   8.583  18.678  0.00  0.00    +0.000 A 
ATOM     22  C   UNL     1       1.271   9.895  18.601  0.00  0.00    +0.000 A 
ATOM     23  C   UNL     1       0.825  10.556  19.748  0.00  0.00    +0.000 A 
BRANCH  18  25
ATOM     24  C   UNL     1      -0.042   9.547  23.124  0.00  0.00    +0.000 C 
ATOM     25  O   UNL     1       0.479  10.469  22.173  0.00  0.00    +0.000 OA
ENDBRANCH  18  25
ENDBRANCH  17  21
ENDBRANCH   1  17
TORSDOF 5
ENDMDL
