MODEL 1
REMARK VINA RESULT:      -7.6      0.000      0.000
REMARK  Name = 
REMARK  6 active torsions:
REMARK  status: ('A' for Active; 'I' for Inactive)
REMARK    1  A    between atoms: C_1  and  C_2
REMARK    2  A    between atoms: C_2  and  C_3
REMARK    3  A    between atoms: C_2  and  N_14
REMARK    4  A    between atoms: N_5  and  C_6
REMARK    5  A    between atoms: C_6  and  C_7
REMARK    6  A    between atoms: C_16  and  N_17
REMARK                            x       y       z     vdW  Elec       q    Type
REMARK                         _______ _______ _______ _____ _____    ______ ____
ROOT
ATOM      1  C   UNL     1       5.190   5.309  17.665  0.00  0.00    +0.000 C 
ATOM      2  O   UNL     1       4.482   5.898  16.849  0.00  0.00    +0.000 OA
ATOM      3  N   UNL     1       4.859   5.239  19.009  0.00  0.00    +0.000 N 
ATOM      4  H   UNL     1       5.325   4.530  19.571  0.00  0.00    +0.000 HD
ENDROOT
BRANCH   1   6
ATOM      5  C   UNL     1       7.705   5.408  17.892  0.00  0.00    +0.000 C 
ATOM      6  C   UNL     1       6.517   4.666  17.272  0.00  0.00    +0.000 C 
BRANCH   6   7
ATOM      7  N   UNL     1       6.627   4.552  15.820  0.00  0.00    +0.000 N 
ATOM      8  C   UNL     1       6.008   3.660  14.988  0.00  0.00    +0.000 A 
ATOM      9  C   UNL     1       6.372   4.015  13.707  0.00  0.00    +0.000 A 
ATOM     10  C   UNL     1       7.238   5.109  13.865  0.00  0.00    +0.000 A 
ATOM     11  N   UNL     1       7.416   5.430  15.153  0.00  0.00    +0.000 NA
BRANCH   9  12
ATOM     12  N   UNL     1       5.947   3.403  12.487  0.00  0.00    +0.000 N 
ATOM     13  O   UNL     1       6.811   2.828  11.814  0.00  0.00    +0.000 OA
ATOM     14  O   UNL     1       4.745   3.491  12.206  0.00  0.00    +0.000 OA
ENDBRANCH   9  12
ENDBRANCH   6   7
ENDBRANCH   1   6
BRANCH   3  15
ATOM     15  C   UNL     1       3.566   5.713  19.457  0.00  0.00    +0.000 C 
BRANCH  15  16
ATOM     16  C   UNL     1       2.643   4.621  19.933  0.00  0.00    +0.000 A 
ATOM     17  C   UNL     1       2.741   4.191  21.271  0.00  0.00    +0.000 A 
ATOM     18  C   UNL     1       1.851   3.248  21.796  0.00  0.00    +0.000 A 
ATOM     19  C   UNL     1       0.853   2.712  20.989  0.00  0.00    +0.000 A 
ATOM     20  C   UNL     1       0.753   3.109  19.656  0.00  0.00    +0.000 A 
ATOM     21  C   UNL     1       1.638   4.057  19.131  0.00  0.00    +0.000 A 
ATOM     22 CL   UNL     1       1.436   4.517  17.477  0.00  0.00    +0.000 Cl
ENDBRANCH  15  16
ENDBRANCH   3  15
TORSDOF 5
ENDMDL
MODEL 2
REMARK VINA RESULT:      -7.5      1.917      2.284
REMARK  Name = 
REMARK  6 active torsions:
REMARK  status: ('A' for Active; 'I' for Inactive)
REMARK    1  A    between atoms: C_1  and  C_2
REMARK    2  A    between atoms: C_2  and  C_3
REMARK    3  A    between atoms: C_2  and  N_14
REMARK    4  A    between atoms: N_5  and  C_6
REMARK    5  A    between atoms: C_6  and  C_7
REMARK    6  A    between atoms: C_16  and  N_17
REMARK                            x       y       z     vdW  Elec       q    Type
REMARK                         _______ _______ _______ _____ _____    ______ ____
ROOT
ATOM      1  C   UNL     1       6.707   5.563  18.948  0.00  0.00    +0.000 C 
ATOM      2  O   UNL     1       7.201   5.382  20.061  0.00  0.00    +0.000 OA
ATOM      3  N   UNL     1       5.387   5.248  18.670  0.00  0.00    +0.000 N 
ATOM      4  H   UNL     1       4.971   5.659  17.837  0.00  0.00    +0.000 HD
ENDROOT
BRANCH   1   6
ATOM      5  C   UNL     1       7.862   7.574  17.943  0.00  0.00    +0.000 C 
ATOM      6  C   UNL     1       7.527   6.089  17.773  0.00  0.00    +0.000 C 
BRANCH   6   7
ATOM      7  N   UNL     1       6.854   5.810  16.507  0.00  0.00    +0.000 N 
ATOM      8  C   UNL     1       7.120   4.819  15.602  0.00  0.00    +0.000 A 
ATOM      9  C   UNL     1       6.158   4.929  14.620  0.00  0.00    +0.000 A 
ATOM     10  C   UNL     1       5.378   6.034  14.998  0.00  0.00    +0.000 A 
ATOM     11  N   UNL     1       5.809   6.591  16.137  0.00  0.00    +0.000 NA
BRANCH   9  12
ATOM     12  N   UNL     1       5.995   4.090  13.475  0.00  0.00    +0.000 N 
ATOM     13  O   UNL     1       4.862   3.641  13.261  0.00  0.00    +0.000 OA
ATOM     14  O   UNL     1       7.001   3.885  12.783  0.00  0.00    +0.000 OA
ENDBRANCH   9  12
ENDBRANCH   6   7
ENDBRANCH   1   6
BRANCH   3  15
ATOM     15  C   UNL     1       4.500   4.857  19.746  0.00  0.00    +0.000 C 
BRANCH  15  16
ATOM     16  C   UNL     1       3.328   4.019  19.302  0.00  0.00    +0.000 A 
ATOM     17  C   UNL     1       3.566   2.930  18.441  0.00  0.00    +0.000 A 
ATOM     18  C   UNL     1       2.534   2.061  18.070  0.00  0.00    +0.000 A 
ATOM     19  C   UNL     1       1.245   2.272  18.545  0.00  0.00    +0.000 A 
ATOM     20  C   UNL     1       0.984   3.358  19.382  0.00  0.00    +0.000 A 
ATOM     21  C   UNL     1       2.017   4.225  19.759  0.00  0.00    +0.000 A 
ATOM     22 CL   UNL     1       1.622   5.532  20.817  0.00  0.00    +0.000 Cl
ENDBRANCH  15  16
ENDBRANCH   3  15
TORSDOF 5
ENDMDL
MODEL 3
REMARK VINA RESULT:      -7.5      2.977      4.566
REMARK  Name = 
REMARK  6 active torsions:
REMARK  status: ('A' for Active; 'I' for Inactive)
REMARK    1  A    between atoms: C_1  and  C_2
REMARK    2  A    between atoms: C_2  and  C_3
REMARK    3  A    between atoms: C_2  and  N_14
REMARK    4  A    between atoms: N_5  and  C_6
REMARK    5  A    between atoms: C_6  and  C_7
REMARK    6  A    between atoms: C_16  and  N_17
REMARK                            x       y       z     vdW  Elec       q    Type
REMARK                         _______ _______ _______ _____ _____    ______ ____
ROOT
ATOM      1  C   UNL     1       2.738   3.951  19.686  0.00  0.00    +0.000 C 
ATOM      2  O   UNL     1       1.560   3.602  19.769  0.00  0.00    +0.000 OA
ATOM      3  N   UNL     1       3.143   5.242  19.982  0.00  0.00    +0.000 N 
ATOM      4  H   UNL     1       4.135   5.396  20.153  0.00  0.00    +0.000 HD
ENDROOT
BRANCH   1   6
ATOM      5  C   UNL     1       4.423   2.183  20.336  0.00  0.00    +0.000 C 
ATOM      6  C   UNL     1       3.831   3.008  19.190  0.00  0.00    +0.000 C 
BRANCH   6   7
ATOM      7  N   UNL     1       4.851   3.745  18.447  0.00  0.00    +0.000 N 
ATOM      8  C   UNL     1       4.912   3.992  17.103  0.00  0.00    +0.000 A 
ATOM      9  C   UNL     1       6.017   4.794  16.911  0.00  0.00    +0.000 A 
ATOM     10  C   UNL     1       6.581   4.947  18.189  0.00  0.00    +0.000 A 
ATOM     11  N   UNL     1       5.887   4.293  19.129  0.00  0.00    +0.000 NA
BRANCH   9  12
ATOM     12  N   UNL     1       6.478   5.349  15.677  0.00  0.00    +0.000 N 
ATOM     13  O   UNL     1       5.767   6.212  15.148  0.00  0.00    +0.000 OA
ATOM     14  O   UNL     1       7.555   4.925  15.241  0.00  0.00    +0.000 OA
ENDBRANCH   9  12
ENDBRANCH   6   7
ENDBRANCH   1   6
BRANCH   3  15
ATOM     15  C   UNL     1       2.204   6.173  20.573  0.00  0.00    +0.000 C 
BRANCH  15  16
ATOM     16  C   UNL     1       2.021   7.445  19.785  0.00  0.00    +0.000 A 
ATOM     17  C   UNL     1       2.511   7.497  18.466  0.00  0.00    +0.000 A 
ATOM     18  C   UNL     1       2.289   8.615  17.655  0.00  0.00    +0.000 A 
ATOM     19  C   UNL     1       1.582   9.704  18.152  0.00  0.00    +0.000 A 
ATOM     20  C   UNL     1       1.107   9.680  19.464  0.00  0.00    +0.000 A 
ATOM     21  C   UNL     1       1.322   8.560  20.275  0.00  0.00    +0.000 A 
ATOM     22 CL   UNL     1       0.683   8.594  21.880  0.00  0.00    +0.000 Cl
ENDBRANCH  15  16
ENDBRANCH   3  15
TORSDOF 5
ENDMDL
MODEL 4
REMARK VINA RESULT:      -7.4      1.696      2.048
REMARK  Name = 
REMARK  6 active torsions:
REMARK  status: ('A' for Active; 'I' for Inactive)
REMARK    1  A    between atoms: C_1  and  C_2
REMARK    2  A    between atoms: C_2  and  C_3
REMARK    3  A    between atoms: C_2  and  N_14
REMARK    4  A    between atoms: N_5  and  C_6
REMARK    5  A    between atoms: C_6  and  C_7
REMARK    6  A    between atoms: C_16  and  N_17
REMARK                            x       y       z     vdW  Elec       q    Type
REMARK                         _______ _______ _______ _____ _____    ______ ____
ROOT
ATOM      1  C   UNL     1       4.653   4.438  17.191  0.00  0.00    +0.000 C 
ATOM      2  O   UNL     1       3.617   5.101  17.160  0.00  0.00    +0.000 OA
ATOM      3  N   UNL     1       4.663   3.110  17.584  0.00  0.00    +0.000 N 
ATOM      4  H   UNL     1       5.479   2.552  17.337  0.00  0.00    +0.000 HD
ENDROOT
BRANCH   1   6
ATOM      5  C   UNL     1       6.049   6.545  17.163  0.00  0.00    +0.000 C 
ATOM      6  C   UNL     1       6.015   5.044  16.860  0.00  0.00    +0.000 C 
BRANCH   6   7
ATOM      7  N   UNL     1       6.394   4.744  15.481  0.00  0.00    +0.000 N 
ATOM      8  C   UNL     1       5.806   3.868  14.610  0.00  0.00    +0.000 A 
ATOM      9  C   UNL     1       6.480   4.009  13.415  0.00  0.00    +0.000 A 
ATOM     10  C   UNL     1       7.478   4.964  13.670  0.00  0.00    +0.000 A 
ATOM     11  N   UNL     1       7.446   5.401  14.935  0.00  0.00    +0.000 NA
BRANCH   9  12
ATOM     12  N   UNL     1       6.208   3.331  12.186  0.00  0.00    +0.000 N 
ATOM     13  O   UNL     1       7.173   2.849  11.582  0.00  0.00    +0.000 OA
ATOM     14  O   UNL     1       5.024   3.277  11.828  0.00  0.00    +0.000 OA
ENDBRANCH   9  12
ENDBRANCH   6   7
ENDBRANCH   1   6
BRANCH   3  15
ATOM     15  C   UNL     1       3.411   2.414  17.800  0.00  0.00    +0.000 C 
BRANCH  15  16
ATOM     16  C   UNL     1       2.747   2.740  19.114  0.00  0.00    +0.000 A 
ATOM     17  C   UNL     1       1.453   3.295  19.096  0.00  0.00    +0.000 A 
ATOM     18  C   UNL     1       0.751   3.531  20.282  0.00  0.00    +0.000 A 
ATOM     19  C   UNL     1       1.333   3.226  21.507  0.00  0.00    +0.000 A 
ATOM     20  C   UNL     1       2.623   2.694  21.547  0.00  0.00    +0.000 A 
ATOM     21  C   UNL     1       3.325   2.451  20.361  0.00  0.00    +0.000 A 
ATOM     22 CL   UNL     1       4.908   1.769  20.489  0.00  0.00    +0.000 Cl
ENDBRANCH  15  16
ENDBRANCH   3  15
TORSDOF 5
ENDMDL
MODEL 5
REMARK VINA RESULT:      -7.4      0.855      1.093
REMARK  Name = 
REMARK  6 active torsions:
REMARK  status: ('A' for Active; 'I' for Inactive)
REMARK    1  A    between atoms: C_1  and  C_2
REMARK    2  A    between atoms: C_2  and  C_3
REMARK    3  A    between atoms: C_2  and  N_14
REMARK    4  A    between atoms: N_5  and  C_6
REMARK    5  A    between atoms: C_6  and  C_7
REMARK    6  A    between atoms: C_16  and  N_17
REMARK                            x       y       z     vdW  Elec       q    Type
REMARK                         _______ _______ _______ _____ _____    ______ ____
ROOT
ATOM      1  C   UNL     1       5.170   6.074  17.206  0.00  0.00    +0.000 C 
ATOM      2  O   UNL     1       4.495   6.761  16.441  0.00  0.00    +0.000 OA
ATOM      3  N   UNL     1       4.688   5.655  18.436  0.00  0.00    +0.000 N 
ATOM      4  H   UNL     1       5.174   4.886  18.894  0.00  0.00    +0.000 HD
ENDROOT
BRANCH   1   6
ATOM      5  C   UNL     1       7.576   6.844  17.146  0.00  0.00    +0.000 C 
ATOM      6  C   UNL     1       6.611   5.683  16.888  0.00  0.00    +0.000 C 
BRANCH   6   7
ATOM      7  N   UNL     1       6.717   5.160  15.528  0.00  0.00    +0.000 N 
ATOM      8  C   UNL     1       5.878   4.293  14.883  0.00  0.00    +0.000 A 
ATOM      9  C   UNL     1       6.364   4.176  13.598  0.00  0.00    +0.000 A 
ATOM     10  C   UNL     1       7.516   4.979  13.570  0.00  0.00    +0.000 A 
ATOM     11  N   UNL     1       7.751   5.566  14.751  0.00  0.00    +0.000 NA
BRANCH   9  12
ATOM     12  N   UNL     1       5.804   3.408  12.530  0.00  0.00    +0.000 N 
ATOM     13  O   UNL     1       4.589   3.525  12.328  0.00  0.00    +0.000 OA
ATOM     14  O   UNL     1       6.583   2.693  11.888  0.00  0.00    +0.000 OA
ENDBRANCH   9  12
ENDBRANCH   6   7
ENDBRANCH   1   6
BRANCH   3  15
ATOM     15  C   UNL     1       3.297   5.873  18.776  0.00  0.00    +0.000 C 
BRANCH  15  16
ATOM     16  C   UNL     1       2.614   4.667  19.369  0.00  0.00    +0.000 A 
ATOM     17  C   UNL     1       2.241   4.704  20.727  0.00  0.00    +0.000 A 
ATOM     18  C   UNL     1       1.523   3.655  21.309  0.00  0.00    +0.000 A 
ATOM     19  C   UNL     1       1.173   2.546  20.546  0.00  0.00    +0.000 A 
ATOM     20  C   UNL     1       1.551   2.481  19.205  0.00  0.00    +0.000 A 
ATOM     21  C   UNL     1       2.265   3.533  18.619  0.00  0.00    +0.000 A 
ATOM     22 CL   UNL     1       2.676   3.393  16.947  0.00  0.00    +0.000 Cl
ENDBRANCH  15  16
ENDBRANCH   3  15
TORSDOF 5
ENDMDL
MODEL 6
REMARK VINA RESULT:      -7.4      1.818      2.339
REMARK  Name = 
REMARK  6 active torsions:
REMARK  status: ('A' for Active; 'I' for Inactive)
REMARK    1  A    between atoms: C_1  and  C_2
REMARK    2  A    between atoms: C_2  and  C_3
REMARK    3  A    between atoms: C_2  and  N_14
REMARK    4  A    between atoms: N_5  and  C_6
REMARK    5  A    between atoms: C_6  and  C_7
REMARK    6  A    between atoms: C_16  and  N_17
REMARK                            x       y       z     vdW  Elec       q    Type
REMARK                         _______ _______ _______ _____ _____    ______ ____
ROOT
ATOM      1  C   UNL     1       5.775   4.841  19.011  0.00  0.00    +0.000 C 
ATOM      2  O   UNL     1       5.658   3.959  19.862  0.00  0.00    +0.000 OA
ATOM      3  N   UNL     1       4.755   5.738  18.737  0.00  0.00    +0.000 N 
ATOM      4  H   UNL     1       4.999   6.589  18.234  0.00  0.00    +0.000 HD
ENDROOT
BRANCH   1   6
ATOM      5  C   UNL     1       7.706   6.334  18.354  0.00  0.00    +0.000 C 
ATOM      6  C   UNL     1       7.028   4.976  18.150  0.00  0.00    +0.000 C 
BRANCH   6   7
ATOM      7  N   UNL     1       6.721   4.710  16.746  0.00  0.00    +0.000 N 
ATOM      8  C   UNL     1       7.399   5.128  15.634  0.00  0.00    +0.000 A 
ATOM      9  C   UNL     1       6.762   4.549  14.557  0.00  0.00    +0.000 A 
ATOM     10  C   UNL     1       5.692   3.828  15.113  0.00  0.00    +0.000 A 
ATOM     11  N   UNL     1       5.647   3.939  16.447  0.00  0.00    +0.000 NA
BRANCH   9  12
ATOM     12  N   UNL     1       7.125   4.657  13.179  0.00  0.00    +0.000 N 
ATOM     13  O   UNL     1       7.917   5.556  12.873  0.00  0.00    +0.000 OA
ATOM     14  O   UNL     1       6.621   3.836  12.402  0.00  0.00    +0.000 OA
ENDBRANCH   9  12
ENDBRANCH   6   7
ENDBRANCH   1   6
BRANCH   3  15
ATOM     15  C   UNL     1       3.578   5.767  19.580  0.00  0.00    +0.000 C 
BRANCH  15  16
ATOM     16  C   UNL     1       2.556   4.711  19.245  0.00  0.00    +0.000 A 
ATOM     17  C   UNL     1       2.160   4.557  17.903  0.00  0.00    +0.000 A 
ATOM     18  C   UNL     1       1.287   3.535  17.518  0.00  0.00    +0.000 A 
ATOM     19  C   UNL     1       0.787   2.654  18.470  0.00  0.00    +0.000 A 
ATOM     20  C   UNL     1       1.151   2.802  19.809  0.00  0.00    +0.000 A 
ATOM     21  C   UNL     1       2.029   3.821  20.195  0.00  0.00    +0.000 A 
ATOM     22 CL   UNL     1       2.453   3.927  21.867  0.00  0.00    +0.000 Cl
ENDBRANCH  15  16
ENDBRANCH   3  15
TORSDOF 5
ENDMDL
MODEL 7
REMARK VINA RESULT:      -7.4      3.349      5.048
REMARK  Name = 
REMARK  6 active torsions:
REMARK  status: ('A' for Active; 'I' for Inactive)
REMARK    1  A    between atoms: C_1  and  C_2
REMARK    2  A    between atoms: C_2  and  C_3
REMARK    3  A    between atoms: C_2  and  N_14
REMARK    4  A    between atoms: N_5  and  C_6
REMARK    5  A    between atoms: C_6  and  C_7
REMARK    6  A    between atoms: C_16  and  N_17
REMARK                            x       y       z     vdW  Elec       q    Type
REMARK                         _______ _______ _______ _____ _____    ______ ____
ROOT
ATOM      1  C   UNL     1       2.640   4.284  20.336  0.00  0.00    +0.000 C 
ATOM      2  O   UNL     1       2.239   3.995  21.463  0.00  0.00    +0.000 OA
ATOM      3  N   UNL     1       2.432   5.536  19.781  0.00  0.00    +0.000 N 
ATOM      4  H   UNL     1       3.005   5.797  18.981  0.00  0.00    +0.000 HD
ENDROOT
BRANCH   1   6
ATOM      5  C   UNL     1       4.088   2.214  20.263  0.00  0.00    +0.000 C 
ATOM      6  C   UNL     1       3.342   3.267  19.439  0.00  0.00    +0.000 C 
BRANCH   6   7
ATOM      7  N   UNL     1       4.210   3.940  18.475  0.00  0.00    +0.000 N 
ATOM      8  C   UNL     1       5.567   4.097  18.519  0.00  0.00    +0.000 A 
ATOM      9  C   UNL     1       5.918   4.725  17.343  0.00  0.00    +0.000 A 
ATOM     10  C   UNL     1       4.704   4.939  16.669  0.00  0.00    +0.000 A 
ATOM     11  N   UNL     1       3.654   4.482  17.364  0.00  0.00    +0.000 NA
BRANCH   9  12
ATOM     12  N   UNL     1       7.235   5.072  16.908  0.00  0.00    +0.000 N 
ATOM     13  O   UNL     1       7.366   6.145  16.307  0.00  0.00    +0.000 OA
ATOM     14  O   UNL     1       8.140   4.272  17.176  0.00  0.00    +0.000 OA
ENDBRANCH   9  12
ENDBRANCH   6   7
ENDBRANCH   1   6
BRANCH   3  15
ATOM     15  C   UNL     1       1.885   6.601  20.596  0.00  0.00    +0.000 C 
BRANCH  15  16
ATOM     16  C   UNL     1       1.733   7.914  19.869  0.00  0.00    +0.000 A 
ATOM     17  C   UNL     1       2.272   8.034  18.574  0.00  0.00    +0.000 A 
ATOM     18  C   UNL     1       2.082   9.194  17.815  0.00  0.00    +0.000 A 
ATOM     19  C   UNL     1       1.359  10.257  18.343  0.00  0.00    +0.000 A 
ATOM     20  C   UNL     1       0.834  10.165  19.632  0.00  0.00    +0.000 A 
ATOM     21  C   UNL     1       1.017   9.003  20.390  0.00  0.00    +0.000 A 
ATOM     22 CL   UNL     1       0.317   8.955  21.969  0.00  0.00    +0.000 Cl
ENDBRANCH  15  16
ENDBRANCH   3  15
TORSDOF 5
ENDMDL
MODEL 8
REMARK VINA RESULT:      -7.4      1.184      1.509
REMARK  Name = 
REMARK  6 active torsions:
REMARK  status: ('A' for Active; 'I' for Inactive)
REMARK    1  A    between atoms: C_1  and  C_2
REMARK    2  A    between atoms: C_2  and  C_3
REMARK    3  A    between atoms: C_2  and  N_14
REMARK    4  A    between atoms: N_5  and  C_6
REMARK    5  A    between atoms: C_6  and  C_7
REMARK    6  A    between atoms: C_16  and  N_17
REMARK                            x       y       z     vdW  Elec       q    Type
REMARK                         _______ _______ _______ _____ _____    ______ ____
ROOT
ATOM      1  C   UNL     1       5.003   5.359  17.070  0.00  0.00    +0.000 C 
ATOM      2  O   UNL     1       4.614   6.516  17.224  0.00  0.00    +0.000 OA
ATOM      3  N   UNL     1       4.150   4.274  17.196  0.00  0.00    +0.000 N 
ATOM      4  H   UNL     1       4.455   3.387  16.802  0.00  0.00    +0.000 HD
ENDROOT
BRANCH   1   6
ATOM      5  C   UNL     1       7.400   6.127  17.297  0.00  0.00    +0.000 C 
ATOM      6  C   UNL     1       6.466   5.025  16.790  0.00  0.00    +0.000 C 
BRANCH   6   7
ATOM      7  N   UNL     1       6.667   4.730  15.373  0.00  0.00    +0.000 N 
ATOM      8  C   UNL     1       6.048   3.783  14.605  0.00  0.00    +0.000 A 
ATOM      9  C   UNL     1       6.523   3.960  13.323  0.00  0.00    +0.000 A 
ATOM     10  C   UNL     1       7.448   5.012  13.419  0.00  0.00    +0.000 A 
ATOM     11  N   UNL     1       7.558   5.474  14.672  0.00  0.00    +0.000 NA
BRANCH   9  12
ATOM     12  N   UNL     1       6.143   3.231  12.153  0.00  0.00    +0.000 N 
ATOM     13  O   UNL     1       7.037   2.625  11.551  0.00  0.00    +0.000 OA
ATOM     14  O   UNL     1       4.945   3.261  11.841  0.00  0.00    +0.000 OA
ENDBRANCH   9  12
ENDBRANCH   6   7
ENDBRANCH   1   6
BRANCH   3  15
ATOM     15  C   UNL     1       2.725   4.493  17.341  0.00  0.00    +0.000 C 
BRANCH  15  16
ATOM     16  C   UNL     1       2.156   3.991  18.644  0.00  0.00    +0.000 A 
ATOM     17  C   UNL     1       1.768   2.641  18.734  0.00  0.00    +0.000 A 
ATOM     18  C   UNL     1       1.321   2.095  19.942  0.00  0.00    +0.000 A 
ATOM     19  C   UNL     1       1.245   2.893  21.078  0.00  0.00    +0.000 A 
ATOM     20  C   UNL     1       1.605   4.239  21.004  0.00  0.00    +0.000 A 
ATOM     21  C   UNL     1       2.059   4.785  19.798  0.00  0.00    +0.000 A 
ATOM     22 CL   UNL     1       2.511   6.453  19.790  0.00  0.00    +0.000 Cl
ENDBRANCH  15  16
ENDBRANCH   3  15
TORSDOF 5
ENDMDL
MODEL 9
REMARK VINA RESULT:      -7.3      1.396      1.679
REMARK  Name = 
REMARK  6 active torsions:
REMARK  status: ('A' for Active; 'I' for Inactive)
REMARK    1  A    between atoms: C_1  and  C_2
REMARK    2  A    between atoms: C_2  and  C_3
REMARK    3  A    between atoms: C_2  and  N_14
REMARK    4  A    between atoms: N_5  and  C_6
REMARK    5  A    between atoms: C_6  and  C_7
REMARK    6  A    between atoms: C_16  and  N_17
REMARK                            x       y       z     vdW  Elec       q    Type
REMARK                         _______ _______ _______ _____ _____    ______ ____
ROOT
ATOM      1  C   UNL     1       5.035   5.376  16.856  0.00  0.00    +0.000 C 
ATOM      2  O   UNL     1       4.480   6.473  16.818  0.00  0.00    +0.000 OA
ATOM      3  N   UNL     1       4.361   4.224  17.230  0.00  0.00    +0.000 N 
ATOM      4  H   UNL     1       4.785   3.331  16.988  0.00  0.00    +0.000 HD
ENDROOT
BRANCH   1   6
ATOM      5  C   UNL     1       7.316   6.460  16.935  0.00  0.00    +0.000 C 
ATOM      6  C   UNL     1       6.522   5.207  16.554  0.00  0.00    +0.000 C 
BRANCH   6   7
ATOM      7  N   UNL     1       6.726   4.819  15.161  0.00  0.00    +0.000 N 
ATOM      8  C   UNL     1       6.088   3.841  14.448  0.00  0.00    +0.000 A 
ATOM      9  C   UNL     1       6.577   3.924  13.162  0.00  0.00    +0.000 A 
ATOM     10  C   UNL     1       7.529   4.955  13.201  0.00  0.00    +0.000 A 
ATOM     11  N   UNL     1       7.642   5.493  14.422  0.00  0.00    +0.000 NA
BRANCH   9  12
ATOM     12  N   UNL     1       6.186   3.133  12.037  0.00  0.00    +0.000 N 
ATOM     13  O   UNL     1       4.994   3.169  11.709  0.00  0.00    +0.000 OA
ATOM     14  O   UNL     1       7.076   2.479  11.478  0.00  0.00    +0.000 OA
ENDBRANCH   9  12
ENDBRANCH   6   7
ENDBRANCH   1   6
BRANCH   3  15
ATOM     15  C   UNL     1       2.926   4.261  17.418  0.00  0.00    +0.000 C 
BRANCH  15  16
ATOM     16  C   UNL     1       2.478   3.875  18.806  0.00  0.00    +0.000 A 
ATOM     17  C   UNL     1       1.822   4.840  19.595  0.00  0.00    +0.000 A 
ATOM     18  C   UNL     1       1.302   4.514  20.852  0.00  0.00    +0.000 A 
ATOM     19  C   UNL     1       1.437   3.222  21.346  0.00  0.00    +0.000 A 
ATOM     20  C   UNL     1       2.102   2.257  20.588  0.00  0.00    +0.000 A 
ATOM     21  C   UNL     1       2.617   2.579  19.327  0.00  0.00    +0.000 A 
ATOM     22 CL   UNL     1       3.406   1.325  18.437  0.00  0.00    +0.000 Cl
ENDBRANCH  15  16
ENDBRANCH   3  15
TORSDOF 5
ENDMDL
