MODEL 1
REMARK VINA RESULT:      -7.1      0.000      0.000
REMARK  Name = 
REMARK  20 active torsions:
REMARK  status: ('A' for Active; 'I' for Inactive)
REMARK    1  A    between atoms: C_1  and  C_2
REMARK    2  A    between atoms: C_2  and  N_3
REMARK    3  A    between atoms: C_2  and  N_14
REMARK    4  A    between atoms: C_4  and  O_6
REMARK    5  A    between atoms: O_6  and  C_7
REMARK    6  A    between atoms: C_7  and  C_8
REMARK    7  A    between atoms: C_15  and  C_17
REMARK    8  A    between atoms: C_17  and  C_18
REMARK    9  A    between atoms: C_17  and  N_26
REMARK   10  A    between atoms: C_18  and  C_19
REMARK   11  A    between atoms: C_19  and  O_21
REMARK   12  A    between atoms: O_21  and  C_22
REMARK   13  A    between atoms: C_22  and  C_23
REMARK   14  A    between atoms: C_22  and  C_24
REMARK   15  A    between atoms: C_22  and  C_25
REMARK   16  A    between atoms: C_27  and  O_29
REMARK   17  A    between atoms: O_29  and  C_30
REMARK   18  A    between atoms: C_30  and  C_31
REMARK   19  A    between atoms: C_30  and  C_32
REMARK   20  A    between atoms: C_30  and  C_33
REMARK                            x       y       z     vdW  Elec       q    Type
REMARK                         _______ _______ _______ _____ _____    ______ ____
ROOT
ATOM      1  N   UNL     1       5.612   5.896  17.475  0.00  0.00    +0.000 N 
ATOM      2  C   UNL     1       4.595   6.713  17.042  0.00  0.00    +0.000 C 
ATOM      3  O   UNL     1       4.659   7.380  16.009  0.00  0.00    +0.000 OA
ATOM      4  H   UNL     1       5.459   5.345  18.315  0.00  0.00    +0.000 HD
ENDROOT
BRANCH   1   6
ATOM      5  C   UNL     1       6.774   5.095  15.443  0.00  0.00    +0.000 C 
ATOM      6  C   UNL     1       6.890   5.755  16.811  0.00  0.00    +0.000 C 
BRANCH   6   7
ATOM      7  N   UNL     1       7.563   7.026  16.720  0.00  0.00    +0.000 N 
ATOM      8  C   UNL     1       8.132   7.659  17.778  0.00  0.00    +0.000 C 
ATOM      9  O   UNL     1       8.184   7.216  18.918  0.00  0.00    +0.000 OA
ATOM     10  H   UNL     1       7.523   7.522  15.843  0.00  0.00    +0.000 HD
BRANCH   8  11
ATOM     11  O   UNL     1       8.584   8.878  17.391  0.00  0.00    +0.000 OA
BRANCH  11  12
ATOM     12  C   UNL     1       8.271   9.962  18.278  0.00  0.00    +0.000 C 
BRANCH  12  13
ATOM     13  C   UNL     1       9.490  10.714  18.754  0.00  0.00    +0.000 A 
ATOM     14  C   UNL     1      10.499  11.095  17.856  0.00  0.00    +0.000 A 
ATOM     15  C   UNL     1      11.587  11.858  18.289  0.00  0.00    +0.000 A 
ATOM     16  C   UNL     1      11.684  12.242  19.625  0.00  0.00    +0.000 A 
ATOM     17  C   UNL     1      10.698  11.858  20.530  0.00  0.00    +0.000 A 
ATOM     18  C   UNL     1       9.609  11.094  20.100  0.00  0.00    +0.000 A 
ENDBRANCH  12  13
ENDBRANCH  11  12
ENDBRANCH   8  11
ENDBRANCH   6   7
ENDBRANCH   1   6
BRANCH   2  19
ATOM     19  C   UNL     1       3.329   6.701  17.932  0.00  0.00    +0.000 C 
BRANCH  19  20
ATOM     20  N   UNL     1       3.017   8.059  18.379  0.00  0.00    +0.000 N 
ATOM     21  C   UNL     1       1.847   8.656  18.007  0.00  0.00    +0.000 C 
ATOM     22  O   UNL     1       1.008   8.099  17.310  0.00  0.00    +0.000 OA
ATOM     23  H   UNL     1       3.731   8.660  18.764  0.00  0.00    +0.000 HD
BRANCH  21  24
ATOM     24  O   UNL     1       1.770   9.914  18.504  0.00  0.00    +0.000 OA
BRANCH  24  25
ATOM     25  C   UNL     1       0.748  10.226  19.496  0.00  0.00    +0.000 C 
ATOM     26  C   UNL     1       0.794   9.241  20.673  0.00  0.00    +0.000 C 
ATOM     27  C   UNL     1       1.080  11.627  20.039  0.00  0.00    +0.000 C 
ATOM     28  C   UNL     1      -0.643  10.290  18.850  0.00  0.00    +0.000 C 
ENDBRANCH  24  25
ENDBRANCH  21  24
ENDBRANCH  19  20
BRANCH  19  29
ATOM     29  C   UNL     1       3.532   5.750  19.112  0.00  0.00    +0.000 C 
BRANCH  29  30
ATOM     30  C   UNL     1       2.173   5.341  19.619  0.00  0.00    +0.000 C 
ATOM     31  O   UNL     1       1.675   5.795  20.641  0.00  0.00    +0.000 OA
BRANCH  30  32
ATOM     32  O   UNL     1       1.610   4.398  18.817  0.00  0.00    +0.000 OA
BRANCH  32  33
ATOM     33  C   UNL     1       1.989   3.005  18.980  0.00  0.00    +0.000 C 
ATOM     34  C   UNL     1       2.543   2.741  20.388  0.00  0.00    +0.000 C 
ATOM     35  C   UNL     1       0.692   2.196  18.815  0.00  0.00    +0.000 C 
ATOM     36  C   UNL     1       2.966   2.565  17.881  0.00  0.00    +0.000 C 
ENDBRANCH  32  33
ENDBRANCH  30  32
ENDBRANCH  29  30
ENDBRANCH  19  29
ENDBRANCH   2  19
TORSDOF 13
ENDMDL
MODEL 2
REMARK VINA RESULT:      -7.0      0.878      1.369
REMARK  Name = 
REMARK  20 active torsions:
REMARK  status: ('A' for Active; 'I' for Inactive)
REMARK    1  A    between atoms: C_1  and  C_2
REMARK    2  A    between atoms: C_2  and  N_3
REMARK    3  A    between atoms: C_2  and  N_14
REMARK    4  A    between atoms: C_4  and  O_6
REMARK    5  A    between atoms: O_6  and  C_7
REMARK    6  A    between atoms: C_7  and  C_8
REMARK    7  A    between atoms: C_15  and  C_17
REMARK    8  A    between atoms: C_17  and  C_18
REMARK    9  A    between atoms: C_17  and  N_26
REMARK   10  A    between atoms: C_18  and  C_19
REMARK   11  A    between atoms: C_19  and  O_21
REMARK   12  A    between atoms: O_21  and  C_22
REMARK   13  A    between atoms: C_22  and  C_23
REMARK   14  A    between atoms: C_22  and  C_24
REMARK   15  A    between atoms: C_22  and  C_25
REMARK   16  A    between atoms: C_27  and  O_29
REMARK   17  A    between atoms: O_29  and  C_30
REMARK   18  A    between atoms: C_30  and  C_31
REMARK   19  A    between atoms: C_30  and  C_32
REMARK   20  A    between atoms: C_30  and  C_33
REMARK                            x       y       z     vdW  Elec       q    Type
REMARK                         _______ _______ _______ _____ _____    ______ ____
ROOT
ATOM      1  N   UNL     1       4.833   5.617  17.735  0.00  0.00    +0.000 N 
ATOM      2  C   UNL     1       4.002   6.697  17.556  0.00  0.00    +0.000 C 
ATOM      3  O   UNL     1       4.112   7.485  16.616  0.00  0.00    +0.000 OA
ATOM      4  H   UNL     1       4.643   4.990  18.512  0.00  0.00    +0.000 HD
ENDROOT
BRANCH   1   6
ATOM      5  C   UNL     1       5.541   4.671  15.562  0.00  0.00    +0.000 C 
ATOM      6  C   UNL     1       5.959   5.299  16.885  0.00  0.00    +0.000 C 
BRANCH   6   7
ATOM      7  N   UNL     1       6.783   6.461  16.671  0.00  0.00    +0.000 N 
ATOM      8  C   UNL     1       7.594   6.999  17.618  0.00  0.00    +0.000 C 
ATOM      9  O   UNL     1       7.760   6.546  18.744  0.00  0.00    +0.000 OA
ATOM     10  H   UNL     1       6.678   6.964  15.803  0.00  0.00    +0.000 HD
BRANCH   8  11
ATOM     11  O   UNL     1       8.149   8.144  17.147  0.00  0.00    +0.000 OA
BRANCH  11  12
ATOM     12  C   UNL     1       7.733   9.348  17.808  0.00  0.00    +0.000 C 
BRANCH  12  13
ATOM     13  C   UNL     1       8.882  10.139  18.386  0.00  0.00    +0.000 A 
ATOM     14  C   UNL     1       9.686  10.947  17.567  0.00  0.00    +0.000 A 
ATOM     15  C   UNL     1      10.698  11.736  18.120  0.00  0.00    +0.000 A 
ATOM     16  C   UNL     1      10.925  11.720  19.495  0.00  0.00    +0.000 A 
ATOM     17  C   UNL     1      10.145  10.910  20.317  0.00  0.00    +0.000 A 
ATOM     18  C   UNL     1       9.132  10.120  19.766  0.00  0.00    +0.000 A 
ENDBRANCH  12  13
ENDBRANCH  11  12
ENDBRANCH   8  11
ENDBRANCH   6   7
ENDBRANCH   1   6
BRANCH   2  19
ATOM     19  C   UNL     1       2.874   6.830  18.607  0.00  0.00    +0.000 C 
BRANCH  19  20
ATOM     20  N   UNL     1       2.644   8.240  18.922  0.00  0.00    +0.000 N 
ATOM     21  C   UNL     1       1.644   8.931  18.301  0.00  0.00    +0.000 C 
ATOM     22  O   UNL     1       0.892   8.420  17.481  0.00  0.00    +0.000 OA
ATOM     23  H   UNL     1       3.338   8.787  19.411  0.00  0.00    +0.000 HD
BRANCH  21  24
ATOM     24  O   UNL     1       1.622  10.221  18.715  0.00  0.00    +0.000 OA
BRANCH  24  25
ATOM     25  C   UNL     1       0.574  10.658  19.630  0.00  0.00    +0.000 C 
ATOM     26  C   UNL     1       1.011  11.894  20.430  0.00  0.00    +0.000 C 
ATOM     27  C   UNL     1      -0.628  11.060  18.758  0.00  0.00    +0.000 C 
ATOM     28  C   UNL     1       0.128   9.508  20.544  0.00  0.00    +0.000 C 
ENDBRANCH  24  25
ENDBRANCH  21  24
ENDBRANCH  19  20
BRANCH  19  29
ATOM     29  C   UNL     1       3.230   6.024  19.857  0.00  0.00    +0.000 C 
BRANCH  29  30
ATOM     30  C   UNL     1       2.251   4.883  19.970  0.00  0.00    +0.000 C 
ATOM     31  O   UNL     1       1.183   4.975  20.560  0.00  0.00    +0.000 OA
BRANCH  30  32
ATOM     32  O   UNL     1       2.727   3.762  19.366  0.00  0.00    +0.000 OA
BRANCH  32  33
ATOM     33  C   UNL     1       1.928   3.111  18.341  0.00  0.00    +0.000 C 
ATOM     34  C   UNL     1       1.392   4.129  17.324  0.00  0.00    +0.000 C 
ATOM     35  C   UNL     1       2.885   2.157  17.608  0.00  0.00    +0.000 C 
ATOM     36  C   UNL     1       0.806   2.270  18.967  0.00  0.00    +0.000 C 
ENDBRANCH  32  33
ENDBRANCH  30  32
ENDBRANCH  29  30
ENDBRANCH  19  29
ENDBRANCH   2  19
TORSDOF 13
ENDMDL
MODEL 3
REMARK VINA RESULT:      -7.0      3.835      8.451
REMARK  Name = 
REMARK  20 active torsions:
REMARK  status: ('A' for Active; 'I' for Inactive)
REMARK    1  A    between atoms: C_1  and  C_2
REMARK    2  A    between atoms: C_2  and  N_3
REMARK    3  A    between atoms: C_2  and  N_14
REMARK    4  A    between atoms: C_4  and  O_6
REMARK    5  A    between atoms: O_6  and  C_7
REMARK    6  A    between atoms: C_7  and  C_8
REMARK    7  A    between atoms: C_15  and  C_17
REMARK    8  A    between atoms: C_17  and  C_18
REMARK    9  A    between atoms: C_17  and  N_26
REMARK   10  A    between atoms: C_18  and  C_19
REMARK   11  A    between atoms: C_19  and  O_21
REMARK   12  A    between atoms: O_21  and  C_22
REMARK   13  A    between atoms: C_22  and  C_23
REMARK   14  A    between atoms: C_22  and  C_24
REMARK   15  A    between atoms: C_22  and  C_25
REMARK   16  A    between atoms: C_27  and  O_29
REMARK   17  A    between atoms: O_29  and  C_30
REMARK   18  A    between atoms: C_30  and  C_31
REMARK   19  A    between atoms: C_30  and  C_32
REMARK   20  A    between atoms: C_30  and  C_33
REMARK                            x       y       z     vdW  Elec       q    Type
REMARK                         _______ _______ _______ _____ _____    ______ ____
ROOT
ATOM      1  N   UNL     1       1.578   9.070  19.139  0.00  0.00    +0.000 N 
ATOM      2  C   UNL     1       2.382   8.606  18.126  0.00  0.00    +0.000 C 
ATOM      3  O   UNL     1       2.518   9.192  17.051  0.00  0.00    +0.000 OA
ATOM      4  H   UNL     1       1.558   8.548  20.011  0.00  0.00    +0.000 HD
ENDROOT
BRANCH   1   6
ATOM      5  C   UNL     1      -0.588  10.005  18.395  0.00  0.00    +0.000 C 
ATOM      6  C   UNL     1       0.760  10.260  19.058  0.00  0.00    +0.000 C 
BRANCH   6   7
ATOM      7  N   UNL     1       0.594  10.857  20.359  0.00  0.00    +0.000 N 
ATOM      8  C   UNL     1       0.144  10.183  21.449  0.00  0.00    +0.000 C 
ATOM      9  O   UNL     1      -0.130   8.990  21.476  0.00  0.00    +0.000 OA
ATOM     10  H   UNL     1       0.721  11.854  20.444  0.00  0.00    +0.000 HD
BRANCH   8  11
ATOM     11  O   UNL     1      -0.006  11.043  22.487  0.00  0.00    +0.000 OA
BRANCH  11  12
ATOM     12  C   UNL     1      -0.473  12.355  22.139  0.00  0.00    +0.000 C 
BRANCH  12  13
ATOM     13  C   UNL     1      -1.978  12.472  22.141  0.00  0.00    +0.000 A 
ATOM     14  C   UNL     1      -2.702  12.442  23.342  0.00  0.00    +0.000 A 
ATOM     15  C   UNL     1      -4.087  12.629  23.344  0.00  0.00    +0.000 A 
ATOM     16  C   UNL     1      -4.765  12.840  22.145  0.00  0.00    +0.000 A 
ATOM     17  C   UNL     1      -4.060  12.857  20.944  0.00  0.00    +0.000 A 
ATOM     18  C   UNL     1      -2.675  12.669  20.939  0.00  0.00    +0.000 A 
ENDBRANCH  12  13
ENDBRANCH  11  12
ENDBRANCH   8  11
ENDBRANCH   6   7
ENDBRANCH   1   6
BRANCH   2  19
ATOM     19  C   UNL     1       3.149   7.302  18.450  0.00  0.00    +0.000 C 
BRANCH  19  20
ATOM     20  N   UNL     1       3.601   6.663  17.214  0.00  0.00    +0.000 N 
ATOM     21  C   UNL     1       4.912   6.734  16.840  0.00  0.00    +0.000 C 
ATOM     22  O   UNL     1       5.764   7.306  17.507  0.00  0.00    +0.000 OA
ATOM     23  H   UNL     1       2.943   6.366  16.508  0.00  0.00    +0.000 HD
BRANCH  21  24
ATOM     24  O   UNL     1       5.109   6.103  15.657  0.00  0.00    +0.000 OA
BRANCH  24  25
ATOM     25  C   UNL     1       5.667   4.757  15.652  0.00  0.00    +0.000 C 
ATOM     26  C   UNL     1       5.756   4.195  14.225  0.00  0.00    +0.000 C 
ATOM     27  C   UNL     1       7.098   4.875  16.203  0.00  0.00    +0.000 C 
ATOM     28  C   UNL     1       4.878   3.831  16.588  0.00  0.00    +0.000 C 
ENDBRANCH  24  25
ENDBRANCH  21  24
ENDBRANCH  19  20
BRANCH  19  29
ATOM     29  C   UNL     1       2.263   6.369  19.276  0.00  0.00    +0.000 C 
BRANCH  29  30
ATOM     30  C   UNL     1       3.155   5.362  19.957  0.00  0.00    +0.000 C 
ATOM     31  O   UNL     1       4.353   5.267  19.729  0.00  0.00    +0.000 OA
BRANCH  30  32
ATOM     32  O   UNL     1       2.448   4.578  20.815  0.00  0.00    +0.000 OA
BRANCH  32  33
ATOM     33  C   UNL     1       2.147   3.206  20.443  0.00  0.00    +0.000 C 
ATOM     34  C   UNL     1       3.430   2.421  20.132  0.00  0.00    +0.000 C 
ATOM     35  C   UNL     1       1.484   2.574  21.677  0.00  0.00    +0.000 C 
ATOM     36  C   UNL     1       1.142   3.156  19.284  0.00  0.00    +0.000 C 
ENDBRANCH  32  33
ENDBRANCH  30  32
ENDBRANCH  29  30
ENDBRANCH  19  29
ENDBRANCH   2  19
TORSDOF 13
ENDMDL
MODEL 4
REMARK VINA RESULT:      -6.9      3.096      9.084
REMARK  Name = 
REMARK  20 active torsions:
REMARK  status: ('A' for Active; 'I' for Inactive)
REMARK    1  A    between atoms: C_1  and  C_2
REMARK    2  A    between atoms: C_2  and  N_3
REMARK    3  A    between atoms: C_2  and  N_14
REMARK    4  A    between atoms: C_4  and  O_6
REMARK    5  A    between atoms: O_6  and  C_7
REMARK    6  A    between atoms: C_7  and  C_8
REMARK    7  A    between atoms: C_15  and  C_17
REMARK    8  A    between atoms: C_17  and  C_18
REMARK    9  A    between atoms: C_17  and  N_26
REMARK   10  A    between atoms: C_18  and  C_19
REMARK   11  A    between atoms: C_19  and  O_21
REMARK   12  A    between atoms: O_21  and  C_22
REMARK   13  A    between atoms: C_22  and  C_23
REMARK   14  A    between atoms: C_22  and  C_24
REMARK   15  A    between atoms: C_22  and  C_25
REMARK   16  A    between atoms: C_27  and  O_29
REMARK   17  A    between atoms: O_29  and  C_30
REMARK   18  A    between atoms: C_30  and  C_31
REMARK   19  A    between atoms: C_30  and  C_32
REMARK   20  A    between atoms: C_30  and  C_33
REMARK                            x       y       z     vdW  Elec       q    Type
REMARK                         _______ _______ _______ _____ _____    ______ ____
ROOT
ATOM      1  N   UNL     1       2.188   9.362  17.994  0.00  0.00    +0.000 N 
ATOM      2  C   UNL     1       2.208   8.164  18.667  0.00  0.00    +0.000 C 
ATOM      3  O   UNL     1       1.707   8.007  19.781  0.00  0.00    +0.000 OA
ATOM      4  H   UNL     1       2.584   9.392  17.059  0.00  0.00    +0.000 HD
ENDROOT
BRANCH   1   6
ATOM      5  C   UNL     1       2.327  11.831  17.980  0.00  0.00    +0.000 C 
ATOM      6  C   UNL     1       1.630  10.589  18.520  0.00  0.00    +0.000 C 
BRANCH   6   7
ATOM      7  N   UNL     1       0.210  10.648  18.287  0.00  0.00    +0.000 N 
ATOM      8  C   UNL     1      -0.710  10.844  19.267  0.00  0.00    +0.000 C 
ATOM      9  O   UNL     1      -0.451  11.037  20.448  0.00  0.00    +0.000 OA
ATOM     10  H   UNL     1      -0.129  10.432  17.363  0.00  0.00    +0.000 HD
BRANCH   8  11
ATOM     11  O   UNL     1      -1.959  10.738  18.749  0.00  0.00    +0.000 OA
BRANCH  11  12
ATOM     12  C   UNL     1      -2.638  11.982  18.517  0.00  0.00    +0.000 C 
BRANCH  12  13
ATOM     13  C   UNL     1      -3.825  12.192  19.426  0.00  0.00    +0.000 A 
ATOM     14  C   UNL     1      -5.118  11.834  19.016  0.00  0.00    +0.000 A 
ATOM     15  C   UNL     1      -6.202  11.959  19.890  0.00  0.00    +0.000 A 
ATOM     16  C   UNL     1      -6.007  12.450  21.180  0.00  0.00    +0.000 A 
ATOM     17  C   UNL     1      -4.730  12.823  21.593  0.00  0.00    +0.000 A 
ATOM     18  C   UNL     1      -3.645  12.700  20.721  0.00  0.00    +0.000 A 
ENDBRANCH  12  13
ENDBRANCH  11  12
ENDBRANCH   8  11
ENDBRANCH   6   7
ENDBRANCH   1   6
BRANCH   2  19
ATOM     19  C   UNL     1       2.873   6.997  17.898  0.00  0.00    +0.000 C 
BRANCH  19  20
ATOM     20  N   UNL     1       3.081   5.858  18.792  0.00  0.00    +0.000 N 
ATOM     21  C   UNL     1       2.628   4.618  18.445  0.00  0.00    +0.000 C 
ATOM     22  O   UNL     1       2.054   4.391  17.388  0.00  0.00    +0.000 OA
ATOM     23  H   UNL     1       3.342   5.992  19.758  0.00  0.00    +0.000 HD
BRANCH  21  24
ATOM     24  O   UNL     1       2.898   3.718  19.421  0.00  0.00    +0.000 OA
BRANCH  24  25
ATOM     25  C   UNL     1       1.797   3.140  20.182  0.00  0.00    +0.000 C 
ATOM     26  C   UNL     1       1.218   1.905  19.476  0.00  0.00    +0.000 C 
ATOM     27  C   UNL     1       2.386   2.683  21.527  0.00  0.00    +0.000 C 
ATOM     28  C   UNL     1       0.720   4.194  20.475  0.00  0.00    +0.000 C 
ENDBRANCH  24  25
ENDBRANCH  21  24
ENDBRANCH  19  20
BRANCH  19  29
ATOM     29  C   UNL     1       4.186   7.470  17.272  0.00  0.00    +0.000 C 
BRANCH  29  30
ATOM     30  C   UNL     1       5.052   6.259  17.035  0.00  0.00    +0.000 C 
ATOM     31  O   UNL     1       5.056   5.634  15.983  0.00  0.00    +0.000 OA
BRANCH  30  32
ATOM     32  O   UNL     1       5.783   5.952  18.140  0.00  0.00    +0.000 OA
BRANCH  32  33
ATOM     33  C   UNL     1       7.232   5.889  18.040  0.00  0.00    +0.000 C 
ATOM     34  C   UNL     1       7.800   7.161  17.394  0.00  0.00    +0.000 C 
ATOM     35  C   UNL     1       7.748   5.813  19.486  0.00  0.00    +0.000 C 
ATOM     36  C   UNL     1       7.680   4.616  17.308  0.00  0.00    +0.000 C 
ENDBRANCH  32  33
ENDBRANCH  30  32
ENDBRANCH  29  30
ENDBRANCH  19  29
ENDBRANCH   2  19
TORSDOF 13
ENDMDL
MODEL 5
REMARK VINA RESULT:      -6.9      1.222      4.886
REMARK  Name = 
REMARK  20 active torsions:
REMARK  status: ('A' for Active; 'I' for Inactive)
REMARK    1  A    between atoms: C_1  and  C_2
REMARK    2  A    between atoms: C_2  and  N_3
REMARK    3  A    between atoms: C_2  and  N_14
REMARK    4  A    between atoms: C_4  and  O_6
REMARK    5  A    between atoms: O_6  and  C_7
REMARK    6  A    between atoms: C_7  and  C_8
REMARK    7  A    between atoms: C_15  and  C_17
REMARK    8  A    between atoms: C_17  and  C_18
REMARK    9  A    between atoms: C_17  and  N_26
REMARK   10  A    between atoms: C_18  and  C_19
REMARK   11  A    between atoms: C_19  and  O_21
REMARK   12  A    between atoms: O_21  and  C_22
REMARK   13  A    between atoms: C_22  and  C_23
REMARK   14  A    between atoms: C_22  and  C_24
REMARK   15  A    between atoms: C_22  and  C_25
REMARK   16  A    between atoms: C_27  and  O_29
REMARK   17  A    between atoms: O_29  and  C_30
REMARK   18  A    between atoms: C_30  and  C_31
REMARK   19  A    between atoms: C_30  and  C_32
REMARK   20  A    between atoms: C_30  and  C_33
REMARK                            x       y       z     vdW  Elec       q    Type
REMARK                         _______ _______ _______ _____ _____    ______ ____
ROOT
ATOM      1  N   UNL     1       4.906   6.203  17.760  0.00  0.00    +0.000 N 
ATOM      2  C   UNL     1       3.993   7.193  17.484  0.00  0.00    +0.000 C 
ATOM      3  O   UNL     1       4.117   7.983  16.548  0.00  0.00    +0.000 OA
ATOM      4  H   UNL     1       4.703   5.565  18.524  0.00  0.00    +0.000 HD
ENDROOT
BRANCH   1   6
ATOM      5  C   UNL     1       5.916   5.365  15.664  0.00  0.00    +0.000 C 
ATOM      6  C   UNL     1       6.139   5.998  17.032  0.00  0.00    +0.000 C 
BRANCH   6   7
ATOM      7  N   UNL     1       6.880   7.228  16.921  0.00  0.00    +0.000 N 
ATOM      8  C   UNL     1       7.812   7.634  17.822  0.00  0.00    +0.000 C 
ATOM      9  O   UNL     1       8.167   6.995  18.804  0.00  0.00    +0.000 OA
ATOM     10  H   UNL     1       6.623   7.873  16.189  0.00  0.00    +0.000 HD
BRANCH   8  11
ATOM     11  O   UNL     1       8.248   8.877  17.498  0.00  0.00    +0.000 OA
BRANCH  11  12
ATOM     12  C   UNL     1       8.723   9.670  18.597  0.00  0.00    +0.000 C 
BRANCH  12  13
ATOM     13  C   UNL     1       9.389  10.953  18.162  0.00  0.00    +0.000 A 
ATOM     14  C   UNL     1       8.630  12.093  17.861  0.00  0.00    +0.000 A 
ATOM     15  C   UNL     1       9.256  13.300  17.534  0.00  0.00    +0.000 A 
ATOM     16  C   UNL     1      10.647  13.378  17.497  0.00  0.00    +0.000 A 
ATOM     17  C   UNL     1      11.412  12.249  17.780  0.00  0.00    +0.000 A 
ATOM     18  C   UNL     1      10.788  11.041  18.105  0.00  0.00    +0.000 A 
ENDBRANCH  12  13
ENDBRANCH  11  12
ENDBRANCH   8  11
ENDBRANCH   6   7
ENDBRANCH   1   6
BRANCH   2  19
ATOM     19  C   UNL     1       2.758   7.216  18.416  0.00  0.00    +0.000 C 
BRANCH  19  20
ATOM     20  N   UNL     1       2.090   5.915  18.399  0.00  0.00    +0.000 N 
ATOM     21  C   UNL     1       1.997   5.171  19.540  0.00  0.00    +0.000 C 
ATOM     22  O   UNL     1       2.441   5.548  20.617  0.00  0.00    +0.000 OA
ATOM     23  H   UNL     1       1.894   5.439  17.530  0.00  0.00    +0.000 HD
BRANCH  21  24
ATOM     24  O   UNL     1       1.369   3.995  19.298  0.00  0.00    +0.000 OA
BRANCH  24  25
ATOM     25  C   UNL     1       2.150   2.853  18.840  0.00  0.00    +0.000 C 
ATOM     26  C   UNL     1       3.420   2.670  19.683  0.00  0.00    +0.000 C 
ATOM     27  C   UNL     1       1.266   1.610  19.043  0.00  0.00    +0.000 C 
ATOM     28  C   UNL     1       2.463   2.966  17.341  0.00  0.00    +0.000 C 
ENDBRANCH  24  25
ENDBRANCH  21  24
ENDBRANCH  19  20
BRANCH  19  29
ATOM     29  C   UNL     1       1.812   8.342  17.997  0.00  0.00    +0.000 C 
BRANCH  29  30
ATOM     30  C   UNL     1       1.419   9.105  19.237  0.00  0.00    +0.000 C 
ATOM     31  O   UNL     1       1.276   8.577  20.331  0.00  0.00    +0.000 OA
BRANCH  30  32
ATOM     32  O   UNL     1       1.223  10.423  18.963  0.00  0.00    +0.000 OA
BRANCH  32  33
ATOM     33  C   UNL     1      -0.103  10.995  19.127  0.00  0.00    +0.000 C 
ATOM     34  C   UNL     1      -0.506  11.048  20.608  0.00  0.00    +0.000 C 
ATOM     35  C   UNL     1      -0.004  12.437  18.604  0.00  0.00    +0.000 C 
ATOM     36  C   UNL     1      -1.137  10.249  18.272  0.00  0.00    +0.000 C 
ENDBRANCH  32  33
ENDBRANCH  30  32
ENDBRANCH  29  30
ENDBRANCH  19  29
ENDBRANCH   2  19
TORSDOF 13
ENDMDL
MODEL 6
REMARK VINA RESULT:      -6.8      1.264      4.527
REMARK  Name = 
REMARK  20 active torsions:
REMARK  status: ('A' for Active; 'I' for Inactive)
REMARK    1  A    between atoms: C_1  and  C_2
REMARK    2  A    between atoms: C_2  and  N_3
REMARK    3  A    between atoms: C_2  and  N_14
REMARK    4  A    between atoms: C_4  and  O_6
REMARK    5  A    between atoms: O_6  and  C_7
REMARK    6  A    between atoms: C_7  and  C_8
REMARK    7  A    between atoms: C_15  and  C_17
REMARK    8  A    between atoms: C_17  and  C_18
REMARK    9  A    between atoms: C_17  and  N_26
REMARK   10  A    between atoms: C_18  and  C_19
REMARK   11  A    between atoms: C_19  and  O_21
REMARK   12  A    between atoms: O_21  and  C_22
REMARK   13  A    between atoms: C_22  and  C_23
REMARK   14  A    between atoms: C_22  and  C_24
REMARK   15  A    between atoms: C_22  and  C_25
REMARK   16  A    between atoms: C_27  and  O_29
REMARK   17  A    between atoms: O_29  and  C_30
REMARK   18  A    between atoms: C_30  and  C_31
REMARK   19  A    between atoms: C_30  and  C_32
REMARK   20  A    between atoms: C_30  and  C_33
REMARK                            x       y       z     vdW  Elec       q    Type
REMARK                         _______ _______ _______ _____ _____    ______ ____
ROOT
ATOM      1  N   UNL     1       5.338   6.024  17.518  0.00  0.00    +0.000 N 
ATOM      2  C   UNL     1       4.335   6.906  17.193  0.00  0.00    +0.000 C 
ATOM      3  O   UNL     1       4.404   7.684  16.242  0.00  0.00    +0.000 OA
ATOM      4  H   UNL     1       5.181   5.384  18.292  0.00  0.00    +0.000 HD
ENDROOT
BRANCH   1   6
ATOM      5  C   UNL     1       6.480   5.306  15.444  0.00  0.00    +0.000 C 
ATOM      6  C   UNL     1       6.606   5.932  16.827  0.00  0.00    +0.000 C 
BRANCH   6   7
ATOM      7  N   UNL     1       7.245   7.222  16.757  0.00  0.00    +0.000 N 
ATOM      8  C   UNL     1       7.985   7.755  17.764  0.00  0.00    +0.000 C 
ATOM      9  O   UNL     1       8.235   7.199  18.825  0.00  0.00    +0.000 OA
ATOM     10  H   UNL     1       7.052   7.804  15.957  0.00  0.00    +0.000 HD
BRANCH   8  11
ATOM     11  O   UNL     1       8.356   9.018  17.436  0.00  0.00    +0.000 OA
BRANCH  11  12
ATOM     12  C   UNL     1       8.676   9.874  18.544  0.00  0.00    +0.000 C 
BRANCH  12  13
ATOM     13  C   UNL     1       9.405  11.131  18.135  0.00  0.00    +0.000 A 
ATOM     14  C   UNL     1       8.709  12.329  17.915  0.00  0.00    +0.000 A 
ATOM     15  C   UNL     1       9.398  13.507  17.613  0.00  0.00    +0.000 A 
ATOM     16  C   UNL     1      10.788  13.500  17.519  0.00  0.00    +0.000 A 
ATOM     17  C   UNL     1      11.490  12.314  17.720  0.00  0.00    +0.000 A 
ATOM     18  C   UNL     1      10.804  11.134  18.022  0.00  0.00    +0.000 A 
ENDBRANCH  12  13
ENDBRANCH  11  12
ENDBRANCH   8  11
ENDBRANCH   6   7
ENDBRANCH   1   6
BRANCH   2  19
ATOM     19  C   UNL     1       3.079   6.820  18.092  0.00  0.00    +0.000 C 
BRANCH  19  20
ATOM     20  N   UNL     1       2.670   5.424  18.254  0.00  0.00    +0.000 N 
ATOM     21  C   UNL     1       3.170   4.674  19.278  0.00  0.00    +0.000 C 
ATOM     22  O   UNL     1       3.955   5.117  20.106  0.00  0.00    +0.000 OA
ATOM     23  H   UNL     1       2.209   4.925  17.507  0.00  0.00    +0.000 HD
BRANCH  21  24
ATOM     24  O   UNL     1       2.686   3.409  19.228  0.00  0.00    +0.000 OA
BRANCH  24  25
ATOM     25  C   UNL     1       1.531   3.056  20.043  0.00  0.00    +0.000 C 
ATOM     26  C   UNL     1       1.959   2.394  21.362  0.00  0.00    +0.000 C 
ATOM     27  C   UNL     1       0.819   4.376  20.388  0.00  0.00    +0.000 C 
ATOM     28  C   UNL     1       0.546   2.183  19.253  0.00  0.00    +0.000 C 
ENDBRANCH  24  25
ENDBRANCH  21  24
ENDBRANCH  19  20
BRANCH  19  29
ATOM     29  C   UNL     1       1.956   7.672  17.498  0.00  0.00    +0.000 C 
BRANCH  29  30
ATOM     30  C   UNL     1       1.953   9.001  18.209  0.00  0.00    +0.000 C 
ATOM     31  O   UNL     1       2.360  10.034  17.697  0.00  0.00    +0.000 OA
BRANCH  30  32
ATOM     32  O   UNL     1       1.475   8.881  19.477  0.00  0.00    +0.000 OA
BRANCH  32  33
ATOM     33  C   UNL     1       0.489   9.833  19.959  0.00  0.00    +0.000 C 
ATOM     34  C   UNL     1       1.125  11.204  20.229  0.00  0.00    +0.000 C 
ATOM     35  C   UNL     1      -0.532   9.993  18.821  0.00  0.00    +0.000 C 
ATOM     36  C   UNL     1      -0.252   9.286  21.188  0.00  0.00    +0.000 C 
ENDBRANCH  32  33
ENDBRANCH  30  32
ENDBRANCH  29  30
ENDBRANCH  19  29
ENDBRANCH   2  19
TORSDOF 13
ENDMDL
MODEL 7
REMARK VINA RESULT:      -6.8      3.789      9.271
REMARK  Name = 
REMARK  20 active torsions:
REMARK  status: ('A' for Active; 'I' for Inactive)
REMARK    1  A    between atoms: C_1  and  C_2
REMARK    2  A    between atoms: C_2  and  N_3
REMARK    3  A    between atoms: C_2  and  N_14
REMARK    4  A    between atoms: C_4  and  O_6
REMARK    5  A    between atoms: O_6  and  C_7
REMARK    6  A    between atoms: C_7  and  C_8
REMARK    7  A    between atoms: C_15  and  C_17
REMARK    8  A    between atoms: C_17  and  C_18
REMARK    9  A    between atoms: C_17  and  N_26
REMARK   10  A    between atoms: C_18  and  C_19
REMARK   11  A    between atoms: C_19  and  O_21
REMARK   12  A    between atoms: O_21  and  C_22
REMARK   13  A    between atoms: C_22  and  C_23
REMARK   14  A    between atoms: C_22  and  C_24
REMARK   15  A    between atoms: C_22  and  C_25
REMARK   16  A    between atoms: C_27  and  O_29
REMARK   17  A    between atoms: O_29  and  C_30
REMARK   18  A    between atoms: C_30  and  C_31
REMARK   19  A    between atoms: C_30  and  C_32
REMARK   20  A    between atoms: C_30  and  C_33
REMARK                            x       y       z     vdW  Elec       q    Type
REMARK                         _______ _______ _______ _____ _____    ______ ____
ROOT
ATOM      1  N   UNL     1       1.578   9.112  19.226  0.00  0.00    +0.000 N 
ATOM      2  C   UNL     1       2.112   8.490  18.123  0.00  0.00    +0.000 C 
ATOM      3  O   UNL     1       2.046   8.960  16.986  0.00  0.00    +0.000 OA
ATOM      4  H   UNL     1       1.717   8.677  20.134  0.00  0.00    +0.000 HD
ENDROOT
BRANCH   1   6
ATOM      5  C   UNL     1       1.729  11.568  18.975  0.00  0.00    +0.000 C 
ATOM      6  C   UNL     1       0.835  10.353  19.190  0.00  0.00    +0.000 C 
BRANCH   6   7
ATOM      7  N   UNL     1      -0.210  10.296  18.201  0.00  0.00    +0.000 N 
ATOM      8  C   UNL     1      -1.392  10.956  18.311  0.00  0.00    +0.000 C 
ATOM      9  O   UNL     1      -1.697  11.707  19.228  0.00  0.00    +0.000 OA
ATOM     10  H   UNL     1      -0.102   9.653  17.432  0.00  0.00    +0.000 HD
BRANCH   8  11
ATOM     11  O   UNL     1      -2.203  10.614  17.278  0.00  0.00    +0.000 OA
BRANCH  11  12
ATOM     12  C   UNL     1      -3.354   9.833  17.631  0.00  0.00    +0.000 C 
BRANCH  12  13
ATOM     13  C   UNL     1      -4.634  10.633  17.655  0.00  0.00    +0.000 A 
ATOM     14  C   UNL     1      -5.703  10.259  18.484  0.00  0.00    +0.000 A 
ATOM     15  C   UNL     1      -6.855  11.047  18.560  0.00  0.00    +0.000 A 
ATOM     16  C   UNL     1      -6.955  12.213  17.803  0.00  0.00    +0.000 A 
ATOM     17  C   UNL     1      -5.908  12.587  16.965  0.00  0.00    +0.000 A 
ATOM     18  C   UNL     1      -4.755  11.800  16.886  0.00  0.00    +0.000 A 
ENDBRANCH  12  13
ENDBRANCH  11  12
ENDBRANCH   8  11
ENDBRANCH   6   7
ENDBRANCH   1   6
BRANCH   2  19
ATOM     19  C   UNL     1       2.851   7.163  18.418  0.00  0.00    +0.000 C 
BRANCH  19  20
ATOM     20  N   UNL     1       3.927   6.960  17.449  0.00  0.00    +0.000 N 
ATOM     21  C   UNL     1       5.072   6.313  17.815  0.00  0.00    +0.000 C 
ATOM     22  O   UNL     1       5.252   5.863  18.940  0.00  0.00    +0.000 OA
ATOM     23  H   UNL     1       3.956   7.477  16.583  0.00  0.00    +0.000 HD
BRANCH  21  24
ATOM     24  O   UNL     1       5.944   6.257  16.780  0.00  0.00    +0.000 OA
BRANCH  24  25
ATOM     25  C   UNL     1       6.362   4.957  16.270  0.00  0.00    +0.000 C 
ATOM     26  C   UNL     1       6.856   5.059  14.819  0.00  0.00    +0.000 C 
ATOM     27  C   UNL     1       7.547   4.505  17.141  0.00  0.00    +0.000 C 
ATOM     28  C   UNL     1       5.242   3.919  16.426  0.00  0.00    +0.000 C 
ENDBRANCH  24  25
ENDBRANCH  21  24
ENDBRANCH  19  20
BRANCH  19  29
ATOM     29  C   UNL     1       1.856   6.002  18.410  0.00  0.00    +0.000 C 
BRANCH  29  30
ATOM     30  C   UNL     1       1.783   5.441  19.807  0.00  0.00    +0.000 C 
ATOM     31  O   UNL     1       2.330   5.965  20.768  0.00  0.00    +0.000 OA
BRANCH  30  32
ATOM     32  O   UNL     1       1.067   4.285  19.838  0.00  0.00    +0.000 OA
BRANCH  32  33
ATOM     33  C   UNL     1       1.750   3.030  20.101  0.00  0.00    +0.000 C 
ATOM     34  C   UNL     1       1.550   2.583  21.557  0.00  0.00    +0.000 C 
ATOM     35  C   UNL     1       1.085   1.991  19.184  0.00  0.00    +0.000 C 
ATOM     36  C   UNL     1       3.235   3.119  19.721  0.00  0.00    +0.000 C 
ENDBRANCH  32  33
ENDBRANCH  30  32
ENDBRANCH  29  30
ENDBRANCH  19  29
ENDBRANCH   2  19
TORSDOF 13
ENDMDL
MODEL 8
REMARK VINA RESULT:      -6.8      2.981      8.672
REMARK  Name = 
REMARK  20 active torsions:
REMARK  status: ('A' for Active; 'I' for Inactive)
REMARK    1  A    between atoms: C_1  and  C_2
REMARK    2  A    between atoms: C_2  and  N_3
REMARK    3  A    between atoms: C_2  and  N_14
REMARK    4  A    between atoms: C_4  and  O_6
REMARK    5  A    between atoms: O_6  and  C_7
REMARK    6  A    between atoms: C_7  and  C_8
REMARK    7  A    between atoms: C_15  and  C_17
REMARK    8  A    between atoms: C_17  and  C_18
REMARK    9  A    between atoms: C_17  and  N_26
REMARK   10  A    between atoms: C_18  and  C_19
REMARK   11  A    between atoms: C_19  and  O_21
REMARK   12  A    between atoms: O_21  and  C_22
REMARK   13  A    between atoms: C_22  and  C_23
REMARK   14  A    between atoms: C_22  and  C_24
REMARK   15  A    between atoms: C_22  and  C_25
REMARK   16  A    between atoms: C_27  and  O_29
REMARK   17  A    between atoms: O_29  and  C_30
REMARK   18  A    between atoms: C_30  and  C_31
REMARK   19  A    between atoms: C_30  and  C_32
REMARK   20  A    between atoms: C_30  and  C_33
REMARK                            x       y       z     vdW  Elec       q    Type
REMARK                         _______ _______ _______ _____ _____    ______ ____
ROOT
ATOM      1  N   UNL     1       1.540   8.173  19.591  0.00  0.00    +0.000 N 
ATOM      2  C   UNL     1       1.997   6.882  19.478  0.00  0.00    +0.000 C 
ATOM      3  O   UNL     1       1.902   6.051  20.381  0.00  0.00    +0.000 OA
ATOM      4  H   UNL     1       1.618   8.781  18.780  0.00  0.00    +0.000 HD
ENDROOT
BRANCH   1   6
ATOM      5  C   UNL     1       1.982   9.182  21.806  0.00  0.00    +0.000 C 
ATOM      6  C   UNL     1       0.945   8.731  20.785  0.00  0.00    +0.000 C 
BRANCH   6   7
ATOM      7  N   UNL     1       0.042   9.804  20.455  0.00  0.00    +0.000 N 
ATOM      8  C   UNL     1       0.340  10.801  19.582  0.00  0.00    +0.000 C 
ATOM      9  O   UNL     1       1.379  10.890  18.942  0.00  0.00    +0.000 OA
ATOM     10  H   UNL     1      -0.820   9.876  20.973  0.00  0.00    +0.000 HD
BRANCH   8  11
ATOM     11  O   UNL     1      -0.666  11.712  19.569  0.00  0.00    +0.000 OA
BRANCH  11  12
ATOM     12  C   UNL     1      -1.993  11.166  19.615  0.00  0.00    +0.000 C 
BRANCH  12  13
ATOM     13  C   UNL     1      -2.591  10.934  18.249  0.00  0.00    +0.000 A 
ATOM     14  C   UNL     1      -3.751  11.613  17.845  0.00  0.00    +0.000 A 
ATOM     15  C   UNL     1      -4.256  11.453  16.552  0.00  0.00    +0.000 A 
ATOM     16  C   UNL     1      -3.612  10.608  15.650  0.00  0.00    +0.000 A 
ATOM     17  C   UNL     1      -2.468   9.917  16.043  0.00  0.00    +0.000 A 
ATOM     18  C   UNL     1      -1.962  10.074  17.336  0.00  0.00    +0.000 A 
ENDBRANCH  12  13
ENDBRANCH  11  12
ENDBRANCH   8  11
ENDBRANCH   6   7
ENDBRANCH   1   6
BRANCH   2  19
ATOM     19  C   UNL     1       2.607   6.527  18.101  0.00  0.00    +0.000 C 
BRANCH  19  20
ATOM     20  N   UNL     1       3.054   5.134  18.092  0.00  0.00    +0.000 N 
ATOM     21  C   UNL     1       2.228   4.147  17.636  0.00  0.00    +0.000 C 
ATOM     22  O   UNL     1       1.104   4.367  17.204  0.00  0.00    +0.000 OA
ATOM     23  H   UNL     1       3.862   4.840  18.622  0.00  0.00    +0.000 HD
BRANCH  21  24
ATOM     24  O   UNL     1       2.824   2.935  17.741  0.00  0.00    +0.000 OA
BRANCH  24  25
ATOM     25  C   UNL     1       3.121   2.400  19.064  0.00  0.00    +0.000 C 
ATOM     26  C   UNL     1       1.863   2.353  19.943  0.00  0.00    +0.000 C 
ATOM     27  C   UNL     1       3.604   0.954  18.853  0.00  0.00    +0.000 C 
ATOM     28  C   UNL     1       4.261   3.183  19.730  0.00  0.00    +0.000 C 
ENDBRANCH  24  25
ENDBRANCH  21  24
ENDBRANCH  19  20
BRANCH  19  29
ATOM     29  C   UNL     1       3.750   7.488  17.775  0.00  0.00    +0.000 C 
BRANCH  29  30
ATOM     30  C   UNL     1       4.893   6.681  17.215  0.00  0.00    +0.000 C 
ATOM     31  O   UNL     1       5.081   6.530  16.015  0.00  0.00    +0.000 OA
BRANCH  30  32
ATOM     32  O   UNL     1       5.645   6.135  18.208  0.00  0.00    +0.000 OA
BRANCH  32  33
ATOM     33  C   UNL     1       7.083   6.020  18.032  0.00  0.00    +0.000 C 
ATOM     34  C   UNL     1       7.689   7.337  17.526  0.00  0.00    +0.000 C 
ATOM     35  C   UNL     1       7.655   5.733  19.429  0.00  0.00    +0.000 C 
ATOM     36  C   UNL     1       7.435   4.834  17.122  0.00  0.00    +0.000 C 
ENDBRANCH  32  33
ENDBRANCH  30  32
ENDBRANCH  29  30
ENDBRANCH  19  29
ENDBRANCH   2  19
TORSDOF 13
ENDMDL
MODEL 9
REMARK VINA RESULT:      -6.8      1.210      1.566
REMARK  Name = 
REMARK  20 active torsions:
REMARK  status: ('A' for Active; 'I' for Inactive)
REMARK    1  A    between atoms: C_1  and  C_2
REMARK    2  A    between atoms: C_2  and  N_3
REMARK    3  A    between atoms: C_2  and  N_14
REMARK    4  A    between atoms: C_4  and  O_6
REMARK    5  A    between atoms: O_6  and  C_7
REMARK    6  A    between atoms: C_7  and  C_8
REMARK    7  A    between atoms: C_15  and  C_17
REMARK    8  A    between atoms: C_17  and  C_18
REMARK    9  A    between atoms: C_17  and  N_26
REMARK   10  A    between atoms: C_18  and  C_19
REMARK   11  A    between atoms: C_19  and  O_21
REMARK   12  A    between atoms: O_21  and  C_22
REMARK   13  A    between atoms: C_22  and  C_23
REMARK   14  A    between atoms: C_22  and  C_24
REMARK   15  A    between atoms: C_22  and  C_25
REMARK   16  A    between atoms: C_27  and  O_29
REMARK   17  A    between atoms: O_29  and  C_30
REMARK   18  A    between atoms: C_30  and  C_31
REMARK   19  A    between atoms: C_30  and  C_32
REMARK   20  A    between atoms: C_30  and  C_33
REMARK                            x       y       z     vdW  Elec       q    Type
REMARK                         _______ _______ _______ _____ _____    ______ ____
ROOT
ATOM      1  N   UNL     1       4.843   6.336  17.805  0.00  0.00    +0.000 N 
ATOM      2  C   UNL     1       3.892   7.166  17.260  0.00  0.00    +0.000 C 
ATOM      3  O   UNL     1       4.057   7.778  16.204  0.00  0.00    +0.000 OA
ATOM      4  H   UNL     1       4.608   5.834  18.657  0.00  0.00    +0.000 HD
ENDROOT
BRANCH   1   6
ATOM      5  C   UNL     1       6.120   5.340  15.936  0.00  0.00    +0.000 C 
ATOM      6  C   UNL     1       6.159   6.117  17.246  0.00  0.00    +0.000 C 
BRANCH   6   7
ATOM      7  N   UNL     1       6.863   7.364  17.090  0.00  0.00    +0.000 N 
ATOM      8  C   UNL     1       7.879   7.765  17.898  0.00  0.00    +0.000 C 
ATOM      9  O   UNL     1       8.347   7.110  18.819  0.00  0.00    +0.000 OA
ATOM     10  H   UNL     1       6.520   8.021  16.407  0.00  0.00    +0.000 HD
BRANCH   8  11
ATOM     11  O   UNL     1       8.258   9.024  17.563  0.00  0.00    +0.000 OA
BRANCH  11  12
ATOM     12  C   UNL     1       8.819   9.804  18.629  0.00  0.00    +0.000 C 
BRANCH  12  13
ATOM     13  C   UNL     1       9.443  11.095  18.160  0.00  0.00    +0.000 A 
ATOM     14  C   UNL     1       8.660  12.242  17.957  0.00  0.00    +0.000 A 
ATOM     15  C   UNL     1       9.254  13.455  17.597  0.00  0.00    +0.000 A 
ATOM     16  C   UNL     1      10.634  13.534  17.427  0.00  0.00    +0.000 A 
ATOM     17  C   UNL     1      11.421  12.400  17.610  0.00  0.00    +0.000 A 
ATOM     18  C   UNL     1      10.830  11.185  17.969  0.00  0.00    +0.000 A 
ENDBRANCH  12  13
ENDBRANCH  11  12
ENDBRANCH   8  11
ENDBRANCH   6   7
ENDBRANCH   1   6
BRANCH   2  19
ATOM     19  C   UNL     1       2.566   7.245  18.054  0.00  0.00    +0.000 C 
BRANCH  19  20
ATOM     20  N   UNL     1       2.397   8.583  18.621  0.00  0.00    +0.000 N 
ATOM     21  C   UNL     1       1.383   9.390  18.193  0.00  0.00    +0.000 C 
ATOM     22  O   UNL     1       0.570   9.045  17.346  0.00  0.00    +0.000 OA
ATOM     23  H   UNL     1       3.135   9.022  19.152  0.00  0.00    +0.000 HD
BRANCH  21  24
ATOM     24  O   UNL     1       1.425  10.589  18.824  0.00  0.00    +0.000 OA
BRANCH  24  25
ATOM     25  C   UNL     1       0.374  10.929  19.775  0.00  0.00    +0.000 C 
ATOM     26  C   UNL     1      -0.050   9.705  20.601  0.00  0.00    +0.000 C 
ATOM     27  C   UNL     1       0.978  11.964  20.741  0.00  0.00    +0.000 C 
ATOM     28  C   UNL     1      -0.817  11.588  19.066  0.00  0.00    +0.000 C 
ENDBRANCH  24  25
ENDBRANCH  21  24
ENDBRANCH  19  20
BRANCH  19  29
ATOM     29  C   UNL     1       2.543   6.165  19.137  0.00  0.00    +0.000 C 
BRANCH  29  30
ATOM     30  C   UNL     1       2.224   4.849  18.476  0.00  0.00    +0.000 C 
ATOM     31  O   UNL     1       1.389   4.731  17.589  0.00  0.00    +0.000 OA
BRANCH  30  32
ATOM     32  O   UNL     1       2.954   3.836  19.015  0.00  0.00    +0.000 OA
BRANCH  32  33
ATOM     33  C   UNL     1       2.325   2.928  19.959  0.00  0.00    +0.000 C 
ATOM     34  C   UNL     1       1.096   3.572  20.616  0.00  0.00    +0.000 C 
ATOM     35  C   UNL     1       1.850   1.724  19.128  0.00  0.00    +0.000 C 
ATOM     36  C   UNL     1       3.337   2.420  20.995  0.00  0.00    +0.000 C 
ENDBRANCH  32  33
ENDBRANCH  30  32
ENDBRANCH  29  30
ENDBRANCH  19  29
ENDBRANCH   2  19
TORSDOF 13
ENDMDL
