MODEL 1
REMARK VINA RESULT:      -7.2      0.000      0.000
REMARK  Name = 
REMARK  7 active torsions:
REMARK  status: ('A' for Active; 'I' for Inactive)
REMARK    1  A    between atoms: C_1  and  C_2
REMARK    2  A    between atoms: C_2  and  O_3
REMARK    3  A    between atoms: O_3  and  C_4
REMARK    4  A    between atoms: C_4  and  C_6
REMARK    5  A    between atoms: N_8  and  C_9
REMARK    6  A    between atoms: C_11  and  C_12
REMARK    7  A    between atoms: C_12  and  N_13
REMARK                            x       y       z     vdW  Elec       q    Type
REMARK                         _______ _______ _______ _____ _____    ______ ____
ROOT
ATOM      1  C   UNL     1       6.942   5.077  15.642  0.00  0.00    +0.000 A 
ATOM      2  N   UNL     1       7.611   5.355  14.504  0.00  0.00    +0.000 NA
ATOM      3  N   UNL     1       6.995   4.632  13.562  0.00  0.00    +0.000 N 
ATOM      4  C   UNL     1       7.457   4.696  12.195  0.00  0.00    +0.000 C 
ATOM      5  C   UNL     1       5.959   3.891  14.035  0.00  0.00    +0.000 A 
ATOM      6  C   UNL     1       5.888   4.143  15.393  0.00  0.00    +0.000 A 
ENDROOT
BRANCH   1   7
ATOM      7  C   UNL     1       7.276   5.731  16.917  0.00  0.00    +0.000 C 
ATOM      8  O   UNL     1       7.074   5.218  18.013  0.00  0.00    +0.000 OA
BRANCH   7   9
ATOM      9  O   UNL     1       7.739   7.004  16.744  0.00  0.00    +0.000 OA
BRANCH   9  11
ATOM     10  C   UNL     1       8.365   8.875  18.085  0.00  0.00    +0.000 C 
ATOM     11  C   UNL     1       7.216   7.984  17.646  0.00  0.00    +0.000 C 
ENDBRANCH   9  11
ENDBRANCH   7   9
ENDBRANCH   1   7
BRANCH   6  12
ATOM     12  C   UNL     1       4.905   3.573  16.371  0.00  0.00    +0.000 C 
BRANCH  12  13
ATOM     13  N   UNL     1       4.088   4.584  17.035  0.00  0.00    +0.000 N 
ATOM     14  C   UNL     1       3.416   4.122  18.178  0.00  0.00    +0.000 A 
ATOM     15  C   UNL     1       2.611   5.025  18.875  0.00  0.00    +0.000 A 
ATOM     16  C   UNL     1       1.930   4.606  20.019  0.00  0.00    +0.000 A 
ATOM     17  C   UNL     1       2.069   3.293  20.439  0.00  0.00    +0.000 A 
ATOM     18 CL   UNL     1       1.241   2.721  21.828  0.00  0.00    +0.000 Cl
ATOM     19  C   UNL     1       2.896   2.461  19.707  0.00  0.00    +0.000 A 
ATOM     20  N   UNL     1       3.574   2.852  18.600  0.00  0.00    +0.000 NA
ATOM     21  H   UNL     1       3.402   4.973  16.393  0.00  0.00    +0.000 HD
ENDBRANCH  12  13
ENDBRANCH   6  12
TORSDOF 5
ENDMDL
MODEL 2
REMARK VINA RESULT:      -7.2      1.861      3.677
REMARK  Name = 
REMARK  7 active torsions:
REMARK  status: ('A' for Active; 'I' for Inactive)
REMARK    1  A    between atoms: C_1  and  C_2
REMARK    2  A    between atoms: C_2  and  O_3
REMARK    3  A    between atoms: O_3  and  C_4
REMARK    4  A    between atoms: C_4  and  C_6
REMARK    5  A    between atoms: N_8  and  C_9
REMARK    6  A    between atoms: C_11  and  C_12
REMARK    7  A    between atoms: C_12  and  N_13
REMARK                            x       y       z     vdW  Elec       q    Type
REMARK                         _______ _______ _______ _____ _____    ______ ____
ROOT
ATOM      1  C   UNL     1       6.840   5.310  15.660  0.00  0.00    +0.000 A 
ATOM      2  N   UNL     1       7.577   6.327  16.154  0.00  0.00    +0.000 NA
ATOM      3  N   UNL     1       7.356   6.297  17.473  0.00  0.00    +0.000 N 
ATOM      4  C   UNL     1       8.004   7.264  18.328  0.00  0.00    +0.000 C 
ATOM      5  C   UNL     1       6.505   5.311  17.861  0.00  0.00    +0.000 A 
ATOM      6  C   UNL     1       6.135   4.641  16.710  0.00  0.00    +0.000 A 
ENDROOT
BRANCH   1   7
ATOM      7  C   UNL     1       6.859   4.962  14.231  0.00  0.00    +0.000 C 
ATOM      8  O   UNL     1       7.669   5.423  13.434  0.00  0.00    +0.000 OA
BRANCH   7   9
ATOM      9  O   UNL     1       5.818   4.151  13.878  0.00  0.00    +0.000 OA
BRANCH   9  11
ATOM     10  C   UNL     1       4.736   3.434  11.877  0.00  0.00    +0.000 C 
ATOM     11  C   UNL     1       6.013   3.367  12.697  0.00  0.00    +0.000 C 
ENDBRANCH   9  11
ENDBRANCH   7   9
ENDBRANCH   1   7
BRANCH   6  12
ATOM     12  C   UNL     1       5.214   3.463  16.602  0.00  0.00    +0.000 C 
BRANCH  12  13
ATOM     13  N   UNL     1       3.800   3.817  16.686  0.00  0.00    +0.000 N 
ATOM     14  C   UNL     1       3.203   3.516  17.920  0.00  0.00    +0.000 A 
ATOM     15  C   UNL     1       1.851   3.821  18.086  0.00  0.00    +0.000 A 
ATOM     16  C   UNL     1       1.222   3.542  19.301  0.00  0.00    +0.000 A 
ATOM     17  C   UNL     1       1.958   2.961  20.320  0.00  0.00    +0.000 A 
ATOM     18 CL   UNL     1       1.230   2.580  21.825  0.00  0.00    +0.000 Cl
ATOM     19  C   UNL     1       3.297   2.701  20.087  0.00  0.00    +0.000 A 
ATOM     20  N   UNL     1       3.929   2.975  18.919  0.00  0.00    +0.000 NA
ATOM     21  H   UNL     1       3.269   3.359  15.950  0.00  0.00    +0.000 HD
ENDBRANCH  12  13
ENDBRANCH   6  12
TORSDOF 5
ENDMDL
MODEL 3
REMARK VINA RESULT:      -7.1      0.877      1.227
REMARK  Name = 
REMARK  7 active torsions:
REMARK  status: ('A' for Active; 'I' for Inactive)
REMARK    1  A    between atoms: C_1  and  C_2
REMARK    2  A    between atoms: C_2  and  O_3
REMARK    3  A    between atoms: O_3  and  C_4
REMARK    4  A    between atoms: C_4  and  C_6
REMARK    5  A    between atoms: N_8  and  C_9
REMARK    6  A    between atoms: C_11  and  C_12
REMARK    7  A    between atoms: C_12  and  N_13
REMARK                            x       y       z     vdW  Elec       q    Type
REMARK                         _______ _______ _______ _____ _____    ______ ____
ROOT
ATOM      1  C   UNL     1       6.931   4.827  15.380  0.00  0.00    +0.000 A 
ATOM      2  N   UNL     1       7.551   4.777  14.182  0.00  0.00    +0.000 NA
ATOM      3  N   UNL     1       6.650   4.236  13.355  0.00  0.00    +0.000 N 
ATOM      4  C   UNL     1       6.984   4.036  11.965  0.00  0.00    +0.000 C 
ATOM      5  C   UNL     1       5.472   3.926  13.960  0.00  0.00    +0.000 A 
ATOM      6  C   UNL     1       5.609   4.289  15.287  0.00  0.00    +0.000 A 
ENDROOT
BRANCH   1   7
ATOM      7  C   UNL     1       7.575   5.424  16.560  0.00  0.00    +0.000 C 
ATOM      8  O   UNL     1       7.885   4.781  17.559  0.00  0.00    +0.000 OA
BRANCH   7   9
ATOM      9  O   UNL     1       7.694   6.781  16.460  0.00  0.00    +0.000 OA
BRANCH   9  11
ATOM     10  C   UNL     1       8.101   8.635  17.904  0.00  0.00    +0.000 C 
ATOM     11  C   UNL     1       7.120   7.537  17.530  0.00  0.00    +0.000 C 
ENDBRANCH   9  11
ENDBRANCH   7   9
ENDBRANCH   1   7
BRANCH   6  12
ATOM     12  C   UNL     1       4.585   4.160  16.373  0.00  0.00    +0.000 C 
BRANCH  12  13
ATOM     13  N   UNL     1       5.061   3.426  17.542  0.00  0.00    +0.000 N 
ATOM     14  C   UNL     1       4.102   3.271  18.555  0.00  0.00    +0.000 A 
ATOM     15  C   UNL     1       4.474   2.581  19.711  0.00  0.00    +0.000 A 
ATOM     16  C   UNL     1       3.547   2.401  20.739  0.00  0.00    +0.000 A 
ATOM     17  C   UNL     1       2.270   2.917  20.589  0.00  0.00    +0.000 A 
ATOM     18 CL   UNL     1       1.099   2.740  21.829  0.00  0.00    +0.000 Cl
ATOM     19  C   UNL     1       1.970   3.575  19.410  0.00  0.00    +0.000 A 
ATOM     20  N   UNL     1       2.852   3.750  18.396  0.00  0.00    +0.000 NA
ATOM     21  H   UNL     1       5.881   3.875  17.941  0.00  0.00    +0.000 HD
ENDBRANCH  12  13
ENDBRANCH   6  12
TORSDOF 5
ENDMDL
MODEL 4
REMARK VINA RESULT:      -7.0      1.291      1.484
REMARK  Name = 
REMARK  7 active torsions:
REMARK  status: ('A' for Active; 'I' for Inactive)
REMARK    1  A    between atoms: C_1  and  C_2
REMARK    2  A    between atoms: C_2  and  O_3
REMARK    3  A    between atoms: O_3  and  C_4
REMARK    4  A    between atoms: C_4  and  C_6
REMARK    5  A    between atoms: N_8  and  C_9
REMARK    6  A    between atoms: C_11  and  C_12
REMARK    7  A    between atoms: C_12  and  N_13
REMARK                            x       y       z     vdW  Elec       q    Type
REMARK                         _______ _______ _______ _____ _____    ______ ____
ROOT
ATOM      1  C   UNL     1       6.835   5.245  16.839  0.00  0.00    +0.000 A 
ATOM      2  N   UNL     1       7.469   4.837  15.721  0.00  0.00    +0.000 NA
ATOM      3  N   UNL     1       6.502   4.723  14.803  0.00  0.00    +0.000 N 
ATOM      4  C   UNL     1       6.834   4.303  13.462  0.00  0.00    +0.000 C 
ATOM      5  C   UNL     1       5.265   5.034  15.274  0.00  0.00    +0.000 A 
ATOM      6  C   UNL     1       5.430   5.376  16.603  0.00  0.00    +0.000 A 
ENDROOT
BRANCH   1   7
ATOM      7  C   UNL     1       7.567   5.551  18.078  0.00  0.00    +0.000 C 
ATOM      8  O   UNL     1       8.136   4.700  18.755  0.00  0.00    +0.000 OA
BRANCH   7   9
ATOM      9  O   UNL     1       7.458   6.864  18.438  0.00  0.00    +0.000 OA
BRANCH   9  11
ATOM     10  C   UNL     1       8.271   9.082  18.106  0.00  0.00    +0.000 C 
ATOM     11  C   UNL     1       7.782   7.817  17.421  0.00  0.00    +0.000 C 
ENDBRANCH   9  11
ENDBRANCH   7   9
ENDBRANCH   1   7
BRANCH   6  12
ATOM     12  C   UNL     1       4.366   5.806  17.568  0.00  0.00    +0.000 C 
BRANCH  12  13
ATOM     13  N   UNL     1       3.099   5.101  17.393  0.00  0.00    +0.000 N 
ATOM     14  C   UNL     1       2.634   4.459  18.551  0.00  0.00    +0.000 A 
ATOM     15  C   UNL     1       1.428   3.759  18.474  0.00  0.00    +0.000 A 
ATOM     16  C   UNL     1       0.929   3.111  19.605  0.00  0.00    +0.000 A 
ATOM     17  C   UNL     1       1.648   3.176  20.787  0.00  0.00    +0.000 A 
ATOM     18 CL   UNL     1       1.089   2.384  22.202  0.00  0.00    +0.000 Cl
ATOM     19  C   UNL     1       2.826   3.901  20.792  0.00  0.00    +0.000 A 
ATOM     20  N   UNL     1       3.321   4.546  19.708  0.00  0.00    +0.000 NA
ATOM     21  H   UNL     1       3.169   4.412  16.649  0.00  0.00    +0.000 HD
ENDBRANCH  12  13
ENDBRANCH   6  12
TORSDOF 5
ENDMDL
MODEL 5
REMARK VINA RESULT:      -7.0      1.205      1.734
REMARK  Name = 
REMARK  7 active torsions:
REMARK  status: ('A' for Active; 'I' for Inactive)
REMARK    1  A    between atoms: C_1  and  C_2
REMARK    2  A    between atoms: C_2  and  O_3
REMARK    3  A    between atoms: O_3  and  C_4
REMARK    4  A    between atoms: C_4  and  C_6
REMARK    5  A    between atoms: N_8  and  C_9
REMARK    6  A    between atoms: C_11  and  C_12
REMARK    7  A    between atoms: C_12  and  N_13
REMARK                            x       y       z     vdW  Elec       q    Type
REMARK                         _______ _______ _______ _____ _____    ______ ____
ROOT
ATOM      1  C   UNL     1       6.791   5.254  15.445  0.00  0.00    +0.000 A 
ATOM      2  N   UNL     1       7.526   5.301  14.314  0.00  0.00    +0.000 NA
ATOM      3  N   UNL     1       6.857   4.538  13.443  0.00  0.00    +0.000 N 
ATOM      4  C   UNL     1       7.368   4.366  12.103  0.00  0.00    +0.000 C 
ATOM      5  C   UNL     1       5.723   3.991  13.955  0.00  0.00    +0.000 A 
ATOM      6  C   UNL     1       5.639   4.426  15.265  0.00  0.00    +0.000 A 
ENDROOT
BRANCH   1   7
ATOM      7  C   UNL     1       7.161   6.027  16.641  0.00  0.00    +0.000 C 
ATOM      8  O   UNL     1       7.133   7.252  16.690  0.00  0.00    +0.000 OA
BRANCH   7   9
ATOM      9  O   UNL     1       7.629   5.234  17.650  0.00  0.00    +0.000 OA
BRANCH   9  11
ATOM     10  C   UNL     1       8.167   5.557  19.951  0.00  0.00    +0.000 C 
ATOM     11  C   UNL     1       7.041   5.452  18.937  0.00  0.00    +0.000 C 
ENDBRANCH   9  11
ENDBRANCH   7   9
ENDBRANCH   1   7
BRANCH   6  12
ATOM     12  C   UNL     1       4.563   4.108  16.259  0.00  0.00    +0.000 C 
BRANCH  12  13
ATOM     13  N   UNL     1       5.032   3.320  17.396  0.00  0.00    +0.000 N 
ATOM     14  C   UNL     1       4.111   3.227  18.451  0.00  0.00    +0.000 A 
ATOM     15  C   UNL     1       4.479   2.491  19.579  0.00  0.00    +0.000 A 
ATOM     16  C   UNL     1       3.588   2.370  20.648  0.00  0.00    +0.000 A 
ATOM     17  C   UNL     1       2.352   2.990  20.564  0.00  0.00    +0.000 A 
ATOM     18 CL   UNL     1       1.229   2.889  21.856  0.00  0.00    +0.000 Cl
ATOM     19  C   UNL     1       2.052   3.689  19.409  0.00  0.00    +0.000 A 
ATOM     20  N   UNL     1       2.898   3.808  18.356  0.00  0.00    +0.000 NA
ATOM     21  H   UNL     1       5.903   3.695  17.760  0.00  0.00    +0.000 HD
ENDBRANCH  12  13
ENDBRANCH   6  12
TORSDOF 5
ENDMDL
MODEL 6
REMARK VINA RESULT:      -7.0      1.212      1.563
REMARK  Name = 
REMARK  7 active torsions:
REMARK  status: ('A' for Active; 'I' for Inactive)
REMARK    1  A    between atoms: C_1  and  C_2
REMARK    2  A    between atoms: C_2  and  O_3
REMARK    3  A    between atoms: O_3  and  C_4
REMARK    4  A    between atoms: C_4  and  C_6
REMARK    5  A    between atoms: N_8  and  C_9
REMARK    6  A    between atoms: C_11  and  C_12
REMARK    7  A    between atoms: C_12  and  N_13
REMARK                            x       y       z     vdW  Elec       q    Type
REMARK                         _______ _______ _______ _____ _____    ______ ____
ROOT
ATOM      1  C   UNL     1       6.680   5.158  16.103  0.00  0.00    +0.000 A 
ATOM      2  N   UNL     1       7.438   5.654  15.104  0.00  0.00    +0.000 NA
ATOM      3  N   UNL     1       7.151   4.887  14.046  0.00  0.00    +0.000 N 
ATOM      4  C   UNL     1       7.793   5.146  12.779  0.00  0.00    +0.000 C 
ATOM      5  C   UNL     1       6.244   3.910  14.312  0.00  0.00    +0.000 A 
ATOM      6  C   UNL     1       5.910   4.042  15.647  0.00  0.00    +0.000 A 
ENDROOT
BRANCH   1   7
ATOM      7  C   UNL     1       6.659   5.773  17.439  0.00  0.00    +0.000 C 
ATOM      8  O   UNL     1       7.653   5.876  18.152  0.00  0.00    +0.000 OA
BRANCH   7   9
ATOM      9  O   UNL     1       5.399   6.124  17.833  0.00  0.00    +0.000 OA
BRANCH   9  11
ATOM     10  C   UNL     1       3.423   7.454  17.700  0.00  0.00    +0.000 C 
ATOM     11  C   UNL     1       4.784   7.177  17.084  0.00  0.00    +0.000 C 
ENDBRANCH   9  11
ENDBRANCH   7   9
ENDBRANCH   1   7
BRANCH   6  12
ATOM     12  C   UNL     1       4.939   3.207  16.426  0.00  0.00    +0.000 C 
BRANCH  12  13
ATOM     13  N   UNL     1       3.672   3.881  16.695  0.00  0.00    +0.000 N 
ATOM     14  C   UNL     1       3.105   3.565  17.939  0.00  0.00    +0.000 A 
ATOM     15  C   UNL     1       1.891   4.166  18.278  0.00  0.00    +0.000 A 
ATOM     16  C   UNL     1       1.297   3.882  19.509  0.00  0.00    +0.000 A 
ATOM     17  C   UNL     1       1.929   3.002  20.372  0.00  0.00    +0.000 A 
ATOM     18 CL   UNL     1       1.233   2.604  21.888  0.00  0.00    +0.000 Cl
ATOM     19  C   UNL     1       3.136   2.457  19.974  0.00  0.00    +0.000 A 
ATOM     20  N   UNL     1       3.735   2.729  18.789  0.00  0.00    +0.000 NA
ATOM     21  H   UNL     1       2.992   3.674  15.969  0.00  0.00    +0.000 HD
ENDBRANCH  12  13
ENDBRANCH   6  12
TORSDOF 5
ENDMDL
MODEL 7
REMARK VINA RESULT:      -6.9      3.049      3.562
REMARK  Name = 
REMARK  7 active torsions:
REMARK  status: ('A' for Active; 'I' for Inactive)
REMARK    1  A    between atoms: C_1  and  C_2
REMARK    2  A    between atoms: C_2  and  O_3
REMARK    3  A    between atoms: O_3  and  C_4
REMARK    4  A    between atoms: C_4  and  C_6
REMARK    5  A    between atoms: N_8  and  C_9
REMARK    6  A    between atoms: C_11  and  C_12
REMARK    7  A    between atoms: C_12  and  N_13
REMARK                            x       y       z     vdW  Elec       q    Type
REMARK                         _______ _______ _______ _____ _____    ______ ____
ROOT
ATOM      1  C   UNL     1       6.646   5.374  17.396  0.00  0.00    +0.000 A 
ATOM      2  N   UNL     1       7.339   4.861  16.359  0.00  0.00    +0.000 NA
ATOM      3  N   UNL     1       6.419   4.641  15.412  0.00  0.00    +0.000 N 
ATOM      4  C   UNL     1       6.821   4.088  14.140  0.00  0.00    +0.000 C 
ATOM      5  C   UNL     1       5.158   4.982  15.787  0.00  0.00    +0.000 A 
ATOM      6  C   UNL     1       5.254   5.462  17.080  0.00  0.00    +0.000 A 
ENDROOT
BRANCH   1   7
ATOM      7  C   UNL     1       7.313   5.815  18.631  0.00  0.00    +0.000 C 
ATOM      8  O   UNL     1       7.052   5.361  19.740  0.00  0.00    +0.000 OA
BRANCH   7   9
ATOM      9  O   UNL     1       8.179   6.850  18.415  0.00  0.00    +0.000 OA
BRANCH   9  11
ATOM     10  C   UNL     1       8.449   9.207  18.169  0.00  0.00    +0.000 C 
ATOM     11  C   UNL     1       7.627   7.997  17.761  0.00  0.00    +0.000 C 
ENDBRANCH   9  11
ENDBRANCH   7   9
ENDBRANCH   1   7
BRANCH   6  12
ATOM     12  C   UNL     1       4.140   5.976  17.941  0.00  0.00    +0.000 C 
BRANCH  12  13
ATOM     13  N   UNL     1       3.480   7.160  17.398  0.00  0.00    +0.000 N 
ATOM     14  C   UNL     1       2.619   7.804  18.301  0.00  0.00    +0.000 A 
ATOM     15  C   UNL     1       1.946   8.946  17.863  0.00  0.00    +0.000 A 
ATOM     16  C   UNL     1       1.085   9.619  18.733  0.00  0.00    +0.000 A 
ATOM     17  C   UNL     1       0.915   9.132  20.018  0.00  0.00    +0.000 A 
ATOM     18 CL   UNL     1      -0.145   9.909  21.120  0.00  0.00    +0.000 Cl
ATOM     19  C   UNL     1       1.627   8.004  20.386  0.00  0.00    +0.000 A 
ATOM     20  N   UNL     1       2.476   7.344  19.560  0.00  0.00    +0.000 NA
ATOM     21  H   UNL     1       2.953   6.927  16.561  0.00  0.00    +0.000 HD
ENDBRANCH  12  13
ENDBRANCH   6  12
TORSDOF 5
ENDMDL
MODEL 8
REMARK VINA RESULT:      -6.8      0.992      1.164
REMARK  Name = 
REMARK  7 active torsions:
REMARK  status: ('A' for Active; 'I' for Inactive)
REMARK    1  A    between atoms: C_1  and  C_2
REMARK    2  A    between atoms: C_2  and  O_3
REMARK    3  A    between atoms: O_3  and  C_4
REMARK    4  A    between atoms: C_4  and  C_6
REMARK    5  A    between atoms: N_8  and  C_9
REMARK    6  A    between atoms: C_11  and  C_12
REMARK    7  A    between atoms: C_12  and  N_13
REMARK                            x       y       z     vdW  Elec       q    Type
REMARK                         _______ _______ _______ _____ _____    ______ ____
ROOT
ATOM      1  C   UNL     1       6.302   5.487  15.525  0.00  0.00    +0.000 A 
ATOM      2  N   UNL     1       6.879   5.658  14.317  0.00  0.00    +0.000 NA
ATOM      3  N   UNL     1       6.692   4.495  13.683  0.00  0.00    +0.000 N 
ATOM      4  C   UNL     1       7.189   4.326  12.337  0.00  0.00    +0.000 C 
ATOM      5  C   UNL     1       6.025   3.572  14.424  0.00  0.00    +0.000 A 
ATOM      6  C   UNL     1       5.753   4.172  15.640  0.00  0.00    +0.000 A 
ENDROOT
BRANCH   1   7
ATOM      7  C   UNL     1       6.237   6.575  16.513  0.00  0.00    +0.000 C 
ATOM      8  O   UNL     1       5.185   7.007  16.974  0.00  0.00    +0.000 OA
BRANCH   7   9
ATOM      9  O   UNL     1       7.464   7.111  16.781  0.00  0.00    +0.000 OA
BRANCH   9  11
ATOM     10  C   UNL     1       7.794   5.856  18.782  0.00  0.00    +0.000 C 
ATOM     11  C   UNL     1       7.795   7.244  18.167  0.00  0.00    +0.000 C 
ENDBRANCH   9  11
ENDBRANCH   7   9
ENDBRANCH   1   7
BRANCH   6  12
ATOM     12  C   UNL     1       5.025   3.571  16.805  0.00  0.00    +0.000 C 
BRANCH  12  13
ATOM     13  N   UNL     1       3.695   4.136  17.017  0.00  0.00    +0.000 N 
ATOM     14  C   UNL     1       3.093   3.752  18.225  0.00  0.00    +0.000 A 
ATOM     15  C   UNL     1       1.818   4.246  18.508  0.00  0.00    +0.000 A 
ATOM     16  C   UNL     1       1.187   3.891  19.702  0.00  0.00    +0.000 A 
ATOM     17  C   UNL     1       1.843   3.048  20.583  0.00  0.00    +0.000 A 
ATOM     18 CL   UNL     1       1.106   2.566  22.054  0.00  0.00    +0.000 Cl
ATOM     19  C   UNL     1       3.110   2.610  20.241  0.00  0.00    +0.000 A 
ATOM     20  N   UNL     1       3.745   2.953  19.093  0.00  0.00    +0.000 NA
ATOM     21  H   UNL     1       3.072   3.890  16.253  0.00  0.00    +0.000 HD
ENDBRANCH  12  13
ENDBRANCH   6  12
TORSDOF 5
ENDMDL
MODEL 9
REMARK VINA RESULT:      -6.7      4.334      6.248
REMARK  Name = 
REMARK  7 active torsions:
REMARK  status: ('A' for Active; 'I' for Inactive)
REMARK    1  A    between atoms: C_1  and  C_2
REMARK    2  A    between atoms: C_2  and  O_3
REMARK    3  A    between atoms: O_3  and  C_4
REMARK    4  A    between atoms: C_4  and  C_6
REMARK    5  A    between atoms: N_8  and  C_9
REMARK    6  A    between atoms: C_11  and  C_12
REMARK    7  A    between atoms: C_12  and  N_13
REMARK                            x       y       z     vdW  Elec       q    Type
REMARK                         _______ _______ _______ _____ _____    ______ ____
ROOT
ATOM      1  C   UNL     1       3.121   4.905  17.819  0.00  0.00    +0.000 A 
ATOM      2  N   UNL     1       4.179   4.203  17.361  0.00  0.00    +0.000 NA
ATOM      3  N   UNL     1       5.172   5.096  17.286  0.00  0.00    +0.000 N 
ATOM      4  C   UNL     1       6.477   4.677  16.829  0.00  0.00    +0.000 C 
ATOM      5  C   UNL     1       4.809   6.349  17.669  0.00  0.00    +0.000 A 
ATOM      6  C   UNL     1       3.475   6.277  18.021  0.00  0.00    +0.000 A 
ENDROOT
BRANCH   1   7
ATOM      7  C   UNL     1       1.829   4.262  18.104  0.00  0.00    +0.000 C 
ATOM      8  O   UNL     1       1.019   3.959  17.234  0.00  0.00    +0.000 OA
BRANCH   7   9
ATOM      9  O   UNL     1       1.594   4.133  19.443  0.00  0.00    +0.000 OA
BRANCH   9  11
ATOM     10  C   UNL     1       1.401   2.820  21.425  0.00  0.00    +0.000 C 
ATOM     11  C   UNL     1       1.995   2.891  20.029  0.00  0.00    +0.000 C 
ENDBRANCH   9  11
ENDBRANCH   7   9
ENDBRANCH   1   7
BRANCH   6  12
ATOM     12  C   UNL     1       2.607   7.392  18.522  0.00  0.00    +0.000 C 
BRANCH  12  13
ATOM     13  N   UNL     1       2.259   7.272  19.935  0.00  0.00    +0.000 N 
ATOM     14  C   UNL     1       1.503   8.344  20.435  0.00  0.00    +0.000 A 
ATOM     15  C   UNL     1       1.127   8.312  21.779  0.00  0.00    +0.000 A 
ATOM     16  C   UNL     1       0.371   9.357  22.312  0.00  0.00    +0.000 A 
ATOM     17  C   UNL     1       0.010  10.411  21.490  0.00  0.00    +0.000 A 
ATOM     18 CL   UNL     1      -0.903  11.729  22.099  0.00  0.00    +0.000 Cl
ATOM     19  C   UNL     1       0.406  10.368  20.165  0.00  0.00    +0.000 A 
ATOM     20  N   UNL     1       1.130   9.357  19.626  0.00  0.00    +0.000 NA
ATOM     21  H   UNL     1       3.095   7.174  20.505  0.00  0.00    +0.000 HD
ENDBRANCH  12  13
ENDBRANCH   6  12
TORSDOF 5
ENDMDL
