MODEL 1
REMARK VINA RESULT:      -8.2      0.000      0.000
REMARK  Name = 
REMARK  13 active torsions:
REMARK  status: ('A' for Active; 'I' for Inactive)
REMARK    1  A    between atoms: C_1  and  C_2
REMARK    2  A    between atoms: C_2  and  C_3
REMARK    3  A    between atoms: C_2  and  C_18
REMARK    4  A    between atoms: C_2  and  C_21
REMARK    5  A    between atoms: C_3  and  C_4
REMARK    6  A    between atoms: C_4  and  C_5
REMARK    7  A    between atoms: C_5  and  C_6
REMARK    8  A    between atoms: C_6  and  N_7
REMARK    9  A    between atoms: C_16  and  O_17
REMARK   10  A    between atoms: C_18  and  O_20
REMARK   11  A    between atoms: N_23  and  C_24
REMARK   12  A    between atoms: C_24  and  C_25
REMARK   13  A    between atoms: C_25  and  C_26
REMARK                            x       y       z     vdW  Elec       q    Type
REMARK                         _______ _______ _______ _____ _____    ______ ____
ROOT
ATOM      1  C   UNL     1       6.687   5.296  18.963  0.00  0.00    +0.000 C 
ATOM      2  C   UNL     1       6.670   5.768  17.498  0.00  0.00    +0.000 C 
ENDROOT
BRANCH   2   3
ATOM      3  C   UNL     1       5.257   6.356  17.241  0.00  0.00    +0.000 C 
ATOM      4  O   UNL     1       4.930   6.805  16.144  0.00  0.00    +0.000 OA
ATOM      5  N   UNL     1       4.395   6.363  18.320  0.00  0.00    +0.000 N 
ATOM      6  H   UNL     1       4.832   6.405  19.243  0.00  0.00    +0.000 HD
BRANCH   5   7
ATOM      7  C   UNL     1       3.060   6.933  18.216  0.00  0.00    +0.000 C 
BRANCH   7   8
ATOM      8  C   UNL     1       2.212   6.686  19.469  0.00  0.00    +0.000 C 
BRANCH   8   9
ATOM      9  C   UNL     1       1.978   5.222  19.731  0.00  0.00    +0.000 A 
ATOM     10  C   UNL     1       1.563   4.378  18.690  0.00  0.00    +0.000 A 
ATOM     11  C   UNL     1       1.368   3.017  18.921  0.00  0.00    +0.000 A 
ATOM     12  C   UNL     1       1.578   2.489  20.194  0.00  0.00    +0.000 A 
ATOM     13  C   UNL     1       1.975   3.323  21.237  0.00  0.00    +0.000 A 
ATOM     14  C   UNL     1       2.174   4.686  21.008  0.00  0.00    +0.000 A 
ENDBRANCH   8   9
ENDBRANCH   7   8
ENDBRANCH   5   7
ENDBRANCH   2   3
BRANCH   2  15
ATOM     15  C   UNL     1       6.879   4.650  16.483  0.00  0.00    +0.000 C 
ATOM     16  O   UNL     1       7.690   4.757  15.564  0.00  0.00    +0.000 OA
BRANCH  15  17
ATOM     17  O   UNL     1       6.194   3.506  16.658  0.00  0.00    +0.000 OA
ATOM     18  H   UNL     1       6.609   2.676  16.397  0.00  0.00    +0.000 HD
ENDBRANCH  15  17
ENDBRANCH   2  15
BRANCH   2  19
ATOM     19  C   UNL     1       7.725   6.904  17.286  0.00  0.00    +0.000 C 
BRANCH  19  20
ATOM     20  C   UNL     1       7.376   8.336  17.723  0.00  0.00    +0.000 C 
BRANCH  20  21
ATOM     21  C   UNL     1       8.510   9.211  18.269  0.00  0.00    +0.000 C 
BRANCH  21  22
ATOM     22  C   UNL     1       8.465  10.729  17.939  0.00  0.00    +0.000 C 
BRANCH  22  23
ATOM     23  N   UNL     1       9.586  11.489  18.526  0.00  0.00    +0.000 N 
ATOM     24  C   UNL     1       9.544  11.901  19.841  0.00  0.00    +0.000 A 
ATOM     25  N   UNL     1       9.506  13.217  19.890  0.00  0.00    +0.000 NA
ATOM     26  C   UNL     1       9.888  13.630  18.626  0.00  0.00    +0.000 A 
ATOM     27  C   UNL     1      10.269  12.517  17.905  0.00  0.00    +0.000 A 
ATOM     28  N   UNL     1      11.324  12.365  17.058  0.00  0.00    +0.000 N 
ATOM     29  C   UNL     1      12.330  13.328  17.025  0.00  0.00    +0.000 C 
ATOM     30  N   UNL     1      12.312  14.613  17.080  0.00  0.00    +0.000 NA
ATOM     31  C   UNL     1      10.998  15.270  17.034  0.00  0.00    +0.000 C 
ATOM     32  C   UNL     1      10.095  15.067  18.269  0.00  0.00    +0.000 C 
ATOM     33  H   UNL     1      11.699  11.423  16.991  0.00  0.00    +0.000 HD
BRANCH  32  34
ATOM     34  O   UNL     1       8.829  15.680  17.961  0.00  0.00    +0.000 OA
ATOM     35  H   UNL     1       8.874  15.955  17.029  0.00  0.00    +0.000 HD
ENDBRANCH  32  34
ENDBRANCH  22  23
ENDBRANCH  21  22
ENDBRANCH  20  21
ENDBRANCH  19  20
ENDBRANCH   2  19
TORSDOF 12
ENDMDL
MODEL 2
REMARK VINA RESULT:      -8.2      0.668      1.088
REMARK  Name = 
REMARK  13 active torsions:
REMARK  status: ('A' for Active; 'I' for Inactive)
REMARK    1  A    between atoms: C_1  and  C_2
REMARK    2  A    between atoms: C_2  and  C_3
REMARK    3  A    between atoms: C_2  and  C_18
REMARK    4  A    between atoms: C_2  and  C_21
REMARK    5  A    between atoms: C_3  and  C_4
REMARK    6  A    between atoms: C_4  and  C_5
REMARK    7  A    between atoms: C_5  and  C_6
REMARK    8  A    between atoms: C_6  and  N_7
REMARK    9  A    between atoms: C_16  and  O_17
REMARK   10  A    between atoms: C_18  and  O_20
REMARK   11  A    between atoms: N_23  and  C_24
REMARK   12  A    between atoms: C_24  and  C_25
REMARK   13  A    between atoms: C_25  and  C_26
REMARK                            x       y       z     vdW  Elec       q    Type
REMARK                         _______ _______ _______ _____ _____    ______ ____
ROOT
ATOM      1  C   UNL     1       6.711   5.485  19.037  0.00  0.00    +0.000 C 
ATOM      2  C   UNL     1       6.616   5.818  17.536  0.00  0.00    +0.000 C 
ENDROOT
BRANCH   2   3
ATOM      3  C   UNL     1       5.171   6.326  17.289  0.00  0.00    +0.000 C 
ATOM      4  O   UNL     1       4.863   6.936  16.266  0.00  0.00    +0.000 OA
ATOM      5  N   UNL     1       4.255   6.070  18.290  0.00  0.00    +0.000 N 
ATOM      6  H   UNL     1       4.635   5.981  19.234  0.00  0.00    +0.000 HD
BRANCH   5   7
ATOM      7  C   UNL     1       2.881   6.540  18.194  0.00  0.00    +0.000 C 
BRANCH   7   8
ATOM      8  C   UNL     1       2.131   6.450  19.528  0.00  0.00    +0.000 C 
BRANCH   8   9
ATOM      9  C   UNL     1       1.910   5.028  19.974  0.00  0.00    +0.000 A 
ATOM     10  C   UNL     1       2.317   4.620  21.252  0.00  0.00    +0.000 A 
ATOM     11  C   UNL     1       2.092   3.312  21.679  0.00  0.00    +0.000 A 
ATOM     12  C   UNL     1       1.469   2.399  20.831  0.00  0.00    +0.000 A 
ATOM     13  C   UNL     1       1.076   2.792  19.553  0.00  0.00    +0.000 A 
ATOM     14  C   UNL     1       1.296   4.101  19.124  0.00  0.00    +0.000 A 
ENDBRANCH   8   9
ENDBRANCH   7   8
ENDBRANCH   5   7
ENDBRANCH   2   3
BRANCH   2  15
ATOM     15  C   UNL     1       6.830   4.619  16.621  0.00  0.00    +0.000 C 
ATOM     16  O   UNL     1       7.798   4.551  15.863  0.00  0.00    +0.000 OA
BRANCH  15  17
ATOM     17  O   UNL     1       5.961   3.597  16.709  0.00  0.00    +0.000 OA
ATOM     18  H   UNL     1       6.211   2.821  17.226  0.00  0.00    +0.000 HD
ENDBRANCH  15  17
ENDBRANCH   2  15
BRANCH   2  19
ATOM     19  C   UNL     1       7.614   6.967  17.176  0.00  0.00    +0.000 C 
BRANCH  19  20
ATOM     20  C   UNL     1       8.024   7.969  18.268  0.00  0.00    +0.000 C 
BRANCH  20  21
ATOM     21  C   UNL     1       8.624   9.306  17.821  0.00  0.00    +0.000 C 
BRANCH  21  22
ATOM     22  C   UNL     1       8.590  10.482  18.835  0.00  0.00    +0.000 C 
BRANCH  22  23
ATOM     23  N   UNL     1       9.910  11.100  19.062  0.00  0.00    +0.000 N 
ATOM     24  C   UNL     1      10.383  11.299  20.341  0.00  0.00    +0.000 A 
ATOM     25  N   UNL     1      10.485  12.591  20.578  0.00  0.00    +0.000 NA
ATOM     26  C   UNL     1      10.421  13.186  19.330  0.00  0.00    +0.000 A 
ATOM     27  C   UNL     1      10.414  12.188  18.377  0.00  0.00    +0.000 A 
ATOM     28  N   UNL     1      11.074  12.137  17.187  0.00  0.00    +0.000 N 
ATOM     29  C   UNL     1      12.083  13.057  16.914  0.00  0.00    +0.000 C 
ATOM     30  N   UNL     1      12.203  14.317  17.144  0.00  0.00    +0.000 NA
ATOM     31  C   UNL     1      11.027  15.018  17.678  0.00  0.00    +0.000 C 
ATOM     32  C   UNL     1      10.616  14.653  19.119  0.00  0.00    +0.000 C 
ATOM     33  H   UNL     1      11.312  11.204  16.860  0.00  0.00    +0.000 HD
BRANCH  32  34
ATOM     34  O   UNL     1       9.385  15.351  19.387  0.00  0.00    +0.000 OA
ATOM     35  H   UNL     1       9.483  16.241  19.007  0.00  0.00    +0.000 HD
ENDBRANCH  32  34
ENDBRANCH  22  23
ENDBRANCH  21  22
ENDBRANCH  20  21
ENDBRANCH  19  20
ENDBRANCH   2  19
TORSDOF 12
ENDMDL
MODEL 3
REMARK VINA RESULT:      -8.1      5.425      7.125
REMARK  Name = 
REMARK  13 active torsions:
REMARK  status: ('A' for Active; 'I' for Inactive)
REMARK    1  A    between atoms: C_1  and  C_2
REMARK    2  A    between atoms: C_2  and  C_3
REMARK    3  A    between atoms: C_2  and  C_18
REMARK    4  A    between atoms: C_2  and  C_21
REMARK    5  A    between atoms: C_3  and  C_4
REMARK    6  A    between atoms: C_4  and  C_5
REMARK    7  A    between atoms: C_5  and  C_6
REMARK    8  A    between atoms: C_6  and  N_7
REMARK    9  A    between atoms: C_16  and  O_17
REMARK   10  A    between atoms: C_18  and  O_20
REMARK   11  A    between atoms: N_23  and  C_24
REMARK   12  A    between atoms: C_24  and  C_25
REMARK   13  A    between atoms: C_25  and  C_26
REMARK                            x       y       z     vdW  Elec       q    Type
REMARK                         _______ _______ _______ _____ _____    ______ ____
ROOT
ATOM      1  C   UNL     1       7.348   6.013  18.483  0.00  0.00    +0.000 C 
ATOM      2  C   UNL     1       6.276   5.687  17.426  0.00  0.00    +0.000 C 
ENDROOT
BRANCH   2   3
ATOM      3  C   UNL     1       5.516   4.437  17.942  0.00  0.00    +0.000 C 
ATOM      4  O   UNL     1       5.539   4.105  19.126  0.00  0.00    +0.000 OA
ATOM      5  N   UNL     1       4.827   3.708  16.993  0.00  0.00    +0.000 N 
ATOM      6  H   UNL     1       5.191   3.756  16.039  0.00  0.00    +0.000 HD
BRANCH   5   7
ATOM      7  C   UNL     1       4.117   2.488  17.346  0.00  0.00    +0.000 C 
BRANCH   7   8
ATOM      8  C   UNL     1       2.608   2.705  17.500  0.00  0.00    +0.000 C 
BRANCH   8   9
ATOM      9  C   UNL     1       2.213   3.055  18.911  0.00  0.00    +0.000 A 
ATOM     10  C   UNL     1       1.631   4.300  19.190  0.00  0.00    +0.000 A 
ATOM     11  C   UNL     1       1.241   4.619  20.490  0.00  0.00    +0.000 A 
ATOM     12  C   UNL     1       1.437   3.704  21.522  0.00  0.00    +0.000 A 
ATOM     13  C   UNL     1       2.029   2.471  21.255  0.00  0.00    +0.000 A 
ATOM     14  C   UNL     1       2.418   2.146  19.955  0.00  0.00    +0.000 A 
ENDBRANCH   8   9
ENDBRANCH   7   8
ENDBRANCH   5   7
ENDBRANCH   2   3
BRANCH   2  15
ATOM     15  C   UNL     1       6.843   5.332  16.057  0.00  0.00    +0.000 C 
ATOM     16  O   UNL     1       7.827   4.603  15.936  0.00  0.00    +0.000 OA
BRANCH  15  17
ATOM     17  O   UNL     1       6.194   5.786  14.970  0.00  0.00    +0.000 OA
ATOM     18  H   UNL     1       6.189   6.735  14.799  0.00  0.00    +0.000 HD
ENDBRANCH  15  17
ENDBRANCH   2  15
BRANCH   2  19
ATOM     19  C   UNL     1       5.260   6.871  17.308  0.00  0.00    +0.000 C 
BRANCH  19  20
ATOM     20  C   UNL     1       3.844   6.697  17.878  0.00  0.00    +0.000 C 
BRANCH  20  21
ATOM     21  C   UNL     1       2.782   7.728  17.479  0.00  0.00    +0.000 C 
BRANCH  21  22
ATOM     22  C   UNL     1       2.052   8.485  18.623  0.00  0.00    +0.000 C 
BRANCH  22  23
ATOM     23  N   UNL     1       1.440   9.755  18.189  0.00  0.00    +0.000 N 
ATOM     24  C   UNL     1       2.222  10.864  17.943  0.00  0.00    +0.000 A 
ATOM     25  N   UNL     1       1.940  11.805  18.821  0.00  0.00    +0.000 NA
ATOM     26  C   UNL     1       0.736  11.418  19.382  0.00  0.00    +0.000 A 
ATOM     27  C   UNL     1       0.283  10.305  18.704  0.00  0.00    +0.000 A 
ATOM     28  N   UNL     1      -0.982  10.006  18.299  0.00  0.00    +0.000 N 
ATOM     29  C   UNL     1      -1.969  10.988  18.327  0.00  0.00    +0.000 C 
ATOM     30  N   UNL     1      -2.253  11.918  19.169  0.00  0.00    +0.000 NA
ATOM     31  C   UNL     1      -1.517  11.922  20.441  0.00  0.00    +0.000 C 
ATOM     32  C   UNL     1      -0.016  12.267  20.356  0.00  0.00    +0.000 C 
ATOM     33  H   UNL     1      -1.049   9.425  17.467  0.00  0.00    +0.000 HD
BRANCH  32  34
ATOM     34  O   UNL     1       0.526  12.088  21.678  0.00  0.00    +0.000 OA
ATOM     35  H   UNL     1       1.475  12.290  21.618  0.00  0.00    +0.000 HD
ENDBRANCH  32  34
ENDBRANCH  22  23
ENDBRANCH  21  22
ENDBRANCH  20  21
ENDBRANCH  19  20
ENDBRANCH   2  19
TORSDOF 12
ENDMDL
MODEL 4
REMARK VINA RESULT:      -8.0      1.830      3.212
REMARK  Name = 
REMARK  13 active torsions:
REMARK  status: ('A' for Active; 'I' for Inactive)
REMARK    1  A    between atoms: C_1  and  C_2
REMARK    2  A    between atoms: C_2  and  C_3
REMARK    3  A    between atoms: C_2  and  C_18
REMARK    4  A    between atoms: C_2  and  C_21
REMARK    5  A    between atoms: C_3  and  C_4
REMARK    6  A    between atoms: C_4  and  C_5
REMARK    7  A    between atoms: C_5  and  C_6
REMARK    8  A    between atoms: C_6  and  N_7
REMARK    9  A    between atoms: C_16  and  O_17
REMARK   10  A    between atoms: C_18  and  O_20
REMARK   11  A    between atoms: N_23  and  C_24
REMARK   12  A    between atoms: C_24  and  C_25
REMARK   13  A    between atoms: C_25  and  C_26
REMARK                            x       y       z     vdW  Elec       q    Type
REMARK                         _______ _______ _______ _____ _____    ______ ____
ROOT
ATOM      1  C   UNL     1       6.895   5.553  19.243  0.00  0.00    +0.000 C 
ATOM      2  C   UNL     1       6.598   5.774  17.748  0.00  0.00    +0.000 C 
ENDROOT
BRANCH   2   3
ATOM      3  C   UNL     1       5.074   6.046  17.638  0.00  0.00    +0.000 C 
ATOM      4  O   UNL     1       4.600   6.732  16.734  0.00  0.00    +0.000 OA
ATOM      5  N   UNL     1       4.283   5.489  18.624  0.00  0.00    +0.000 N 
ATOM      6  H   UNL     1       4.734   5.335  19.527  0.00  0.00    +0.000 HD
BRANCH   5   7
ATOM      7  C   UNL     1       2.845   5.715  18.656  0.00  0.00    +0.000 C 
BRANCH   7   8
ATOM      8  C   UNL     1       2.396   6.493  19.897  0.00  0.00    +0.000 C 
BRANCH   8   9
ATOM      9  C   UNL     1       1.882   7.869  19.564  0.00  0.00    +0.000 A 
ATOM     10  C   UNL     1       1.195   8.617  20.530  0.00  0.00    +0.000 A 
ATOM     11  C   UNL     1       0.739   9.902  20.235  0.00  0.00    +0.000 A 
ATOM     12  C   UNL     1       0.959  10.446  18.971  0.00  0.00    +0.000 A 
ATOM     13  C   UNL     1       1.628   9.703  18.000  0.00  0.00    +0.000 A 
ATOM     14  C   UNL     1       2.088   8.418  18.293  0.00  0.00    +0.000 A 
ENDBRANCH   8   9
ENDBRANCH   7   8
ENDBRANCH   5   7
ENDBRANCH   2   3
BRANCH   2  15
ATOM     15  C   UNL     1       6.899   4.564  16.871  0.00  0.00    +0.000 C 
ATOM     16  O   UNL     1       8.029   4.350  16.435  0.00  0.00    +0.000 OA
BRANCH  15  17
ATOM     17  O   UNL     1       5.902   3.693  16.637  0.00  0.00    +0.000 OA
ATOM     18  H   UNL     1       5.751   2.982  17.271  0.00  0.00    +0.000 HD
ENDBRANCH  15  17
ENDBRANCH   2  15
BRANCH   2  19
ATOM     19  C   UNL     1       7.365   7.033  17.226  0.00  0.00    +0.000 C 
BRANCH  19  20
ATOM     20  C   UNL     1       8.112   7.921  18.234  0.00  0.00    +0.000 C 
BRANCH  20  21
ATOM     21  C   UNL     1       8.183   9.424  17.945  0.00  0.00    +0.000 C 
BRANCH  21  22
ATOM     22  C   UNL     1       9.188  10.268  18.778  0.00  0.00    +0.000 C 
BRANCH  22  23
ATOM     23  N   UNL     1       9.594  11.521  18.113  0.00  0.00    +0.000 N 
ATOM     24  C   UNL     1      10.911  11.739  17.767  0.00  0.00    +0.000 A 
ATOM     25  N   UNL     1      11.391  12.743  18.470  0.00  0.00    +0.000 NA
ATOM     26  C   UNL     1      10.276  13.380  18.987  0.00  0.00    +0.000 A 
ATOM     27  C   UNL     1       9.153  12.786  18.448  0.00  0.00    +0.000 A 
ATOM     28  N   UNL     1       8.010  13.370  17.994  0.00  0.00    +0.000 N 
ATOM     29  C   UNL     1       7.967  14.749  17.799  0.00  0.00    +0.000 C 
ATOM     30  N   UNL     1       8.436  15.742  18.469  0.00  0.00    +0.000 NA
ATOM     31  C   UNL     1       9.031  15.448  19.780  0.00  0.00    +0.000 C 
ATOM     32  C   UNL     1      10.356  14.655  19.762  0.00  0.00    +0.000 C 
ATOM     33  H   UNL     1       7.526  12.867  17.256  0.00  0.00    +0.000 HD
BRANCH  32  34
ATOM     34  O   UNL     1      10.687  14.372  21.135  0.00  0.00    +0.000 OA
ATOM     35  H   UNL     1      10.232  15.042  21.673  0.00  0.00    +0.000 HD
ENDBRANCH  32  34
ENDBRANCH  22  23
ENDBRANCH  21  22
ENDBRANCH  20  21
ENDBRANCH  19  20
ENDBRANCH   2  19
TORSDOF 12
ENDMDL
MODEL 5
REMARK VINA RESULT:      -8.0      3.692      8.542
REMARK  Name = 
REMARK  13 active torsions:
REMARK  status: ('A' for Active; 'I' for Inactive)
REMARK    1  A    between atoms: C_1  and  C_2
REMARK    2  A    between atoms: C_2  and  C_3
REMARK    3  A    between atoms: C_2  and  C_18
REMARK    4  A    between atoms: C_2  and  C_21
REMARK    5  A    between atoms: C_3  and  C_4
REMARK    6  A    between atoms: C_4  and  C_5
REMARK    7  A    between atoms: C_5  and  C_6
REMARK    8  A    between atoms: C_6  and  N_7
REMARK    9  A    between atoms: C_16  and  O_17
REMARK   10  A    between atoms: C_18  and  O_20
REMARK   11  A    between atoms: N_23  and  C_24
REMARK   12  A    between atoms: C_24  and  C_25
REMARK   13  A    between atoms: C_25  and  C_26
REMARK                            x       y       z     vdW  Elec       q    Type
REMARK                         _______ _______ _______ _____ _____    ______ ____
ROOT
ATOM      1  C   UNL     1       5.215   6.794  15.926  0.00  0.00    +0.000 C 
ATOM      2  C   UNL     1       5.736   5.708  16.886  0.00  0.00    +0.000 C 
ENDROOT
BRANCH   2   3
ATOM      3  C   UNL     1       6.815   6.386  17.772  0.00  0.00    +0.000 C 
ATOM      4  O   UNL     1       7.216   5.872  18.815  0.00  0.00    +0.000 OA
ATOM      5  N   UNL     1       7.286   7.607  17.333  0.00  0.00    +0.000 N 
ATOM      6  H   UNL     1       6.641   8.158  16.762  0.00  0.00    +0.000 HD
BRANCH   5   7
ATOM      7  C   UNL     1       8.262   8.362  18.103  0.00  0.00    +0.000 C 
BRANCH   7   8
ATOM      8  C   UNL     1       8.245   9.860  17.777  0.00  0.00    +0.000 C 
BRANCH   8   9
ATOM      9  C   UNL     1       9.317  10.625  18.508  0.00  0.00    +0.000 A 
ATOM     10  C   UNL     1       9.274  10.736  19.905  0.00  0.00    +0.000 A 
ATOM     11  C   UNL     1      10.277  11.421  20.589  0.00  0.00    +0.000 A 
ATOM     12  C   UNL     1      11.326  12.008  19.883  0.00  0.00    +0.000 A 
ATOM     13  C   UNL     1      11.367  11.916  18.493  0.00  0.00    +0.000 A 
ATOM     14  C   UNL     1      10.366  11.228  17.806  0.00  0.00    +0.000 A 
ENDBRANCH   8   9
ENDBRANCH   7   8
ENDBRANCH   5   7
ENDBRANCH   2   3
BRANCH   2  15
ATOM     15  C   UNL     1       6.408   4.533  16.187  0.00  0.00    +0.000 C 
ATOM     16  O   UNL     1       7.510   4.645  15.652  0.00  0.00    +0.000 OA
BRANCH  15  17
ATOM     17  O   UNL     1       5.787   3.340  16.225  0.00  0.00    +0.000 OA
ATOM     18  H   UNL     1       6.312   2.552  16.405  0.00  0.00    +0.000 HD
ENDBRANCH  15  17
ENDBRANCH   2  15
BRANCH   2  19
ATOM     19  C   UNL     1       4.579   5.207  17.811  0.00  0.00    +0.000 C 
BRANCH  19  20
ATOM     20  C   UNL     1       3.810   6.230  18.664  0.00  0.00    +0.000 C 
BRANCH  20  21
ATOM     21  C   UNL     1       2.369   6.557  18.259  0.00  0.00    +0.000 C 
BRANCH  21  22
ATOM     22  C   UNL     1       2.092   7.970  17.675  0.00  0.00    +0.000 C 
BRANCH  22  23
ATOM     23  N   UNL     1       1.939   9.012  18.709  0.00  0.00    +0.000 N 
ATOM     24  C   UNL     1       1.501   8.687  19.975  0.00  0.00    +0.000 A 
ATOM     25  N   UNL     1       0.328   9.247  20.192  0.00  0.00    +0.000 NA
ATOM     26  C   UNL     1       0.206  10.209  19.205  0.00  0.00    +0.000 A 
ATOM     27  C   UNL     1       1.396  10.266  18.509  0.00  0.00    +0.000 A 
ATOM     28  N   UNL     1       2.074  11.358  18.059  0.00  0.00    +0.000 N 
ATOM     29  C   UNL     1       1.716  12.628  18.506  0.00  0.00    +0.000 C 
ATOM     30  N   UNL     1       0.580  13.187  18.732  0.00  0.00    +0.000 NA
ATOM     31  C   UNL     1      -0.626  12.446  18.335  0.00  0.00    +0.000 C 
ATOM     32  C   UNL     1      -0.937  11.171  19.146  0.00  0.00    +0.000 C 
ATOM     33  H   UNL     1       3.082  11.249  17.993  0.00  0.00    +0.000 HD
BRANCH  32  34
ATOM     34  O   UNL     1      -2.069  10.544  18.514  0.00  0.00    +0.000 OA
ATOM     35  H   UNL     1      -2.267  11.068  17.719  0.00  0.00    +0.000 HD
ENDBRANCH  32  34
ENDBRANCH  22  23
ENDBRANCH  21  22
ENDBRANCH  20  21
ENDBRANCH  19  20
ENDBRANCH   2  19
TORSDOF 12
ENDMDL
MODEL 6
REMARK VINA RESULT:      -8.0      5.505      6.883
REMARK  Name = 
REMARK  13 active torsions:
REMARK  status: ('A' for Active; 'I' for Inactive)
REMARK    1  A    between atoms: C_1  and  C_2
REMARK    2  A    between atoms: C_2  and  C_3
REMARK    3  A    between atoms: C_2  and  C_18
REMARK    4  A    between atoms: C_2  and  C_21
REMARK    5  A    between atoms: C_3  and  C_4
REMARK    6  A    between atoms: C_4  and  C_5
REMARK    7  A    between atoms: C_5  and  C_6
REMARK    8  A    between atoms: C_6  and  N_7
REMARK    9  A    between atoms: C_16  and  O_17
REMARK   10  A    between atoms: C_18  and  O_20
REMARK   11  A    between atoms: N_23  and  C_24
REMARK   12  A    between atoms: C_24  and  C_25
REMARK   13  A    between atoms: C_25  and  C_26
REMARK                            x       y       z     vdW  Elec       q    Type
REMARK                         _______ _______ _______ _____ _____    ______ ____
ROOT
ATOM      1  C   UNL     1       7.693   5.905  18.017  0.00  0.00    +0.000 C 
ATOM      2  C   UNL     1       6.381   5.757  17.225  0.00  0.00    +0.000 C 
ENDROOT
BRANCH   2   3
ATOM      3  C   UNL     1       5.651   4.520  17.811  0.00  0.00    +0.000 C 
ATOM      4  O   UNL     1       5.685   4.253  19.011  0.00  0.00    +0.000 OA
ATOM      5  N   UNL     1       4.975   3.725  16.905  0.00  0.00    +0.000 N 
ATOM      6  H   UNL     1       5.334   3.730  15.949  0.00  0.00    +0.000 HD
BRANCH   5   7
ATOM      7  C   UNL     1       4.293   2.511  17.328  0.00  0.00    +0.000 C 
BRANCH   7   8
ATOM      8  C   UNL     1       2.779   2.703  17.473  0.00  0.00    +0.000 C 
BRANCH   8   9
ATOM      9  C   UNL     1       2.366   2.992  18.892  0.00  0.00    +0.000 A 
ATOM     10  C   UNL     1       3.064   2.412  19.961  0.00  0.00    +0.000 A 
ATOM     11  C   UNL     1       2.701   2.697  21.277  0.00  0.00    +0.000 A 
ATOM     12  C   UNL     1       1.634   3.555  21.536  0.00  0.00    +0.000 A 
ATOM     13  C   UNL     1       0.925   4.123  20.479  0.00  0.00    +0.000 A 
ATOM     14  C   UNL     1       1.288   3.843  19.161  0.00  0.00    +0.000 A 
ENDBRANCH   8   9
ENDBRANCH   7   8
ENDBRANCH   5   7
ENDBRANCH   2   3
BRANCH   2  15
ATOM     15  C   UNL     1       6.582   5.493  15.737  0.00  0.00    +0.000 C 
ATOM     16  O   UNL     1       5.824   5.966  14.890  0.00  0.00    +0.000 OA
BRANCH  15  17
ATOM     17  O   UNL     1       7.657   4.776  15.365  0.00  0.00    +0.000 OA
ATOM     18  H   UNL     1       8.167   5.070  14.601  0.00  0.00    +0.000 HD
ENDBRANCH  15  17
ENDBRANCH   2  15
BRANCH   2  19
ATOM     19  C   UNL     1       5.477   7.015  17.440  0.00  0.00    +0.000 C 
BRANCH  19  20
ATOM     20  C   UNL     1       3.984   6.815  17.750  0.00  0.00    +0.000 C 
BRANCH  20  21
ATOM     21  C   UNL     1       3.031   7.976  17.444  0.00  0.00    +0.000 C 
BRANCH  21  22
ATOM     22  C   UNL     1       1.682   8.017  18.214  0.00  0.00    +0.000 C 
BRANCH  22  23
ATOM     23  N   UNL     1       1.560   9.174  19.121  0.00  0.00    +0.000 N 
ATOM     24  C   UNL     1       1.070   9.017  20.400  0.00  0.00    +0.000 A 
ATOM     25  N   UNL     1      -0.075   9.658  20.515  0.00  0.00    +0.000 NA
ATOM     26  C   UNL     1      -0.116  10.509  19.425  0.00  0.00    +0.000 A 
ATOM     27  C   UNL     1       1.094  10.425  18.767  0.00  0.00    +0.000 A 
ATOM     28  N   UNL     1       1.844  11.423  18.223  0.00  0.00    +0.000 N 
ATOM     29  C   UNL     1       1.546  12.752  18.515  0.00  0.00    +0.000 C 
ATOM     30  N   UNL     1       0.437  13.392  18.640  0.00  0.00    +0.000 NA
ATOM     31  C   UNL     1      -0.797  12.676  18.286  0.00  0.00    +0.000 C 
ATOM     32  C   UNL     1      -1.201  11.518  19.222  0.00  0.00    +0.000 C 
ATOM     33  H   UNL     1       2.846  11.255  18.202  0.00  0.00    +0.000 HD
BRANCH  32  34
ATOM     34  O   UNL     1      -2.349  10.885  18.625  0.00  0.00    +0.000 OA
ATOM     35  H   UNL     1      -3.132  11.292  19.033  0.00  0.00    +0.000 HD
ENDBRANCH  32  34
ENDBRANCH  22  23
ENDBRANCH  21  22
ENDBRANCH  20  21
ENDBRANCH  19  20
ENDBRANCH   2  19
TORSDOF 12
ENDMDL
MODEL 7
REMARK VINA RESULT:      -7.9      5.590      7.250
REMARK  Name = 
REMARK  13 active torsions:
REMARK  status: ('A' for Active; 'I' for Inactive)
REMARK    1  A    between atoms: C_1  and  C_2
REMARK    2  A    between atoms: C_2  and  C_3
REMARK    3  A    between atoms: C_2  and  C_18
REMARK    4  A    between atoms: C_2  and  C_21
REMARK    5  A    between atoms: C_3  and  C_4
REMARK    6  A    between atoms: C_4  and  C_5
REMARK    7  A    between atoms: C_5  and  C_6
REMARK    8  A    between atoms: C_6  and  N_7
REMARK    9  A    between atoms: C_16  and  O_17
REMARK   10  A    between atoms: C_18  and  O_20
REMARK   11  A    between atoms: N_23  and  C_24
REMARK   12  A    between atoms: C_24  and  C_25
REMARK   13  A    between atoms: C_25  and  C_26
REMARK                            x       y       z     vdW  Elec       q    Type
REMARK                         _______ _______ _______ _____ _____    ______ ____
ROOT
ATOM      1  C   UNL     1       5.896   5.321  18.954  0.00  0.00    +0.000 C 
ATOM      2  C   UNL     1       5.802   5.518  17.429  0.00  0.00    +0.000 C 
ENDROOT
BRANCH   2   3
ATOM      3  C   UNL     1       5.099   4.255  16.865  0.00  0.00    +0.000 C 
ATOM      4  O   UNL     1       4.869   4.121  15.664  0.00  0.00    +0.000 OA
ATOM      5  N   UNL     1       4.730   3.298  17.790  0.00  0.00    +0.000 N 
ATOM      6  H   UNL     1       4.541   3.637  18.735  0.00  0.00    +0.000 HD
BRANCH   5   7
ATOM      7  C   UNL     1       4.020   2.093  17.388  0.00  0.00    +0.000 C 
BRANCH   7   8
ATOM      8  C   UNL     1       2.540   2.119  17.783  0.00  0.00    +0.000 C 
BRANCH   8   9
ATOM      9  C   UNL     1       2.294   2.874  19.063  0.00  0.00    +0.000 A 
ATOM     10  C   UNL     1       1.737   4.160  19.026  0.00  0.00    +0.000 A 
ATOM     11  C   UNL     1       1.485   4.853  20.209  0.00  0.00    +0.000 A 
ATOM     12  C   UNL     1       1.794   4.272  21.437  0.00  0.00    +0.000 A 
ATOM     13  C   UNL     1       2.362   3.000  21.482  0.00  0.00    +0.000 A 
ATOM     14  C   UNL     1       2.613   2.302  20.300  0.00  0.00    +0.000 A 
ENDBRANCH   8   9
ENDBRANCH   7   8
ENDBRANCH   5   7
ENDBRANCH   2   3
BRANCH   2  15
ATOM     15  C   UNL     1       7.154   5.624  16.734  0.00  0.00    +0.000 C 
ATOM     16  O   UNL     1       7.670   6.715  16.491  0.00  0.00    +0.000 OA
BRANCH  15  17
ATOM     17  O   UNL     1       7.804   4.484  16.446  0.00  0.00    +0.000 OA
ATOM     18  H   UNL     1       8.151   4.362  15.554  0.00  0.00    +0.000 HD
ENDBRANCH  15  17
ENDBRANCH   2  15
BRANCH   2  19
ATOM     19  C   UNL     1       4.917   6.766  17.101  0.00  0.00    +0.000 C 
BRANCH  19  20
ATOM     20  C   UNL     1       3.564   6.928  17.812  0.00  0.00    +0.000 C 
BRANCH  20  21
ATOM     21  C   UNL     1       3.003   8.346  17.963  0.00  0.00    +0.000 C 
BRANCH  21  22
ATOM     22  C   UNL     1       1.458   8.510  17.961  0.00  0.00    +0.000 C 
BRANCH  22  23
ATOM     23  N   UNL     1       1.018   9.916  17.898  0.00  0.00    +0.000 N 
ATOM     24  C   UNL     1       1.939  10.942  17.883  0.00  0.00    +0.000 A 
ATOM     25  N   UNL     1       1.821  11.656  18.984  0.00  0.00    +0.000 NA
ATOM     26  C   UNL     1       0.594  11.296  19.511  0.00  0.00    +0.000 A 
ATOM     27  C   UNL     1      -0.034  10.460  18.610  0.00  0.00    +0.000 A 
ATOM     28  N   UNL     1      -1.341  10.439  18.229  0.00  0.00    +0.000 N 
ATOM     29  C   UNL     1      -2.178  11.499  18.568  0.00  0.00    +0.000 C 
ATOM     30  N   UNL     1      -2.301  12.212  19.631  0.00  0.00    +0.000 NA
ATOM     31  C   UNL     1      -1.530  11.796  20.812  0.00  0.00    +0.000 C 
ATOM     32  C   UNL     1       0.001  11.957  20.714  0.00  0.00    +0.000 C 
ATOM     33  H   UNL     1      -1.515  10.103  17.286  0.00  0.00    +0.000 HD
BRANCH  32  34
ATOM     34  O   UNL     1       0.556  11.378  21.911  0.00  0.00    +0.000 OA
ATOM     35  H   UNL     1       0.417  10.418  21.844  0.00  0.00    +0.000 HD
ENDBRANCH  32  34
ENDBRANCH  22  23
ENDBRANCH  21  22
ENDBRANCH  20  21
ENDBRANCH  19  20
ENDBRANCH   2  19
TORSDOF 12
ENDMDL
MODEL 8
REMARK VINA RESULT:      -7.9      0.963      1.141
REMARK  Name = 
REMARK  13 active torsions:
REMARK  status: ('A' for Active; 'I' for Inactive)
REMARK    1  A    between atoms: C_1  and  C_2
REMARK    2  A    between atoms: C_2  and  C_3
REMARK    3  A    between atoms: C_2  and  C_18
REMARK    4  A    between atoms: C_2  and  C_21
REMARK    5  A    between atoms: C_3  and  C_4
REMARK    6  A    between atoms: C_4  and  C_5
REMARK    7  A    between atoms: C_5  and  C_6
REMARK    8  A    between atoms: C_6  and  N_7
REMARK    9  A    between atoms: C_16  and  O_17
REMARK   10  A    between atoms: C_18  and  O_20
REMARK   11  A    between atoms: N_23  and  C_24
REMARK   12  A    between atoms: C_24  and  C_25
REMARK   13  A    between atoms: C_25  and  C_26
REMARK                            x       y       z     vdW  Elec       q    Type
REMARK                         _______ _______ _______ _____ _____    ______ ____
ROOT
ATOM      1  C   UNL     1       6.816   5.334  19.333  0.00  0.00    +0.000 C 
ATOM      2  C   UNL     1       7.065   6.093  18.016  0.00  0.00    +0.000 C 
ENDROOT
BRANCH   2   3
ATOM      3  C   UNL     1       5.681   6.604  17.534  0.00  0.00    +0.000 C 
ATOM      4  O   UNL     1       5.535   7.151  16.443  0.00  0.00    +0.000 OA
ATOM      5  N   UNL     1       4.627   6.426  18.409  0.00  0.00    +0.000 N 
ATOM      6  H   UNL     1       4.868   6.392  19.401  0.00  0.00    +0.000 HD
BRANCH   5   7
ATOM      7  C   UNL     1       3.292   6.907  18.089  0.00  0.00    +0.000 C 
BRANCH   7   8
ATOM      8  C   UNL     1       2.293   5.769  17.854  0.00  0.00    +0.000 C 
BRANCH   8   9
ATOM      9  C   UNL     1       2.319   4.739  18.953  0.00  0.00    +0.000 A 
ATOM     10  C   UNL     1       2.674   3.413  18.667  0.00  0.00    +0.000 A 
ATOM     11  C   UNL     1       2.725   2.462  19.684  0.00  0.00    +0.000 A 
ATOM     12  C   UNL     1       2.412   2.823  20.993  0.00  0.00    +0.000 A 
ATOM     13  C   UNL     1       2.042   4.135  21.283  0.00  0.00    +0.000 A 
ATOM     14  C   UNL     1       1.994   5.091  20.268  0.00  0.00    +0.000 A 
ENDBRANCH   8   9
ENDBRANCH   7   8
ENDBRANCH   5   7
ENDBRANCH   2   3
BRANCH   2  15
ATOM     15  C   UNL     1       7.634   5.226  16.900  0.00  0.00    +0.000 C 
ATOM     16  O   UNL     1       8.083   4.102  17.121  0.00  0.00    +0.000 OA
BRANCH  15  17
ATOM     17  O   UNL     1       7.573   5.699  15.643  0.00  0.00    +0.000 OA
ATOM     18  H   UNL     1       6.707   5.885  15.260  0.00  0.00    +0.000 HD
ENDBRANCH  15  17
ENDBRANCH   2  15
BRANCH   2  19
ATOM     19  C   UNL     1       7.988   7.329  18.274  0.00  0.00    +0.000 C 
BRANCH  19  20
ATOM     20  C   UNL     1       7.660   8.661  17.580  0.00  0.00    +0.000 C 
BRANCH  20  21
ATOM     21  C   UNL     1       8.551   9.868  17.895  0.00  0.00    +0.000 C 
BRANCH  21  22
ATOM     22  C   UNL     1       9.123   9.980  19.335  0.00  0.00    +0.000 C 
BRANCH  22  23
ATOM     23  N   UNL     1      10.184  10.997  19.466  0.00  0.00    +0.000 N 
ATOM     24  C   UNL     1      10.444  11.589  20.684  0.00  0.00    +0.000 A 
ATOM     25  N   UNL     1      10.152  12.872  20.622  0.00  0.00    +0.000 NA
ATOM     26  C   UNL     1      10.055  13.149  19.270  0.00  0.00    +0.000 A 
ATOM     27  C   UNL     1      10.430  12.020  18.571  0.00  0.00    +0.000 A 
ATOM     28  N   UNL     1      11.200  11.922  17.452  0.00  0.00    +0.000 N 
ATOM     29  C   UNL     1      11.931  13.024  17.016  0.00  0.00    +0.000 C 
ATOM     30  N   UNL     1      11.666  14.281  16.956  0.00  0.00    +0.000 NA
ATOM     31  C   UNL     1      10.291  14.694  17.267  0.00  0.00    +0.000 C 
ATOM     32  C   UNL     1       9.849  14.530  18.737  0.00  0.00    +0.000 C 
ATOM     33  H   UNL     1      11.724  11.057  17.357  0.00  0.00    +0.000 HD
BRANCH  32  34
ATOM     34  O   UNL     1       8.450  14.869  18.788  0.00  0.00    +0.000 OA
ATOM     35  H   UNL     1       8.293  15.505  18.070  0.00  0.00    +0.000 HD
ENDBRANCH  32  34
ENDBRANCH  22  23
ENDBRANCH  21  22
ENDBRANCH  20  21
ENDBRANCH  19  20
ENDBRANCH   2  19
TORSDOF 12
ENDMDL
MODEL 9
REMARK VINA RESULT:      -7.9      1.583      1.983
REMARK  Name = 
REMARK  13 active torsions:
REMARK  status: ('A' for Active; 'I' for Inactive)
REMARK    1  A    between atoms: C_1  and  C_2
REMARK    2  A    between atoms: C_2  and  C_3
REMARK    3  A    between atoms: C_2  and  C_18
REMARK    4  A    between atoms: C_2  and  C_21
REMARK    5  A    between atoms: C_3  and  C_4
REMARK    6  A    between atoms: C_4  and  C_5
REMARK    7  A    between atoms: C_5  and  C_6
REMARK    8  A    between atoms: C_6  and  N_7
REMARK    9  A    between atoms: C_16  and  O_17
REMARK   10  A    between atoms: C_18  and  O_20
REMARK   11  A    between atoms: N_23  and  C_24
REMARK   12  A    between atoms: C_24  and  C_25
REMARK   13  A    between atoms: C_25  and  C_26
REMARK                            x       y       z     vdW  Elec       q    Type
REMARK                         _______ _______ _______ _____ _____    ______ ____
ROOT
ATOM      1  C   UNL     1       7.823   6.064  19.358  0.00  0.00    +0.000 C 
ATOM      2  C   UNL     1       6.811   6.035  18.197  0.00  0.00    +0.000 C 
ENDROOT
BRANCH   2   3
ATOM      3  C   UNL     1       5.403   5.949  18.843  0.00  0.00    +0.000 C 
ATOM      4  O   UNL     1       5.174   5.222  19.809  0.00  0.00    +0.000 OA
ATOM      5  N   UNL     1       4.417   6.720  18.261  0.00  0.00    +0.000 N 
ATOM      6  H   UNL     1       4.537   6.927  17.267  0.00  0.00    +0.000 HD
BRANCH   5   7
ATOM      7  C   UNL     1       3.046   6.687  18.747  0.00  0.00    +0.000 C 
BRANCH   7   8
ATOM      8  C   UNL     1       2.120   5.857  17.850  0.00  0.00    +0.000 C 
BRANCH   8   9
ATOM      9  C   UNL     1       1.929   4.452  18.358  0.00  0.00    +0.000 A 
ATOM     10  C   UNL     1       1.288   4.228  19.585  0.00  0.00    +0.000 A 
ATOM     11  C   UNL     1       1.085   2.929  20.048  0.00  0.00    +0.000 A 
ATOM     12  C   UNL     1       1.528   1.843  19.295  0.00  0.00    +0.000 A 
ATOM     13  C   UNL     1       2.180   2.058  18.082  0.00  0.00    +0.000 A 
ATOM     14  C   UNL     1       2.381   3.357  17.614  0.00  0.00    +0.000 A 
ENDBRANCH   8   9
ENDBRANCH   7   8
ENDBRANCH   5   7
ENDBRANCH   2   3
BRANCH   2  15
ATOM     15  C   UNL     1       6.955   4.826  17.280  0.00  0.00    +0.000 C 
ATOM     16  O   UNL     1       7.726   4.834  16.320  0.00  0.00    +0.000 OA
BRANCH  15  17
ATOM     17  O   UNL     1       6.260   3.717  17.586  0.00  0.00    +0.000 OA
ATOM     18  H   UNL     1       6.336   3.356  18.477  0.00  0.00    +0.000 HD
ENDBRANCH  15  17
ENDBRANCH   2  15
BRANCH   2  19
ATOM     19  C   UNL     1       6.898   7.361  17.374  0.00  0.00    +0.000 C 
BRANCH  19  20
ATOM     20  C   UNL     1       8.192   8.190  17.429  0.00  0.00    +0.000 C 
BRANCH  20  21
ATOM     21  C   UNL     1       8.097   9.628  17.949  0.00  0.00    +0.000 C 
BRANCH  21  22
ATOM     22  C   UNL     1       9.364  10.238  18.609  0.00  0.00    +0.000 C 
BRANCH  22  23
ATOM     23  N   UNL     1       9.248  11.684  18.877  0.00  0.00    +0.000 N 
ATOM     24  C   UNL     1       8.244  12.429  18.295  0.00  0.00    +0.000 A 
ATOM     25  N   UNL     1       8.771  13.307  17.466  0.00  0.00    +0.000 NA
ATOM     26  C   UNL     1      10.112  13.353  17.802  0.00  0.00    +0.000 A 
ATOM     27  C   UNL     1      10.301  12.577  18.928  0.00  0.00    +0.000 A 
ATOM     28  N   UNL     1      11.070  12.830  20.023  0.00  0.00    +0.000 N 
ATOM     29  C   UNL     1      11.590  14.106  20.224  0.00  0.00    +0.000 C 
ATOM     30  N   UNL     1      12.099  14.979  19.428  0.00  0.00    +0.000 NA
ATOM     31  C   UNL     1      12.333  14.565  18.037  0.00  0.00    +0.000 C 
ATOM     32  C   UNL     1      11.072  14.316  17.182  0.00  0.00    +0.000 C 
ATOM     33  H   UNL     1      10.746  12.411  20.890  0.00  0.00    +0.000 HD
BRANCH  32  34
ATOM     34  O   UNL     1      11.527  13.803  15.915  0.00  0.00    +0.000 OA
ATOM     35  H   UNL     1      12.466  14.045  15.840  0.00  0.00    +0.000 HD
ENDBRANCH  32  34
ENDBRANCH  22  23
ENDBRANCH  21  22
ENDBRANCH  20  21
ENDBRANCH  19  20
ENDBRANCH   2  19
TORSDOF 12
ENDMDL
