MODEL 1
REMARK VINA RESULT:      -7.0      0.000      0.000
REMARK  Name = 
REMARK  5 active torsions:
REMARK  status: ('A' for Active; 'I' for Inactive)
REMARK    1  A    between atoms: C_2  and  C_3
REMARK    2  A    between atoms: C_3  and  N_4
REMARK    3  A    between atoms: C_7  and  C_8
REMARK    4  A    between atoms: C_9  and  C_10
REMARK    5  A    between atoms: C_13  and  C_14
REMARK                            x       y       z     vdW  Elec       q    Type
REMARK                         _______ _______ _______ _____ _____    ______ ____
ROOT
ATOM      1  C   UNL     1       4.351   4.293  17.330  0.00  0.00    +0.000 C 
ATOM      2  C   UNL     1       3.068   4.353  17.717  0.00  0.00    +0.000 C 
ENDROOT
BRANCH   1   6
ATOM      3  N   UNL     1       7.114   5.412  15.134  0.00  0.00    +0.000 NA
ATOM      4  C   UNL     1       5.760   5.984  15.190  0.00  0.00    +0.000 C 
ATOM      5  C   UNL     1       5.454   6.447  16.616  0.00  0.00    +0.000 C 
ATOM      6  C   UNL     1       5.475   5.273  17.604  0.00  0.00    +0.000 C 
ATOM      7  C   UNL     1       6.857   4.612  17.491  0.00  0.00    +0.000 C 
ATOM      8  C   UNL     1       7.244   4.260  16.047  0.00  0.00    +0.000 C 
BRANCH   3   9
ATOM      9  C   UNL     1       7.487   5.041  13.759  0.00  0.00    +0.000 C 
BRANCH   9  11
ATOM     10  C   UNL     1       5.544   3.307  12.670  0.00  0.00    +0.000 C 
ATOM     11  C   UNL     1       6.441   4.107  13.173  0.00  0.00    +0.000 C 
ENDBRANCH   9  11
ENDBRANCH   3   9
ENDBRANCH   1   6
BRANCH   2  12
ATOM     12  C   UNL     1       2.415   5.325  18.588  0.00  0.00    +0.000 A 
ATOM     13  C   UNL     1       1.985   4.973  19.862  0.00  0.00    +0.000 A 
ATOM     14  C   UNL     1       1.600   5.964  20.773  0.00  0.00    +0.000 A 
ATOM     15  C   UNL     1       1.666   7.327  20.440  0.00  0.00    +0.000 A 
ATOM     16  C   UNL     1       2.022   7.646  19.118  0.00  0.00    +0.000 A 
ATOM     17  C   UNL     1       2.384   6.664  18.198  0.00  0.00    +0.000 A 
BRANCH  15  18
ATOM     18  C   UNL     1       1.376   8.413  21.447  0.00  0.00    +0.000 C 
ATOM     19  C   UNL     1       0.850   9.761  21.009  0.00  0.00    +0.000 C 
ATOM     20  C   UNL     1      -0.064   8.802  21.708  0.00  0.00    +0.000 C 
ENDBRANCH  15  18
ENDBRANCH   2  12
TORSDOF 5
ENDMDL
MODEL 2
REMARK VINA RESULT:      -6.7      1.825      3.109
REMARK  Name = 
REMARK  5 active torsions:
REMARK  status: ('A' for Active; 'I' for Inactive)
REMARK    1  A    between atoms: C_2  and  C_3
REMARK    2  A    between atoms: C_3  and  N_4
REMARK    3  A    between atoms: C_7  and  C_8
REMARK    4  A    between atoms: C_9  and  C_10
REMARK    5  A    between atoms: C_13  and  C_14
REMARK                            x       y       z     vdW  Elec       q    Type
REMARK                         _______ _______ _______ _____ _____    ______ ____
ROOT
ATOM      1  C   UNL     1       5.209   6.400  16.434  0.00  0.00    +0.000 C 
ATOM      2  C   UNL     1       4.102   6.896  17.010  0.00  0.00    +0.000 C 
ENDROOT
BRANCH   1   6
ATOM      3  N   UNL     1       6.683   4.060  13.972  0.00  0.00    +0.000 NA
ATOM      4  C   UNL     1       7.364   5.199  14.608  0.00  0.00    +0.000 C 
ATOM      5  C   UNL     1       7.315   5.045  16.129  0.00  0.00    +0.000 C 
ATOM      6  C   UNL     1       5.871   5.054  16.648  0.00  0.00    +0.000 C 
ATOM      7  C   UNL     1       5.125   3.922  15.925  0.00  0.00    +0.000 C 
ATOM      8  C   UNL     1       5.273   3.979  14.397  0.00  0.00    +0.000 C 
BRANCH   3   9
ATOM      9  C   UNL     1       6.791   4.117  12.505  0.00  0.00    +0.000 C 
BRANCH   9  11
ATOM     10  C   UNL     1       5.853   1.705  11.378  0.00  0.00    +0.000 C 
ATOM     11  C   UNL     1       6.286   2.818  11.898  0.00  0.00    +0.000 C 
ENDBRANCH   9  11
ENDBRANCH   3   9
ENDBRANCH   1   6
BRANCH   2  12
ATOM     12  C   UNL     1       3.174   6.245  17.928  0.00  0.00    +0.000 A 
ATOM     13  C   UNL     1       2.493   5.090  17.561  0.00  0.00    +0.000 A 
ATOM     14  C   UNL     1       1.812   4.338  18.527  0.00  0.00    +0.000 A 
ATOM     15  C   UNL     1       1.823   4.709  19.882  0.00  0.00    +0.000 A 
ATOM     16  C   UNL     1       2.447   5.927  20.206  0.00  0.00    +0.000 A 
ATOM     17  C   UNL     1       3.106   6.692  19.247  0.00  0.00    +0.000 A 
BRANCH  15  18
ATOM     18  C   UNL     1       1.203   3.848  20.954  0.00  0.00    +0.000 C 
ATOM     19  C   UNL     1       1.249   2.339  20.865  0.00  0.00    +0.000 C 
ATOM     20  C   UNL     1       2.110   3.048  21.865  0.00  0.00    +0.000 C 
ENDBRANCH  15  18
ENDBRANCH   2  12
TORSDOF 5
ENDMDL
MODEL 3
REMARK VINA RESULT:      -6.5      1.170      1.867
REMARK  Name = 
REMARK  5 active torsions:
REMARK  status: ('A' for Active; 'I' for Inactive)
REMARK    1  A    between atoms: C_2  and  C_3
REMARK    2  A    between atoms: C_3  and  N_4
REMARK    3  A    between atoms: C_7  and  C_8
REMARK    4  A    between atoms: C_9  and  C_10
REMARK    5  A    between atoms: C_13  and  C_14
REMARK                            x       y       z     vdW  Elec       q    Type
REMARK                         _______ _______ _______ _____ _____    ______ ____
ROOT
ATOM      1  C   UNL     1       4.074   5.145  17.770  0.00  0.00    +0.000 C 
ATOM      2  C   UNL     1       2.853   5.680  17.923  0.00  0.00    +0.000 C 
ENDROOT
BRANCH   1   6
ATOM      3  N   UNL     1       7.120   5.440  15.684  0.00  0.00    +0.000 NA
ATOM      4  C   UNL     1       5.991   6.384  15.717  0.00  0.00    +0.000 C 
ATOM      5  C   UNL     1       5.784   6.892  17.145  0.00  0.00    +0.000 C 
ATOM      6  C   UNL     1       5.425   5.747  18.102  0.00  0.00    +0.000 C 
ATOM      7  C   UNL     1       6.556   4.711  18.011  0.00  0.00    +0.000 C 
ATOM      8  C   UNL     1       6.873   4.286  16.570  0.00  0.00    +0.000 C 
BRANCH   3   9
ATOM      9  C   UNL     1       7.416   4.999  14.312  0.00  0.00    +0.000 C 
BRANCH   9  11
ATOM     10  C   UNL     1       5.200   3.610  13.249  0.00  0.00    +0.000 C 
ATOM     11  C   UNL     1       6.223   4.251  13.739  0.00  0.00    +0.000 C 
ENDBRANCH   9  11
ENDBRANCH   3   9
ENDBRANCH   1   6
BRANCH   2  12
ATOM     12  C   UNL     1       2.475   6.948  18.538  0.00  0.00    +0.000 A 
ATOM     13  C   UNL     1       2.227   8.076  17.764  0.00  0.00    +0.000 A 
ATOM     14  C   UNL     1       1.622   9.202  18.335  0.00  0.00    +0.000 A 
ATOM     15  C   UNL     1       1.226   9.213  19.683  0.00  0.00    +0.000 A 
ATOM     16  C   UNL     1       1.568   8.092  20.459  0.00  0.00    +0.000 A 
ATOM     17  C   UNL     1       2.191   6.976  19.903  0.00  0.00    +0.000 A 
BRANCH  15  18
ATOM     18  C   UNL     1       0.462  10.366  20.284  0.00  0.00    +0.000 C 
ATOM     19  C   UNL     1       0.198  11.625  19.489  0.00  0.00    +0.000 C 
ATOM     20  C   UNL     1      -0.927  10.673  19.764  0.00  0.00    +0.000 C 
ENDBRANCH  15  18
ENDBRANCH   2  12
TORSDOF 5
ENDMDL
MODEL 4
REMARK VINA RESULT:      -6.4      2.692      3.465
REMARK  Name = 
REMARK  5 active torsions:
REMARK  status: ('A' for Active; 'I' for Inactive)
REMARK    1  A    between atoms: C_2  and  C_3
REMARK    2  A    between atoms: C_3  and  N_4
REMARK    3  A    between atoms: C_7  and  C_8
REMARK    4  A    between atoms: C_9  and  C_10
REMARK    5  A    between atoms: C_13  and  C_14
REMARK                            x       y       z     vdW  Elec       q    Type
REMARK                         _______ _______ _______ _____ _____    ______ ____
ROOT
ATOM      1  C   UNL     1       5.403   6.146  16.174  0.00  0.00    +0.000 C 
ATOM      2  C   UNL     1       4.304   6.470  16.873  0.00  0.00    +0.000 C 
ENDROOT
BRANCH   1   6
ATOM      3  N   UNL     1       6.692   3.930  13.501  0.00  0.00    +0.000 NA
ATOM      4  C   UNL     1       7.326   5.164  13.992  0.00  0.00    +0.000 C 
ATOM      5  C   UNL     1       7.574   5.053  15.497  0.00  0.00    +0.000 C 
ATOM      6  C   UNL     1       6.260   4.899  16.274  0.00  0.00    +0.000 C 
ATOM      7  C   UNL     1       5.545   3.662  15.710  0.00  0.00    +0.000 C 
ATOM      8  C   UNL     1       5.404   3.688  14.180  0.00  0.00    +0.000 C 
BRANCH   3   9
ATOM      9  C   UNL     1       6.522   3.954  12.040  0.00  0.00    +0.000 C 
BRANCH   9  11
ATOM     10  C   UNL     1       3.959   2.988  11.353  0.00  0.00    +0.000 C 
ATOM     11  C   UNL     1       5.142   3.434  11.670  0.00  0.00    +0.000 C 
ENDBRANCH   9  11
ENDBRANCH   3   9
ENDBRANCH   1   6
BRANCH   2  12
ATOM     12  C   UNL     1       3.570   5.676  17.853  0.00  0.00    +0.000 A 
ATOM     13  C   UNL     1       2.318   5.148  17.557  0.00  0.00    +0.000 A 
ATOM     14  C   UNL     1       1.745   4.186  18.397  0.00  0.00    +0.000 A 
ATOM     15  C   UNL     1       2.423   3.710  19.531  0.00  0.00    +0.000 A 
ATOM     16  C   UNL     1       3.646   4.325  19.850  0.00  0.00    +0.000 A 
ATOM     17  C   UNL     1       4.212   5.300  19.032  0.00  0.00    +0.000 A 
BRANCH  15  18
ATOM     18  C   UNL     1       1.878   2.586  20.377  0.00  0.00    +0.000 C 
ATOM     19  C   UNL     1       2.446   2.297  21.748  0.00  0.00    +0.000 C 
ATOM     20  C   UNL     1       1.091   2.925  21.625  0.00  0.00    +0.000 C 
ENDBRANCH  15  18
ENDBRANCH   2  12
TORSDOF 5
ENDMDL
MODEL 5
REMARK VINA RESULT:      -6.4      2.344      7.575
REMARK  Name = 
REMARK  5 active torsions:
REMARK  status: ('A' for Active; 'I' for Inactive)
REMARK    1  A    between atoms: C_2  and  C_3
REMARK    2  A    between atoms: C_3  and  N_4
REMARK    3  A    between atoms: C_7  and  C_8
REMARK    4  A    between atoms: C_9  and  C_10
REMARK    5  A    between atoms: C_13  and  C_14
REMARK                            x       y       z     vdW  Elec       q    Type
REMARK                         _______ _______ _______ _____ _____    ______ ____
ROOT
ATOM      1  C   UNL     1       5.066   5.810  18.297  0.00  0.00    +0.000 C 
ATOM      2  C   UNL     1       6.169   5.263  17.762  0.00  0.00    +0.000 C 
ENDROOT
BRANCH   1   6
ATOM      3  N   UNL     1       1.631   5.145  19.509  0.00  0.00    +0.000 NA
ATOM      4  C   UNL     1       2.446   6.333  19.809  0.00  0.00    +0.000 C 
ATOM      5  C   UNL     1       2.860   7.017  18.505  0.00  0.00    +0.000 C 
ATOM      6  C   UNL     1       3.731   6.097  17.640  0.00  0.00    +0.000 C 
ATOM      7  C   UNL     1       2.923   4.814  17.391  0.00  0.00    +0.000 C 
ATOM      8  C   UNL     1       2.381   4.180  18.682  0.00  0.00    +0.000 C 
BRANCH   3   9
ATOM      9  C   UNL     1       1.129   4.509  20.737  0.00  0.00    +0.000 C 
BRANCH   9  11
ATOM     10  C   UNL     1       2.867   2.427  21.521  0.00  0.00    +0.000 C 
ATOM     11  C   UNL     1       2.065   3.388  21.159  0.00  0.00    +0.000 C 
ENDBRANCH   9  11
ENDBRANCH   3   9
ENDBRANCH   1   6
BRANCH   2  12
ATOM     12  C   UNL     1       6.362   4.703  16.429  0.00  0.00    +0.000 A 
ATOM     13  C   UNL     1       5.707   3.541  16.036  0.00  0.00    +0.000 A 
ATOM     14  C   UNL     1       5.697   3.160  14.689  0.00  0.00    +0.000 A 
ATOM     15  C   UNL     1       6.315   3.948  13.704  0.00  0.00    +0.000 A 
ATOM     16  C   UNL     1       7.041   5.069  14.143  0.00  0.00    +0.000 A 
ATOM     17  C   UNL     1       7.076   5.441  15.485  0.00  0.00    +0.000 A 
BRANCH  15  18
ATOM     18  C   UNL     1       6.210   3.622  12.234  0.00  0.00    +0.000 C 
ATOM     19  C   UNL     1       5.846   2.230  11.769  0.00  0.00    +0.000 C 
ATOM     20  C   UNL     1       4.844   3.337  11.645  0.00  0.00    +0.000 C 
ENDBRANCH  15  18
ENDBRANCH   2  12
TORSDOF 5
ENDMDL
MODEL 6
REMARK VINA RESULT:      -6.3      1.441      2.296
REMARK  Name = 
REMARK  5 active torsions:
REMARK  status: ('A' for Active; 'I' for Inactive)
REMARK    1  A    between atoms: C_2  and  C_3
REMARK    2  A    between atoms: C_3  and  N_4
REMARK    3  A    between atoms: C_7  and  C_8
REMARK    4  A    between atoms: C_9  and  C_10
REMARK    5  A    between atoms: C_13  and  C_14
REMARK                            x       y       z     vdW  Elec       q    Type
REMARK                         _______ _______ _______ _____ _____    ______ ____
ROOT
ATOM      1  C   UNL     1       3.860   5.302  18.135  0.00  0.00    +0.000 C 
ATOM      2  C   UNL     1       2.646   5.794  18.427  0.00  0.00    +0.000 C 
ENDROOT
BRANCH   1   6
ATOM      3  N   UNL     1       6.475   5.061  15.523  0.00  0.00    +0.000 NA
ATOM      4  C   UNL     1       5.278   5.916  15.482  0.00  0.00    +0.000 C 
ATOM      5  C   UNL     1       5.259   6.837  16.702  0.00  0.00    +0.000 C 
ATOM      6  C   UNL     1       5.180   6.038  18.009  0.00  0.00    +0.000 C 
ATOM      7  C   UNL     1       6.379   5.077  18.024  0.00  0.00    +0.000 C 
ATOM      8  C   UNL     1       6.496   4.234  16.745  0.00  0.00    +0.000 C 
BRANCH   3   9
ATOM      9  C   UNL     1       6.584   4.224  14.318  0.00  0.00    +0.000 C 
BRANCH   9  11
ATOM     10  C   UNL     1       8.059   5.586  12.333  0.00  0.00    +0.000 C 
ATOM     11  C   UNL     1       7.378   4.957  13.249  0.00  0.00    +0.000 C 
ENDBRANCH   9  11
ENDBRANCH   3   9
ENDBRANCH   1   6
BRANCH   2  12
ATOM     12  C   UNL     1       2.271   7.153  18.801  0.00  0.00    +0.000 A 
ATOM     13  C   UNL     1       2.086   8.137  17.836  0.00  0.00    +0.000 A 
ATOM     14  C   UNL     1       1.482   9.353  18.179  0.00  0.00    +0.000 A 
ATOM     15  C   UNL     1       1.023   9.598  19.484  0.00  0.00    +0.000 A 
ATOM     16  C   UNL     1       1.302   8.619  20.454  0.00  0.00    +0.000 A 
ATOM     17  C   UNL     1       1.924   7.416  20.125  0.00  0.00    +0.000 A 
BRANCH  15  18
ATOM     18  C   UNL     1       0.259  10.848  19.844  0.00  0.00    +0.000 C 
ATOM     19  C   UNL     1      -0.023  11.914  18.809  0.00  0.00    +0.000 C 
ATOM     20  C   UNL     1      -1.137  11.036  19.290  0.00  0.00    +0.000 C 
ENDBRANCH  15  18
ENDBRANCH   2  12
TORSDOF 5
ENDMDL
MODEL 7
REMARK VINA RESULT:      -6.3      1.354      2.288
REMARK  Name = 
REMARK  5 active torsions:
REMARK  status: ('A' for Active; 'I' for Inactive)
REMARK    1  A    between atoms: C_2  and  C_3
REMARK    2  A    between atoms: C_3  and  N_4
REMARK    3  A    between atoms: C_7  and  C_8
REMARK    4  A    between atoms: C_9  and  C_10
REMARK    5  A    between atoms: C_13  and  C_14
REMARK                            x       y       z     vdW  Elec       q    Type
REMARK                         _______ _______ _______ _____ _____    ______ ____
ROOT
ATOM      1  C   UNL     1       4.129   5.940  17.906  0.00  0.00    +0.000 C 
ATOM      2  C   UNL     1       2.968   6.187  18.532  0.00  0.00    +0.000 C 
ENDROOT
BRANCH   1   6
ATOM      3  N   UNL     1       6.718   5.390  15.316  0.00  0.00    +0.000 NA
ATOM      4  C   UNL     1       5.295   5.677  15.078  0.00  0.00    +0.000 C 
ATOM      5  C   UNL     1       4.914   6.995  15.752  0.00  0.00    +0.000 C 
ATOM      6  C   UNL     1       5.096   6.921  17.274  0.00  0.00    +0.000 C 
ATOM      7  C   UNL     1       6.561   6.536  17.535  0.00  0.00    +0.000 C 
ATOM      8  C   UNL     1       7.006   5.287  16.760  0.00  0.00    +0.000 C 
BRANCH   3   9
ATOM      9  C   UNL     1       7.152   4.177  14.604  0.00  0.00    +0.000 C 
BRANCH   9  11
ATOM     10  C   UNL     1       5.333   3.579  12.528  0.00  0.00    +0.000 C 
ATOM     11  C   UNL     1       6.172   3.855  13.486  0.00  0.00    +0.000 C 
ENDBRANCH   9  11
ENDBRANCH   3   9
ENDBRANCH   1   6
BRANCH   2  12
ATOM     12  C   UNL     1       2.358   7.470  18.866  0.00  0.00    +0.000 A 
ATOM     13  C   UNL     1       2.040   8.393  17.876  0.00  0.00    +0.000 A 
ATOM     14  C   UNL     1       1.230   9.495  18.177  0.00  0.00    +0.000 A 
ATOM     15  C   UNL     1       0.698   9.680  19.463  0.00  0.00    +0.000 A 
ATOM     16  C   UNL     1       1.107   8.778  20.461  0.00  0.00    +0.000 A 
ATOM     17  C   UNL     1       1.932   7.692  20.175  0.00  0.00    +0.000 A 
BRANCH  15  18
ATOM     18  C   UNL     1      -0.276  10.789  19.776  0.00  0.00    +0.000 C 
ATOM     19  C   UNL     1      -0.408  11.338  21.178  0.00  0.00    +0.000 C 
ATOM     20  C   UNL     1       0.264  12.161  20.121  0.00  0.00    +0.000 C 
ENDBRANCH  15  18
ENDBRANCH   2  12
TORSDOF 5
ENDMDL
MODEL 8
REMARK VINA RESULT:      -6.3      3.158      8.402
REMARK  Name = 
REMARK  5 active torsions:
REMARK  status: ('A' for Active; 'I' for Inactive)
REMARK    1  A    between atoms: C_2  and  C_3
REMARK    2  A    between atoms: C_3  and  N_4
REMARK    3  A    between atoms: C_7  and  C_8
REMARK    4  A    between atoms: C_9  and  C_10
REMARK    5  A    between atoms: C_13  and  C_14
REMARK                            x       y       z     vdW  Elec       q    Type
REMARK                         _______ _______ _______ _____ _____    ______ ____
ROOT
ATOM      1  C   UNL     1       1.394   8.728  19.422  0.00  0.00    +0.000 C 
ATOM      2  C   UNL     1       2.131   7.610  19.512  0.00  0.00    +0.000 C 
ENDROOT
BRANCH   1   6
ATOM      3  N   UNL     1      -0.332  11.995  19.171  0.00  0.00    +0.000 NA
ATOM      4  C   UNL     1       1.089  11.782  19.485  0.00  0.00    +0.000 C 
ATOM      5  C   UNL     1       1.754  10.989  18.359  0.00  0.00    +0.000 C 
ATOM      6  C   UNL     1       1.127   9.596  18.208  0.00  0.00    +0.000 C 
ATOM      7  C   UNL     1      -0.376   9.802  17.965  0.00  0.00    +0.000 C 
ATOM      8  C   UNL     1      -1.040  10.710  19.012  0.00  0.00    +0.000 C 
BRANCH   3   9
ATOM      9  C   UNL     1      -0.989  12.838  20.182  0.00  0.00    +0.000 C 
BRANCH   9  11
ATOM     10  C   UNL     1      -0.932  11.549  22.694  0.00  0.00    +0.000 C 
ATOM     11  C   UNL     1      -0.959  12.144  21.534  0.00  0.00    +0.000 C 
ENDBRANCH   9  11
ENDBRANCH   3   9
ENDBRANCH   1   6
BRANCH   2  12
ATOM     12  C   UNL     1       2.801   6.863  18.453  0.00  0.00    +0.000 A 
ATOM     13  C   UNL     1       3.767   7.462  17.652  0.00  0.00    +0.000 A 
ATOM     14  C   UNL     1       4.578   6.678  16.823  0.00  0.00    +0.000 A 
ATOM     15  C   UNL     1       4.460   5.278  16.799  0.00  0.00    +0.000 A 
ATOM     16  C   UNL     1       3.419   4.711  17.554  0.00  0.00    +0.000 A 
ATOM     17  C   UNL     1       2.592   5.487  18.364  0.00  0.00    +0.000 A 
BRANCH  15  18
ATOM     18  C   UNL     1       5.406   4.408  16.009  0.00  0.00    +0.000 C 
ATOM     19  C   UNL     1       6.415   5.015  15.061  0.00  0.00    +0.000 C 
ATOM     20  C   UNL     1       6.879   4.424  16.358  0.00  0.00    +0.000 C 
ENDBRANCH  15  18
ENDBRANCH   2  12
TORSDOF 5
ENDMDL
MODEL 9
REMARK VINA RESULT:      -6.2      4.119      7.930
REMARK  Name = 
REMARK  5 active torsions:
REMARK  status: ('A' for Active; 'I' for Inactive)
REMARK    1  A    between atoms: C_2  and  C_3
REMARK    2  A    between atoms: C_3  and  N_4
REMARK    3  A    between atoms: C_7  and  C_8
REMARK    4  A    between atoms: C_9  and  C_10
REMARK    5  A    between atoms: C_13  and  C_14
REMARK                            x       y       z     vdW  Elec       q    Type
REMARK                         _______ _______ _______ _____ _____    ______ ____
ROOT
ATOM      1  C   UNL     1       1.374   9.766  18.248  0.00  0.00    +0.000 C 
ATOM      2  C   UNL     1       2.261   8.809  17.935  0.00  0.00    +0.000 C 
ENDROOT
BRANCH   1   6
ATOM      3  N   UNL     1      -0.495  12.554  19.813  0.00  0.00    +0.000 NA
ATOM      4  C   UNL     1      -0.816  11.898  18.535  0.00  0.00    +0.000 C 
ATOM      5  C   UNL     1      -1.015  10.399  18.761  0.00  0.00    +0.000 C 
ATOM      6  C   UNL     1       0.267   9.734  19.283  0.00  0.00    +0.000 C 
ATOM      7  C   UNL     1       0.662  10.469  20.573  0.00  0.00    +0.000 C 
ATOM      8  C   UNL     1       0.736  11.994  20.403  0.00  0.00    +0.000 C 
BRANCH   3   9
ATOM      9  C   UNL     1      -0.390  14.014  19.659  0.00  0.00    +0.000 C 
BRANCH   9  11
ATOM     10  C   UNL     1       2.104  14.685  18.519  0.00  0.00    +0.000 C 
ATOM     11  C   UNL     1       0.953  14.375  19.045  0.00  0.00    +0.000 C 
ENDBRANCH   9  11
ENDBRANCH   3   9
ENDBRANCH   1   6
BRANCH   2  12
ATOM     12  C   UNL     1       2.473   7.510  18.564  0.00  0.00    +0.000 A 
ATOM     13  C   UNL     1       2.068   7.272  19.873  0.00  0.00    +0.000 A 
ATOM     14  C   UNL     1       2.040   5.964  20.373  0.00  0.00    +0.000 A 
ATOM     15  C   UNL     1       2.388   4.867  19.568  0.00  0.00    +0.000 A 
ATOM     16  C   UNL     1       2.874   5.148  18.279  0.00  0.00    +0.000 A 
ATOM     17  C   UNL     1       2.927   6.449  17.782  0.00  0.00    +0.000 A 
BRANCH  15  18
ATOM     18  C   UNL     1       2.245   3.444  20.048  0.00  0.00    +0.000 C 
ATOM     19  C   UNL     1       1.374   3.106  21.236  0.00  0.00    +0.000 C 
ATOM     20  C   UNL     1       0.920   2.737  19.857  0.00  0.00    +0.000 C 
ENDBRANCH  15  18
ENDBRANCH   2  12
TORSDOF 5
ENDMDL
