MODEL 1
REMARK VINA RESULT:      -8.5      0.000      0.000
REMARK  Name = 
REMARK  6 active torsions:
REMARK  status: ('A' for Active; 'I' for Inactive)
REMARK    1  A    between atoms: C_2  and  C_3
REMARK    2  A    between atoms: C_4  and  C_5
REMARK    3  A    between atoms: C_8  and  C_9
REMARK    4  A    between atoms: C_17  and  C_18
REMARK    5  A    between atoms: C_18  and  O_19
REMARK    6  A    between atoms: N_23  and  C_24
REMARK                            x       y       z     vdW  Elec       q    Type
REMARK                         _______ _______ _______ _____ _____    ______ ____
ROOT
ATOM      1  C   UNL     1       5.890   5.845  18.633  0.00  0.00    +0.000 C 
ATOM      2  C   UNL     1       4.437   5.578  19.119  0.00  0.00    +0.000 C 
ATOM      3  C   UNL     1       4.402   4.338  18.183  0.00  0.00    +0.000 C 
ATOM      4  N   UNL     1       5.655   4.811  17.614  0.00  0.00    +0.000 N 
ATOM      5  C   UNL     1       6.324   4.701  16.425  0.00  0.00    +0.000 C 
ATOM      6  O   UNL     1       7.411   5.256  16.285  0.00  0.00    +0.000 OA
ATOM      7  N   UNL     1       5.717   3.933  15.453  0.00  0.00    +0.000 N 
ATOM      8  H   UNL     1       4.736   3.735  15.589  0.00  0.00    +0.000 HD
ENDROOT
BRANCH   2   9
ATOM      9  C   UNL     1       3.357   6.742  18.922  0.00  0.00    +0.000 A 
ATOM     10  C   UNL     1       3.278   7.526  17.756  0.00  0.00    +0.000 A 
ATOM     11  C   UNL     1       2.364   8.579  17.630  0.00  0.00    +0.000 A 
ATOM     12  C   UNL     1       1.468   8.871  18.661  0.00  0.00    +0.000 A 
ATOM     13  C   UNL     1       1.507   8.097  19.820  0.00  0.00    +0.000 A 
ATOM     14  C   UNL     1       2.438   7.059  19.946  0.00  0.00    +0.000 A 
BRANCH  12  15
ATOM     15  C   UNL     1       0.484   9.950  18.510  0.00  0.00    +0.000 C 
ATOM     16  C   UNL     1      -0.659   9.713  17.839  0.00  0.00    +0.000 C 
ATOM     17  C   UNL     1      -1.703  10.763  17.602  0.00  0.00    +0.000 C 
ATOM     18  C   UNL     1      -1.189  12.177  17.869  0.00  0.00    +0.000 C 
ATOM     19  C   UNL     1      -0.400  12.234  19.172  0.00  0.00    +0.000 C 
ATOM     20  C   UNL     1       0.806  11.285  19.134  0.00  0.00    +0.000 C 
ENDBRANCH  12  15
ENDBRANCH   2   9
BRANCH   7  21
ATOM     21  C   UNL     1       6.277   3.703  14.112  0.00  0.00    +0.000 C 
ATOM     22  C   UNL     1       5.263   3.476  12.975  0.00  0.00    +0.000 C 
ATOM     23  C   UNL     1       6.096   3.604  11.697  0.00  0.00    +0.000 C 
ATOM     24  C   UNL     1       7.199   4.603  12.037  0.00  0.00    +0.000 C 
ATOM     25  C   UNL     1       7.103   4.863  13.547  0.00  0.00    +0.000 C 
ENDBRANCH   7  21
BRANCH   1  27
ATOM     26  N   UNL     1       7.779   5.288  20.351  0.00  0.00    +0.000 NA
ATOM     27  C   UNL     1       6.915   5.493  19.587  0.00  0.00    +0.000 C 
ENDBRANCH   1  27
BRANCH   3  28
ATOM     28  C   UNL     1       4.557   3.008  18.917  0.00  0.00    +0.000 C 
BRANCH  28  29
ATOM     29  O   UNL     1       4.072   1.959  18.089  0.00  0.00    +0.000 OA
ATOM     30  H   UNL     1       3.332   1.542  18.569  0.00  0.00    +0.000 HD
ENDBRANCH  28  29
ENDBRANCH   3  28
TORSDOF 6
ENDMDL
MODEL 2
REMARK VINA RESULT:      -8.3      0.789      1.418
REMARK  Name = 
REMARK  6 active torsions:
REMARK  status: ('A' for Active; 'I' for Inactive)
REMARK    1  A    between atoms: C_2  and  C_3
REMARK    2  A    between atoms: C_4  and  C_5
REMARK    3  A    between atoms: C_8  and  C_9
REMARK    4  A    between atoms: C_17  and  C_18
REMARK    5  A    between atoms: C_18  and  O_19
REMARK    6  A    between atoms: N_23  and  C_24
REMARK                            x       y       z     vdW  Elec       q    Type
REMARK                         _______ _______ _______ _____ _____    ______ ____
ROOT
ATOM      1  C   UNL     1       5.467   6.077  18.346  0.00  0.00    +0.000 C 
ATOM      2  C   UNL     1       4.048   5.779  18.909  0.00  0.00    +0.000 C 
ATOM      3  C   UNL     1       3.921   4.641  17.858  0.00  0.00    +0.000 C 
ATOM      4  N   UNL     1       5.140   5.154  17.249  0.00  0.00    +0.000 N 
ATOM      5  C   UNL     1       5.720   5.157  16.009  0.00  0.00    +0.000 C 
ATOM      6  O   UNL     1       6.805   5.710  15.847  0.00  0.00    +0.000 OA
ATOM      7  N   UNL     1       5.030   4.499  15.013  0.00  0.00    +0.000 N 
ATOM      8  H   UNL     1       4.058   4.300  15.199  0.00  0.00    +0.000 HD
ENDROOT
BRANCH   2   9
ATOM      9  C   UNL     1       2.979   6.971  18.909  0.00  0.00    +0.000 A 
ATOM     10  C   UNL     1       2.759   7.804  17.795  0.00  0.00    +0.000 A 
ATOM     11  C   UNL     1       1.862   8.878  17.838  0.00  0.00    +0.000 A 
ATOM     12  C   UNL     1       1.125   9.143  18.995  0.00  0.00    +0.000 A 
ATOM     13  C   UNL     1       1.304   8.322  20.107  0.00  0.00    +0.000 A 
ATOM     14  C   UNL     1       2.219   7.262  20.062  0.00  0.00    +0.000 A 
BRANCH  12  15
ATOM     15  C   UNL     1       0.156  10.245  19.023  0.00  0.00    +0.000 C 
ATOM     16  C   UNL     1       0.296  11.226  19.935  0.00  0.00    +0.000 C 
ATOM     17  C   UNL     1      -0.665  12.370  20.063  0.00  0.00    +0.000 C 
ATOM     18  C   UNL     1      -1.981  12.121  19.325  0.00  0.00    +0.000 C 
ATOM     19  C   UNL     1      -1.727  11.552  17.933  0.00  0.00    +0.000 C 
ATOM     20  C   UNL     1      -0.959  10.225  18.007  0.00  0.00    +0.000 C 
ENDBRANCH  12  15
ENDBRANCH   2   9
BRANCH   7  21
ATOM     21  C   UNL     1       5.489   4.399  13.618  0.00  0.00    +0.000 C 
ATOM     22  C   UNL     1       6.956   3.979  13.407  0.00  0.00    +0.000 C 
ATOM     23  C   UNL     1       7.040   3.641  11.916  0.00  0.00    +0.000 C 
ATOM     24  C   UNL     1       5.655   3.116  11.547  0.00  0.00    +0.000 C 
ATOM     25  C   UNL     1       4.756   3.358  12.767  0.00  0.00    +0.000 C 
ENDBRANCH   7  21
BRANCH   1  27
ATOM     26  N   UNL     1       7.371   5.226  19.924  0.00  0.00    +0.000 NA
ATOM     27  C   UNL     1       6.551   5.617  19.184  0.00  0.00    +0.000 C 
ENDBRANCH   1  27
BRANCH   3  28
ATOM     28  C   UNL     1       4.103   3.242  18.441  0.00  0.00    +0.000 C 
BRANCH  28  29
ATOM     29  O   UNL     1       3.149   2.365  17.856  0.00  0.00    +0.000 OA
ATOM     30  H   UNL     1       3.555   1.479  17.838  0.00  0.00    +0.000 HD
ENDBRANCH  28  29
ENDBRANCH   3  28
TORSDOF 6
ENDMDL
MODEL 3
REMARK VINA RESULT:      -8.2      1.588      2.006
REMARK  Name = 
REMARK  6 active torsions:
REMARK  status: ('A' for Active; 'I' for Inactive)
REMARK    1  A    between atoms: C_2  and  C_3
REMARK    2  A    between atoms: C_4  and  C_5
REMARK    3  A    between atoms: C_8  and  C_9
REMARK    4  A    between atoms: C_17  and  C_18
REMARK    5  A    between atoms: C_18  and  O_19
REMARK    6  A    between atoms: N_23  and  C_24
REMARK                            x       y       z     vdW  Elec       q    Type
REMARK                         _______ _______ _______ _____ _____    ______ ____
ROOT
ATOM      1  C   UNL     1       4.508   4.456  18.929  0.00  0.00    +0.000 C 
ATOM      2  C   UNL     1       2.998   4.790  18.766  0.00  0.00    +0.000 C 
ATOM      3  C   UNL     1       3.042   4.096  17.377  0.00  0.00    +0.000 C 
ATOM      4  N   UNL     1       4.490   4.052  17.515  0.00  0.00    +0.000 N 
ATOM      5  C   UNL     1       5.578   4.015  16.686  0.00  0.00    +0.000 C 
ATOM      6  O   UNL     1       6.708   3.983  17.167  0.00  0.00    +0.000 OA
ATOM      7  N   UNL     1       5.313   3.993  15.333  0.00  0.00    +0.000 N 
ATOM      8  H   UNL     1       4.381   4.266  15.057  0.00  0.00    +0.000 HD
ENDROOT
BRANCH   2   9
ATOM      9  C   UNL     1       2.557   6.326  18.863  0.00  0.00    +0.000 A 
ATOM     10  C   UNL     1       2.045   6.905  20.040  0.00  0.00    +0.000 A 
ATOM     11  C   UNL     1       1.610   8.234  20.084  0.00  0.00    +0.000 A 
ATOM     12  C   UNL     1       1.698   9.050  18.953  0.00  0.00    +0.000 A 
ATOM     13  C   UNL     1       2.221   8.512  17.778  0.00  0.00    +0.000 A 
ATOM     14  C   UNL     1       2.636   7.175  17.737  0.00  0.00    +0.000 A 
BRANCH  12  15
ATOM     15  C   UNL     1       1.278  10.456  19.014  0.00  0.00    +0.000 C 
ATOM     16  C   UNL     1       0.221  10.798  19.774  0.00  0.00    +0.000 C 
ATOM     17  C   UNL     1      -0.302  12.200  19.868  0.00  0.00    +0.000 C 
ATOM     18  C   UNL     1       0.237  13.106  18.761  0.00  0.00    +0.000 C 
ATOM     19  C   UNL     1       1.739  12.913  18.581  0.00  0.00    +0.000 C 
ATOM     20  C   UNL     1       2.073  11.460  18.216  0.00  0.00    +0.000 C 
ENDBRANCH  12  15
ENDBRANCH   2   9
BRANCH   7  21
ATOM     21  C   UNL     1       6.349   3.960  14.288  0.00  0.00    +0.000 C 
ATOM     22  C   UNL     1       5.869   3.655  12.856  0.00  0.00    +0.000 C 
ATOM     23  C   UNL     1       7.067   4.014  11.974  0.00  0.00    +0.000 C 
ATOM     24  C   UNL     1       7.776   5.151  12.705  0.00  0.00    +0.000 C 
ATOM     25  C   UNL     1       7.099   5.277  14.077  0.00  0.00    +0.000 C 
ENDBRANCH   7  21
BRANCH   1  27
ATOM     26  N   UNL     1       4.960   2.435  20.524  0.00  0.00    +0.000 NA
ATOM     27  C   UNL     1       4.785   3.368  19.838  0.00  0.00    +0.000 C 
ENDBRANCH   1  27
BRANCH   3  28
ATOM     28  C   UNL     1       2.413   2.704  17.364  0.00  0.00    +0.000 C 
BRANCH  28  29
ATOM     29  O   UNL     1       1.101   2.780  17.908  0.00  0.00    +0.000 OA
ATOM     30  H   UNL     1       0.561   3.279  17.270  0.00  0.00    +0.000 HD
ENDBRANCH  28  29
ENDBRANCH   3  28
TORSDOF 6
ENDMDL
MODEL 4
REMARK VINA RESULT:      -8.2      5.737     10.589
REMARK  Name = 
REMARK  6 active torsions:
REMARK  status: ('A' for Active; 'I' for Inactive)
REMARK    1  A    between atoms: C_2  and  C_3
REMARK    2  A    between atoms: C_4  and  C_5
REMARK    3  A    between atoms: C_8  and  C_9
REMARK    4  A    between atoms: C_17  and  C_18
REMARK    5  A    between atoms: C_18  and  O_19
REMARK    6  A    between atoms: N_23  and  C_24
REMARK                            x       y       z     vdW  Elec       q    Type
REMARK                         _______ _______ _______ _____ _____    ______ ____
ROOT
ATOM      1  C   UNL     1       1.480  12.111  19.651  0.00  0.00    +0.000 C 
ATOM      2  C   UNL     1       0.934  10.974  18.741  0.00  0.00    +0.000 C 
ATOM      3  C   UNL     1      -0.503  11.398  19.152  0.00  0.00    +0.000 C 
ATOM      4  N   UNL     1       0.106  12.259  20.155  0.00  0.00    +0.000 N 
ATOM      5  C   UNL     1      -0.243  12.795  21.365  0.00  0.00    +0.000 C 
ATOM      6  O   UNL     1       0.555  13.511  21.965  0.00  0.00    +0.000 OA
ATOM      7  N   UNL     1      -1.511  12.498  21.820  0.00  0.00    +0.000 N 
ATOM      8  H   UNL     1      -1.974  11.720  21.373  0.00  0.00    +0.000 HD
ENDROOT
BRANCH   2   9
ATOM      9  C   UNL     1       1.427   9.480  19.035  0.00  0.00    +0.000 A 
ATOM     10  C   UNL     1       2.065   8.678  18.069  0.00  0.00    +0.000 A 
ATOM     11  C   UNL     1       2.433   7.353  18.331  0.00  0.00    +0.000 A 
ATOM     12  C   UNL     1       2.201   6.785  19.586  0.00  0.00    +0.000 A 
ATOM     13  C   UNL     1       1.591   7.560  20.570  0.00  0.00    +0.000 A 
ATOM     14  C   UNL     1       1.208   8.879  20.294  0.00  0.00    +0.000 A 
BRANCH  12  15
ATOM     15  C   UNL     1       2.624   5.408  19.869  0.00  0.00    +0.000 C 
ATOM     16  C   UNL     1       3.780   4.951  19.351  0.00  0.00    +0.000 C 
ATOM     17  C   UNL     1       4.273   3.550  19.556  0.00  0.00    +0.000 C 
ATOM     18  C   UNL     1       3.187   2.613  20.083  0.00  0.00    +0.000 C 
ATOM     19  C   UNL     1       2.404   3.268  21.216  0.00  0.00    +0.000 C 
ATOM     20  C   UNL     1       1.732   4.567  20.748  0.00  0.00    +0.000 C 
ENDBRANCH  12  15
ENDBRANCH   2   9
BRANCH   7  21
ATOM     21  C   UNL     1      -2.062  12.975  23.098  0.00  0.00    +0.000 C 
ATOM     22  C   UNL     1      -2.598  14.420  23.117  0.00  0.00    +0.000 C 
ATOM     23  C   UNL     1      -3.387  14.511  24.426  0.00  0.00    +0.000 C 
ATOM     24  C   UNL     1      -3.934  13.106  24.662  0.00  0.00    +0.000 C 
ATOM     25  C   UNL     1      -3.279  12.200  23.609  0.00  0.00    +0.000 C 
ENDBRANCH   7  21
BRANCH   1  27
ATOM     26  N   UNL     1       2.310  14.180  18.288  0.00  0.00    +0.000 NA
ATOM     27  C   UNL     1       1.961  13.270  18.937  0.00  0.00    +0.000 C 
ENDBRANCH   1  27
BRANCH   3  28
ATOM     28  C   UNL     1      -1.244  12.187  18.075  0.00  0.00    +0.000 C 
BRANCH  28  29
ATOM     29  O   UNL     1      -2.638  12.156  18.349  0.00  0.00    +0.000 OA
ATOM     30  H   UNL     1      -2.841  12.956  18.868  0.00  0.00    +0.000 HD
ENDBRANCH  28  29
ENDBRANCH   3  28
TORSDOF 6
ENDMDL
MODEL 5
REMARK VINA RESULT:      -8.2      5.847     10.581
REMARK  Name = 
REMARK  6 active torsions:
REMARK  status: ('A' for Active; 'I' for Inactive)
REMARK    1  A    between atoms: C_2  and  C_3
REMARK    2  A    between atoms: C_4  and  C_5
REMARK    3  A    between atoms: C_8  and  C_9
REMARK    4  A    between atoms: C_17  and  C_18
REMARK    5  A    between atoms: C_18  and  O_19
REMARK    6  A    between atoms: N_23  and  C_24
REMARK                            x       y       z     vdW  Elec       q    Type
REMARK                         _______ _______ _______ _____ _____    ______ ____
ROOT
ATOM      1  C   UNL     1       1.335  12.317  20.218  0.00  0.00    +0.000 C 
ATOM      2  C   UNL     1       1.063  11.314  19.060  0.00  0.00    +0.000 C 
ATOM      3  C   UNL     1      -0.419  11.780  19.068  0.00  0.00    +0.000 C 
ATOM      4  N   UNL     1      -0.123  12.495  20.300  0.00  0.00    +0.000 N 
ATOM      5  C   UNL     1      -0.810  12.924  21.403  0.00  0.00    +0.000 C 
ATOM      6  O   UNL     1      -0.214  13.525  22.294  0.00  0.00    +0.000 OA
ATOM      7  N   UNL     1      -2.163  12.659  21.420  0.00  0.00    +0.000 N 
ATOM      8  H   UNL     1      -2.489  11.961  20.767  0.00  0.00    +0.000 HD
ENDROOT
BRANCH   2   9
ATOM      9  C   UNL     1       1.403   9.771  19.313  0.00  0.00    +0.000 A 
ATOM     10  C   UNL     1       1.968   8.938  18.328  0.00  0.00    +0.000 A 
ATOM     11  C   UNL     1       2.200   7.576  18.552  0.00  0.00    +0.000 A 
ATOM     12  C   UNL     1       1.903   6.998  19.788  0.00  0.00    +0.000 A 
ATOM     13  C   UNL     1       1.363   7.801  20.791  0.00  0.00    +0.000 A 
ATOM     14  C   UNL     1       1.114   9.158  20.552  0.00  0.00    +0.000 A 
BRANCH  12  15
ATOM     15  C   UNL     1       2.185   5.578  20.033  0.00  0.00    +0.000 C 
ATOM     16  C   UNL     1       1.213   4.784  20.518  0.00  0.00    +0.000 C 
ATOM     17  C   UNL     1       1.420   3.332  20.834  0.00  0.00    +0.000 C 
ATOM     18  C   UNL     1       2.898   2.948  20.899  0.00  0.00    +0.000 C 
ATOM     19  C   UNL     1       3.668   3.542  19.724  0.00  0.00    +0.000 C 
ATOM     20  C   UNL     1       3.571   5.074  19.713  0.00  0.00    +0.000 C 
ENDBRANCH  12  15
ENDBRANCH   2   9
BRANCH   7  21
ATOM     21  C   UNL     1      -3.065  13.035  22.520  0.00  0.00    +0.000 C 
ATOM     22  C   UNL     1      -4.571  13.061  22.194  0.00  0.00    +0.000 C 
ATOM     23  C   UNL     1      -5.250  13.145  23.563  0.00  0.00    +0.000 C 
ATOM     24  C   UNL     1      -4.319  12.404  24.518  0.00  0.00    +0.000 C 
ATOM     25  C   UNL     1      -3.039  12.096  23.729  0.00  0.00    +0.000 C 
ENDBRANCH   7  21
BRANCH   1  27
ATOM     26  N   UNL     1       2.595  14.515  19.576  0.00  0.00    +0.000 NA
ATOM     27  C   UNL     1       2.042  13.512  19.821  0.00  0.00    +0.000 C 
ENDBRANCH   1  27
BRANCH   3  28
ATOM     28  C   UNL     1      -0.775  12.719  17.917  0.00  0.00    +0.000 C 
BRANCH  28  29
ATOM     29  O   UNL     1      -1.800  12.126  17.131  0.00  0.00    +0.000 OA
ATOM     30  H   UNL     1      -1.359  11.537  16.491  0.00  0.00    +0.000 HD
ENDBRANCH  28  29
ENDBRANCH   3  28
TORSDOF 6
ENDMDL
MODEL 6
REMARK VINA RESULT:      -8.1      1.583      1.871
REMARK  Name = 
REMARK  6 active torsions:
REMARK  status: ('A' for Active; 'I' for Inactive)
REMARK    1  A    between atoms: C_2  and  C_3
REMARK    2  A    between atoms: C_4  and  C_5
REMARK    3  A    between atoms: C_8  and  C_9
REMARK    4  A    between atoms: C_17  and  C_18
REMARK    5  A    between atoms: C_18  and  O_19
REMARK    6  A    between atoms: N_23  and  C_24
REMARK                            x       y       z     vdW  Elec       q    Type
REMARK                         _______ _______ _______ _____ _____    ______ ____
ROOT
ATOM      1  C   UNL     1       4.476   4.437  18.929  0.00  0.00    +0.000 C 
ATOM      2  C   UNL     1       2.955   4.711  18.757  0.00  0.00    +0.000 C 
ATOM      3  C   UNL     1       3.030   4.001  17.377  0.00  0.00    +0.000 C 
ATOM      4  N   UNL     1       4.479   4.014  17.520  0.00  0.00    +0.000 N 
ATOM      5  C   UNL     1       5.570   4.007  16.694  0.00  0.00    +0.000 C 
ATOM      6  O   UNL     1       6.699   4.024  17.179  0.00  0.00    +0.000 OA
ATOM      7  N   UNL     1       5.310   3.957  15.341  0.00  0.00    +0.000 N 
ATOM      8  H   UNL     1       4.369   4.190  15.059  0.00  0.00    +0.000 HD
ENDROOT
BRANCH   2   9
ATOM      9  C   UNL     1       2.456   6.231  18.832  0.00  0.00    +0.000 A 
ATOM     10  C   UNL     1       2.440   7.088  17.716  0.00  0.00    +0.000 A 
ATOM     11  C   UNL     1       2.057   8.431  17.817  0.00  0.00    +0.000 A 
ATOM     12  C   UNL     1       1.644   8.962  19.041  0.00  0.00    +0.000 A 
ATOM     13  C   UNL     1       1.628   8.131  20.161  0.00  0.00    +0.000 A 
ATOM     14  C   UNL     1       2.033   6.795  20.055  0.00  0.00    +0.000 A 
BRANCH  12  15
ATOM     15  C   UNL     1       1.204  10.360  19.137  0.00  0.00    +0.000 C 
ATOM     16  C   UNL     1       1.894  11.316  18.487  0.00  0.00    +0.000 C 
ATOM     17  C   UNL     1       1.542  12.772  18.557  0.00  0.00    +0.000 C 
ATOM     18  C   UNL     1       0.578  13.092  19.700  0.00  0.00    +0.000 C 
ATOM     19  C   UNL     1      -0.559  12.077  19.754  0.00  0.00    +0.000 C 
ATOM     20  C   UNL     1      -0.024  10.653  19.963  0.00  0.00    +0.000 C 
ENDBRANCH  12  15
ENDBRANCH   2   9
BRANCH   7  21
ATOM     21  C   UNL     1       6.350   3.949  14.300  0.00  0.00    +0.000 C 
ATOM     22  C   UNL     1       5.884   3.622  12.868  0.00  0.00    +0.000 C 
ATOM     23  C   UNL     1       7.074   4.012  11.988  0.00  0.00    +0.000 C 
ATOM     24  C   UNL     1       7.746   5.174  12.714  0.00  0.00    +0.000 C 
ATOM     25  C   UNL     1       7.061   5.288  14.083  0.00  0.00    +0.000 C 
ENDBRANCH   7  21
BRANCH   1  27
ATOM     26  N   UNL     1       5.025   2.453  20.539  0.00  0.00    +0.000 NA
ATOM     27  C   UNL     1       4.792   3.372  19.852  0.00  0.00    +0.000 C 
ENDBRANCH   1  27
BRANCH   3  28
ATOM     28  C   UNL     1       2.455   2.586  17.381  0.00  0.00    +0.000 C 
BRANCH  28  29
ATOM     29  O   UNL     1       1.170   2.607  17.989  0.00  0.00    +0.000 OA
ATOM     30  H   UNL     1       1.296   2.915  18.904  0.00  0.00    +0.000 HD
ENDBRANCH  28  29
ENDBRANCH   3  28
TORSDOF 6
ENDMDL
MODEL 7
REMARK VINA RESULT:      -8.0      5.640     10.617
REMARK  Name = 
REMARK  6 active torsions:
REMARK  status: ('A' for Active; 'I' for Inactive)
REMARK    1  A    between atoms: C_2  and  C_3
REMARK    2  A    between atoms: C_4  and  C_5
REMARK    3  A    between atoms: C_8  and  C_9
REMARK    4  A    between atoms: C_17  and  C_18
REMARK    5  A    between atoms: C_18  and  O_19
REMARK    6  A    between atoms: N_23  and  C_24
REMARK                            x       y       z     vdW  Elec       q    Type
REMARK                         _______ _______ _______ _____ _____    ______ ____
ROOT
ATOM      1  C   UNL     1       1.595  12.184  19.678  0.00  0.00    +0.000 C 
ATOM      2  C   UNL     1       1.022  11.114  18.706  0.00  0.00    +0.000 C 
ATOM      3  C   UNL     1      -0.404  11.615  19.069  0.00  0.00    +0.000 C 
ATOM      4  N   UNL     1       0.212  12.402  20.127  0.00  0.00    +0.000 N 
ATOM      5  C   UNL     1      -0.158  12.920  21.339  0.00  0.00    +0.000 C 
ATOM      6  O   UNL     1       0.654  13.563  21.998  0.00  0.00    +0.000 OA
ATOM      7  N   UNL     1      -1.461  12.690  21.729  0.00  0.00    +0.000 N 
ATOM      8  H   UNL     1      -1.951  11.958  21.235  0.00  0.00    +0.000 HD
ENDROOT
BRANCH   2   9
ATOM      9  C   UNL     1       1.407   9.583  18.968  0.00  0.00    +0.000 A 
ATOM     10  C   UNL     1       1.212   8.944  20.207  0.00  0.00    +0.000 A 
ATOM     11  C   UNL     1       1.612   7.622  20.431  0.00  0.00    +0.000 A 
ATOM     12  C   UNL     1       2.199   6.873  19.408  0.00  0.00    +0.000 A 
ATOM     13  C   UNL     1       2.384   7.470  18.163  0.00  0.00    +0.000 A 
ATOM     14  C   UNL     1       2.000   8.800  17.953  0.00  0.00    +0.000 A 
BRANCH  12  15
ATOM     15  C   UNL     1       2.580   5.473  19.635  0.00  0.00    +0.000 C 
ATOM     16  C   UNL     1       2.049   4.802  20.674  0.00  0.00    +0.000 C 
ATOM     17  C   UNL     1       2.407   3.384  21.004  0.00  0.00    +0.000 C 
ATOM     18  C   UNL     1       3.673   2.913  20.288  0.00  0.00    +0.000 C 
ATOM     19  C   UNL     1       3.654   3.323  18.820  0.00  0.00    +0.000 C 
ATOM     20  C   UNL     1       3.556   4.847  18.669  0.00  0.00    +0.000 C 
ENDBRANCH  12  15
ENDBRANCH   2   9
BRANCH   7  21
ATOM     21  C   UNL     1      -2.039  13.159  22.997  0.00  0.00    +0.000 C 
ATOM     22  C   UNL     1      -2.667  14.566  22.986  0.00  0.00    +0.000 C 
ATOM     23  C   UNL     1      -3.457  14.635  24.295  0.00  0.00    +0.000 C 
ATOM     24  C   UNL     1      -3.911  13.204  24.565  0.00  0.00    +0.000 C 
ATOM     25  C   UNL     1      -3.203  12.318  23.530  0.00  0.00    +0.000 C 
ENDBRANCH   7  21
BRANCH   1  27
ATOM     26  N   UNL     1       2.613  14.240  18.426  0.00  0.00    +0.000 NA
ATOM     27  C   UNL     1       2.179  13.333  19.027  0.00  0.00    +0.000 C 
ENDBRANCH   1  27
BRANCH   3  28
ATOM     28  C   UNL     1      -1.044  12.485  17.989  0.00  0.00    +0.000 C 
BRANCH  28  29
ATOM     29  O   UNL     1      -2.448  12.262  17.983  0.00  0.00    +0.000 OA
ATOM     30  H   UNL     1      -2.615  11.532  17.359  0.00  0.00    +0.000 HD
ENDBRANCH  28  29
ENDBRANCH   3  28
TORSDOF 6
ENDMDL
MODEL 8
REMARK VINA RESULT:      -7.9      5.798     10.697
REMARK  Name = 
REMARK  6 active torsions:
REMARK  status: ('A' for Active; 'I' for Inactive)
REMARK    1  A    between atoms: C_2  and  C_3
REMARK    2  A    between atoms: C_4  and  C_5
REMARK    3  A    between atoms: C_8  and  C_9
REMARK    4  A    between atoms: C_17  and  C_18
REMARK    5  A    between atoms: C_18  and  O_19
REMARK    6  A    between atoms: N_23  and  C_24
REMARK                            x       y       z     vdW  Elec       q    Type
REMARK                         _______ _______ _______ _____ _____    ______ ____
ROOT
ATOM      1  C   UNL     1       1.167  12.078  20.579  0.00  0.00    +0.000 C 
ATOM      2  C   UNL     1       1.055  11.168  19.323  0.00  0.00    +0.000 C 
ATOM      3  C   UNL     1      -0.415  11.646  19.165  0.00  0.00    +0.000 C 
ATOM      4  N   UNL     1      -0.288  12.264  20.476  0.00  0.00    +0.000 N 
ATOM      5  C   UNL     1      -1.119  12.617  21.505  0.00  0.00    +0.000 C 
ATOM      6  O   UNL     1      -0.650  13.144  22.511  0.00  0.00    +0.000 OA
ATOM      7  N   UNL     1      -2.462  12.366  21.318  0.00  0.00    +0.000 N 
ATOM      8  H   UNL     1      -2.696  11.722  20.577  0.00  0.00    +0.000 HD
ENDROOT
BRANCH   2   9
ATOM      9  C   UNL     1       1.358   9.606  19.503  0.00  0.00    +0.000 A 
ATOM     10  C   UNL     1       1.111   8.910  20.702  0.00  0.00    +0.000 A 
ATOM     11  C   UNL     1       1.440   7.558  20.855  0.00  0.00    +0.000 A 
ATOM     12  C   UNL     1       2.004   6.839  19.799  0.00  0.00    +0.000 A 
ATOM     13  C   UNL     1       2.239   7.495  18.591  0.00  0.00    +0.000 A 
ATOM     14  C   UNL     1       1.926   8.853  18.453  0.00  0.00    +0.000 A 
BRANCH  12  15
ATOM     15  C   UNL     1       2.310   5.410  19.950  0.00  0.00    +0.000 C 
ATOM     16  C   UNL     1       3.516   4.949  19.571  0.00  0.00    +0.000 C 
ATOM     17  C   UNL     1       3.904   3.502  19.653  0.00  0.00    +0.000 C 
ATOM     18  C   UNL     1       2.701   2.580  19.855  0.00  0.00    +0.000 C 
ATOM     19  C   UNL     1       1.764   3.132  20.923  0.00  0.00    +0.000 C 
ATOM     20  C   UNL     1       1.242   4.523  20.540  0.00  0.00    +0.000 C 
ENDBRANCH  12  15
ENDBRANCH   2   9
BRANCH   7  21
ATOM     21  C   UNL     1      -3.505  12.668  22.311  0.00  0.00    +0.000 C 
ATOM     22  C   UNL     1      -3.277  12.122  23.733  0.00  0.00    +0.000 C 
ATOM     23  C   UNL     1      -4.311  12.857  24.588  0.00  0.00    +0.000 C 
ATOM     24  C   UNL     1      -4.487  14.218  23.922  0.00  0.00    +0.000 C 
ATOM     25  C   UNL     1      -3.717  14.157  22.595  0.00  0.00    +0.000 C 
ENDBRANCH   7  21
BRANCH   1  27
ATOM     26  N   UNL     1       2.603  14.228  20.196  0.00  0.00    +0.000 NA
ATOM     27  C   UNL     1       1.921  13.293  20.372  0.00  0.00    +0.000 C 
ENDBRANCH   1  27
BRANCH   3  28
ATOM     28  C   UNL     1      -0.611  12.673  18.050  0.00  0.00    +0.000 C 
BRANCH  28  29
ATOM     29  O   UNL     1      -1.678  12.252  17.211  0.00  0.00    +0.000 OA
ATOM     30  H   UNL     1      -1.774  11.290  17.338  0.00  0.00    +0.000 HD
ENDBRANCH  28  29
ENDBRANCH   3  28
TORSDOF 6
ENDMDL
MODEL 9
REMARK VINA RESULT:      -7.7      5.829     10.760
REMARK  Name = 
REMARK  6 active torsions:
REMARK  status: ('A' for Active; 'I' for Inactive)
REMARK    1  A    between atoms: C_2  and  C_3
REMARK    2  A    between atoms: C_4  and  C_5
REMARK    3  A    between atoms: C_8  and  C_9
REMARK    4  A    between atoms: C_17  and  C_18
REMARK    5  A    between atoms: C_18  and  O_19
REMARK    6  A    between atoms: N_23  and  C_24
REMARK                            x       y       z     vdW  Elec       q    Type
REMARK                         _______ _______ _______ _____ _____    ______ ____
ROOT
ATOM      1  C   UNL     1       1.273  12.205  20.498  0.00  0.00    +0.000 C 
ATOM      2  C   UNL     1       1.051  11.254  19.288  0.00  0.00    +0.000 C 
ATOM      3  C   UNL     1      -0.413  11.769  19.210  0.00  0.00    +0.000 C 
ATOM      4  N   UNL     1      -0.181  12.430  20.486  0.00  0.00    +0.000 N 
ATOM      5  C   UNL     1      -0.930  12.843  21.555  0.00  0.00    +0.000 C 
ATOM      6  O   UNL     1      -0.380  13.392  22.506  0.00  0.00    +0.000 OA
ATOM      7  N   UNL     1      -2.288  12.624  21.468  0.00  0.00    +0.000 N 
ATOM      8  H   UNL     1      -2.589  11.961  20.769  0.00  0.00    +0.000 HD
ENDROOT
BRANCH   2   9
ATOM      9  C   UNL     1       1.323   9.692  19.505  0.00  0.00    +0.000 A 
ATOM     10  C   UNL     1       1.037   9.024  20.711  0.00  0.00    +0.000 A 
ATOM     11  C   UNL     1       1.340   7.670  20.899  0.00  0.00    +0.000 A 
ATOM     12  C   UNL     1       1.917   6.921  19.871  0.00  0.00    +0.000 A 
ATOM     13  C   UNL     1       2.191   7.548  18.657  0.00  0.00    +0.000 A 
ATOM     14  C   UNL     1       1.904   8.908  18.484  0.00  0.00    +0.000 A 
BRANCH  12  15
ATOM     15  C   UNL     1       2.196   5.491  20.058  0.00  0.00    +0.000 C 
ATOM     16  C   UNL     1       1.230   4.686  20.538  0.00  0.00    +0.000 C 
ATOM     17  C   UNL     1       1.435   3.223  20.796  0.00  0.00    +0.000 C 
ATOM     18  C   UNL     1       2.911   2.828  20.810  0.00  0.00    +0.000 C 
ATOM     19  C   UNL     1       3.656   3.459  19.639  0.00  0.00    +0.000 C 
ATOM     20  C   UNL     1       3.569   4.991  19.685  0.00  0.00    +0.000 C 
ENDBRANCH  12  15
ENDBRANCH   2   9
BRANCH   7  21
ATOM     21  C   UNL     1      -3.253  12.992  22.516  0.00  0.00    +0.000 C 
ATOM     22  C   UNL     1      -3.328  14.486  22.886  0.00  0.00    +0.000 C 
ATOM     23  C   UNL     1      -4.605  14.603  23.721  0.00  0.00    +0.000 C 
ATOM     24  C   UNL     1      -5.543  13.533  23.169  0.00  0.00    +0.000 C 
ATOM     25  C   UNL     1      -4.717  12.695  22.183  0.00  0.00    +0.000 C 
ENDBRANCH   7  21
BRANCH   1  27
ATOM     26  N   UNL     1       2.695  14.309  19.878  0.00  0.00    +0.000 NA
ATOM     27  C   UNL     1       2.043  13.389  20.195  0.00  0.00    +0.000 C 
ENDBRANCH   1  27
BRANCH   3  28
ATOM     28  C   UNL     1      -0.657  12.760  18.074  0.00  0.00    +0.000 C 
BRANCH  28  29
ATOM     29  O   UNL     1      -1.661  12.242  17.210  0.00  0.00    +0.000 OA
ATOM     30  H   UNL     1      -1.851  12.935  16.553  0.00  0.00    +0.000 HD
ENDBRANCH  28  29
ENDBRANCH   3  28
TORSDOF 6
ENDMDL
