MODEL 1
REMARK VINA RESULT:      -7.2      0.000      0.000
REMARK  Name = 
REMARK  4 active torsions:
REMARK  status: ('A' for Active; 'I' for Inactive)
REMARK    1  A    between atoms: C_1  and  C_2
REMARK    2  A    between atoms: C_5  and  C_6
REMARK    3  A    between atoms: C_6  and  N_7
REMARK    4  A    between atoms: C_6  and  C_15
REMARK                            x       y       z     vdW  Elec       q    Type
REMARK                         _______ _______ _______ _____ _____    ______ ____
ROOT
ATOM      1  C   UNL     1       5.700   5.443  16.975  0.00  0.00    +0.000 C 
ENDROOT
BRANCH   1   2
ATOM      2  N   UNL     1       4.584   4.625  17.477  0.00  0.00    +0.000 N 
ATOM      3  C   UNL     1       3.521   5.123  18.169  0.00  0.00    +0.000 C 
ATOM      4  O   UNL     1       3.397   6.309  18.427  0.00  0.00    +0.000 OA
ATOM      5  N   UNL     1       2.612   4.148  18.531  0.00  0.00    +0.000 N 
ATOM      6  C   UNL     1       1.402   4.455  19.263  0.00  0.00    +0.000 C 
ATOM      7  C   UNL     1       0.907   3.089  19.717  0.00  0.00    +0.000 C 
ATOM      8  C   UNL     1       1.314   2.159  18.575  0.00  0.00    +0.000 C 
ATOM      9  C   UNL     1       2.537   2.813  17.958  0.00  0.00    +0.000 C 
ATOM     10  H   UNL     1       4.797   3.658  17.660  0.00  0.00    +0.000 HD
ENDBRANCH   1   2
BRANCH   1  15
ATOM     11  C   UNL     1       6.852   3.628  11.522  0.00  0.00    +0.000 C 
ATOM     12  C   UNL     1       6.561   4.035  12.935  0.00  0.00    +0.000 A 
ATOM     13  C   UNL     1       5.477   3.506  13.641  0.00  0.00    +0.000 A 
ATOM     14  C   UNL     1       5.205   3.933  14.947  0.00  0.00    +0.000 A 
ATOM     15  C   UNL     1       6.020   4.892  15.581  0.00  0.00    +0.000 A 
ATOM     16  C   UNL     1       7.109   5.412  14.865  0.00  0.00    +0.000 A 
ATOM     17  C   UNL     1       7.366   4.984  13.564  0.00  0.00    +0.000 A 
ATOM     18  F   UNL     1       8.405   5.519  12.905  0.00  0.00    +0.000 F 
ENDBRANCH   1  15
BRANCH   1  19
ATOM     19  C   UNL     1       6.927   5.650  17.972  0.00  0.00    +0.000 C 
ATOM     20 CL   UNL     1       6.478   5.547  19.730  0.00  0.00    +0.000 Cl
ATOM     21 CL   UNL     1       8.174   4.361  17.727  0.00  0.00    +0.000 Cl
ATOM     22 CL   UNL     1       7.739   7.254  17.777  0.00  0.00    +0.000 Cl
ENDBRANCH   1  19
TORSDOF 3
ENDMDL
MODEL 2
REMARK VINA RESULT:      -7.1      0.043      1.093
REMARK  Name = 
REMARK  4 active torsions:
REMARK  status: ('A' for Active; 'I' for Inactive)
REMARK    1  A    between atoms: C_1  and  C_2
REMARK    2  A    between atoms: C_5  and  C_6
REMARK    3  A    between atoms: C_6  and  N_7
REMARK    4  A    between atoms: C_6  and  C_15
REMARK                            x       y       z     vdW  Elec       q    Type
REMARK                         _______ _______ _______ _____ _____    ______ ____
ROOT
ATOM      1  C   UNL     1       5.687   5.412  16.996  0.00  0.00    +0.000 C 
ENDROOT
BRANCH   1   2
ATOM      2  N   UNL     1       4.564   4.598  17.490  0.00  0.00    +0.000 N 
ATOM      3  C   UNL     1       3.504   5.097  18.185  0.00  0.00    +0.000 C 
ATOM      4  O   UNL     1       3.389   6.281  18.454  0.00  0.00    +0.000 OA
ATOM      5  N   UNL     1       2.587   4.126  18.538  0.00  0.00    +0.000 N 
ATOM      6  C   UNL     1       1.379   4.435  19.272  0.00  0.00    +0.000 C 
ATOM      7  C   UNL     1       0.873   3.069  19.713  0.00  0.00    +0.000 C 
ATOM      8  C   UNL     1       1.274   2.146  18.563  0.00  0.00    +0.000 C 
ATOM      9  C   UNL     1       2.503   2.796  17.953  0.00  0.00    +0.000 C 
ATOM     10  H   UNL     1       4.770   3.628  17.665  0.00  0.00    +0.000 HD
ENDBRANCH   1   2
BRANCH   1  15
ATOM     11  C   UNL     1       6.833   3.632  11.531  0.00  0.00    +0.000 C 
ATOM     12  C   UNL     1       6.543   4.030  12.947  0.00  0.00    +0.000 A 
ATOM     13  C   UNL     1       5.459   3.498  13.650  0.00  0.00    +0.000 A 
ATOM     14  C   UNL     1       5.188   3.916  14.959  0.00  0.00    +0.000 A 
ATOM     15  C   UNL     1       6.005   4.870  15.598  0.00  0.00    +0.000 A 
ATOM     16  C   UNL     1       7.095   5.393  14.885  0.00  0.00    +0.000 A 
ATOM     17  C   UNL     1       7.350   4.974  13.582  0.00  0.00    +0.000 A 
ATOM     18  F   UNL     1       8.390   5.511  12.926  0.00  0.00    +0.000 F 
ENDBRANCH   1  15
BRANCH   1  19
ATOM     19  C   UNL     1       6.913   5.603  17.997  0.00  0.00    +0.000 C 
ATOM     20 CL   UNL     1       8.231   4.368  17.795  0.00  0.00    +0.000 Cl
ATOM     21 CL   UNL     1       7.718   7.201  17.724  0.00  0.00    +0.000 Cl
ATOM     22 CL   UNL     1       6.433   5.511  19.737  0.00  0.00    +0.000 Cl
ENDBRANCH   1  19
TORSDOF 3
ENDMDL
MODEL 3
REMARK VINA RESULT:      -7.1      0.066      1.096
REMARK  Name = 
REMARK  4 active torsions:
REMARK  status: ('A' for Active; 'I' for Inactive)
REMARK    1  A    between atoms: C_1  and  C_2
REMARK    2  A    between atoms: C_5  and  C_6
REMARK    3  A    between atoms: C_6  and  N_7
REMARK    4  A    between atoms: C_6  and  C_15
REMARK                            x       y       z     vdW  Elec       q    Type
REMARK                         _______ _______ _______ _____ _____    ______ ____
ROOT
ATOM      1  C   UNL     1       5.734   5.396  17.013  0.00  0.00    +0.000 C 
ENDROOT
BRANCH   1   2
ATOM      2  N   UNL     1       4.616   4.576  17.509  0.00  0.00    +0.000 N 
ATOM      3  C   UNL     1       3.527   5.077  18.157  0.00  0.00    +0.000 C 
ATOM      4  O   UNL     1       3.381   6.268  18.378  0.00  0.00    +0.000 OA
ATOM      5  N   UNL     1       2.622   4.100  18.522  0.00  0.00    +0.000 N 
ATOM      6  C   UNL     1       1.389   4.410  19.212  0.00  0.00    +0.000 C 
ATOM      7  C   UNL     1       0.900   3.050  19.691  0.00  0.00    +0.000 C 
ATOM      8  C   UNL     1       1.351   2.094  18.587  0.00  0.00    +0.000 C 
ATOM      9  C   UNL     1       2.582   2.748  17.985  0.00  0.00    +0.000 C 
ATOM     10  H   UNL     1       4.837   3.618  17.724  0.00  0.00    +0.000 HD
ENDBRANCH   1   2
BRANCH   1  15
ATOM     11  C   UNL     1       6.868   3.631  11.541  0.00  0.00    +0.000 C 
ATOM     12  C   UNL     1       6.583   4.026  12.958  0.00  0.00    +0.000 A 
ATOM     13  C   UNL     1       5.515   3.474  13.671  0.00  0.00    +0.000 A 
ATOM     14  C   UNL     1       5.247   3.889  14.982  0.00  0.00    +0.000 A 
ATOM     15  C   UNL     1       6.051   4.858  15.614  0.00  0.00    +0.000 A 
ATOM     16  C   UNL     1       7.125   5.401  14.891  0.00  0.00    +0.000 A 
ATOM     17  C   UNL     1       7.377   4.984  13.585  0.00  0.00    +0.000 A 
ATOM     18  F   UNL     1       8.401   5.541  12.920  0.00  0.00    +0.000 F 
ENDBRANCH   1  15
BRANCH   1  19
ATOM     19  C   UNL     1       6.962   5.589  18.011  0.00  0.00    +0.000 C 
ATOM     20 CL   UNL     1       7.799   7.194  17.853  0.00  0.00    +0.000 Cl
ATOM     21 CL   UNL     1       6.405   5.514  19.732  0.00  0.00    +0.000 Cl
ATOM     22 CL   UNL     1       8.259   4.349  17.791  0.00  0.00    +0.000 Cl
ENDBRANCH   1  19
TORSDOF 3
ENDMDL
MODEL 4
REMARK VINA RESULT:      -7.1      3.395      4.585
REMARK  Name = 
REMARK  4 active torsions:
REMARK  status: ('A' for Active; 'I' for Inactive)
REMARK    1  A    between atoms: C_1  and  C_2
REMARK    2  A    between atoms: C_5  and  C_6
REMARK    3  A    between atoms: C_6  and  N_7
REMARK    4  A    between atoms: C_6  and  C_15
REMARK                            x       y       z     vdW  Elec       q    Type
REMARK                         _______ _______ _______ _____ _____    ______ ____
ROOT
ATOM      1  C   UNL     1       3.547   4.447  19.016  0.00  0.00    +0.000 C 
ENDROOT
BRANCH   1   2
ATOM      2  N   UNL     1       2.895   5.767  18.989  0.00  0.00    +0.000 N 
ATOM      3  C   UNL     1       2.356   6.378  20.081  0.00  0.00    +0.000 C 
ATOM      4  O   UNL     1       2.377   5.878  21.194  0.00  0.00    +0.000 OA
ATOM      5  N   UNL     1       1.801   7.608  19.790  0.00  0.00    +0.000 N 
ATOM      6  C   UNL     1       1.182   8.435  20.804  0.00  0.00    +0.000 C 
ATOM      7  C   UNL     1       0.440   9.490  19.996  0.00  0.00    +0.000 C 
ATOM      8  C   UNL     1       1.333   9.704  18.774  0.00  0.00    +0.000 C 
ATOM      9  C   UNL     1       2.057   8.383  18.586  0.00  0.00    +0.000 C 
ATOM     10  H   UNL     1       2.493   6.039  18.107  0.00  0.00    +0.000 HD
ENDBRANCH   1   2
BRANCH   1  15
ATOM     11  C   UNL     1       7.549   4.804  14.749  0.00  0.00    +0.000 C 
ATOM     12  C   UNL     1       6.500   4.667  15.811  0.00  0.00    +0.000 A 
ATOM     13  C   UNL     1       5.139   4.759  15.511  0.00  0.00    +0.000 A 
ATOM     14  C   UNL     1       4.180   4.666  16.529  0.00  0.00    +0.000 A 
ATOM     15  C   UNL     1       4.564   4.467  17.870  0.00  0.00    +0.000 A 
ATOM     16  C   UNL     1       5.934   4.370  18.159  0.00  0.00    +0.000 A 
ATOM     17  C   UNL     1       6.878   4.470  17.139  0.00  0.00    +0.000 A 
ATOM     18  F   UNL     1       8.179   4.392  17.457  0.00  0.00    +0.000 F 
ENDBRANCH   1  15
BRANCH   1  19
ATOM     19  C   UNL     1       2.578   3.184  19.105  0.00  0.00    +0.000 C 
ATOM     20 CL   UNL     1       3.227   1.695  18.289  0.00  0.00    +0.000 Cl
ATOM     21 CL   UNL     1       2.314   2.701  20.829  0.00  0.00    +0.000 Cl
ATOM     22 CL   UNL     1       0.960   3.475  18.353  0.00  0.00    +0.000 Cl
ENDBRANCH   1  19
TORSDOF 3
ENDMDL
MODEL 5
REMARK VINA RESULT:      -7.1      3.400      4.554
REMARK  Name = 
REMARK  4 active torsions:
REMARK  status: ('A' for Active; 'I' for Inactive)
REMARK    1  A    between atoms: C_1  and  C_2
REMARK    2  A    between atoms: C_5  and  C_6
REMARK    3  A    between atoms: C_6  and  N_7
REMARK    4  A    between atoms: C_6  and  C_15
REMARK                            x       y       z     vdW  Elec       q    Type
REMARK                         _______ _______ _______ _____ _____    ______ ____
ROOT
ATOM      1  C   UNL     1       3.549   4.497  19.017  0.00  0.00    +0.000 C 
ENDROOT
BRANCH   1   2
ATOM      2  N   UNL     1       2.894   5.815  18.974  0.00  0.00    +0.000 N 
ATOM      3  C   UNL     1       2.341   6.431  20.056  0.00  0.00    +0.000 C 
ATOM      4  O   UNL     1       2.350   5.938  21.172  0.00  0.00    +0.000 OA
ATOM      5  N   UNL     1       1.787   7.658  19.752  0.00  0.00    +0.000 N 
ATOM      6  C   UNL     1       1.154   8.490  20.753  0.00  0.00    +0.000 C 
ATOM      7  C   UNL     1       0.420   9.539  19.931  0.00  0.00    +0.000 C 
ATOM      8  C   UNL     1       1.326   9.747  18.718  0.00  0.00    +0.000 C 
ATOM      9  C   UNL     1       2.055   8.427  18.546  0.00  0.00    +0.000 C 
ATOM     10  H   UNL     1       2.502   6.081  18.086  0.00  0.00    +0.000 HD
ENDBRANCH   1   2
BRANCH   1  15
ATOM     11  C   UNL     1       7.538   4.796  14.734  0.00  0.00    +0.000 C 
ATOM     12  C   UNL     1       6.491   4.675  15.799  0.00  0.00    +0.000 A 
ATOM     13  C   UNL     1       5.131   4.804  15.507  0.00  0.00    +0.000 A 
ATOM     14  C   UNL     1       4.175   4.724  16.528  0.00  0.00    +0.000 A 
ATOM     15  C   UNL     1       4.561   4.503  17.865  0.00  0.00    +0.000 A 
ATOM     16  C   UNL     1       5.929   4.369  18.147  0.00  0.00    +0.000 A 
ATOM     17  C   UNL     1       6.870   4.456  17.123  0.00  0.00    +0.000 A 
ATOM     18  F   UNL     1       8.170   4.342  17.434  0.00  0.00    +0.000 F 
ENDBRANCH   1  15
BRANCH   1  19
ATOM     19  C   UNL     1       2.583   3.234  19.127  0.00  0.00    +0.000 C 
ATOM     20 CL   UNL     1       0.950   3.482  18.369  0.00  0.00    +0.000 Cl
ATOM     21 CL   UNL     1       3.292   1.810  18.262  0.00  0.00    +0.000 Cl
ATOM     22 CL   UNL     1       2.249   2.740  20.834  0.00  0.00    +0.000 Cl
ENDBRANCH   1  19
TORSDOF 3
ENDMDL
MODEL 6
REMARK VINA RESULT:      -7.0      3.746      5.077
REMARK  Name = 
REMARK  4 active torsions:
REMARK  status: ('A' for Active; 'I' for Inactive)
REMARK    1  A    between atoms: C_1  and  C_2
REMARK    2  A    between atoms: C_5  and  C_6
REMARK    3  A    between atoms: C_6  and  N_7
REMARK    4  A    between atoms: C_6  and  C_15
REMARK                            x       y       z     vdW  Elec       q    Type
REMARK                         _______ _______ _______ _____ _____    ______ ____
ROOT
ATOM      1  C   UNL     1       3.139   5.466  19.328  0.00  0.00    +0.000 C 
ENDROOT
BRANCH   1   2
ATOM      2  N   UNL     1       2.482   6.763  19.099  0.00  0.00    +0.000 N 
ATOM      3  C   UNL     1       1.946   7.535  20.086  0.00  0.00    +0.000 C 
ATOM      4  O   UNL     1       1.972   7.214  21.263  0.00  0.00    +0.000 OA
ATOM      5  N   UNL     1       1.385   8.704  19.610  0.00  0.00    +0.000 N 
ATOM      6  C   UNL     1       0.767   9.676  20.486  0.00  0.00    +0.000 C 
ATOM      7  C   UNL     1       0.019  10.591  19.527  0.00  0.00    +0.000 C 
ATOM      8  C   UNL     1       0.906  10.615  18.282  0.00  0.00    +0.000 C 
ATOM      9  C   UNL     1       1.634   9.283  18.299  0.00  0.00    +0.000 C 
ATOM     10  H   UNL     1       2.076   6.894  18.187  0.00  0.00    +0.000 HD
ENDBRANCH   1   2
BRANCH   1  15
ATOM     11  C   UNL     1       7.411   5.099  15.333  0.00  0.00    +0.000 C 
ATOM     12  C   UNL     1       6.359   5.214  16.394  0.00  0.00    +0.000 A 
ATOM     13  C   UNL     1       6.486   4.565  17.625  0.00  0.00    +0.000 A 
ATOM     14  C   UNL     1       5.469   4.658  18.584  0.00  0.00    +0.000 A 
ATOM     15  C   UNL     1       4.307   5.414  18.336  0.00  0.00    +0.000 A 
ATOM     16  C   UNL     1       4.192   6.067  17.099  0.00  0.00    +0.000 A 
ATOM     17  C   UNL     1       5.207   5.962  16.151  0.00  0.00    +0.000 A 
ATOM     18  F   UNL     1       5.053   6.584  14.973  0.00  0.00    +0.000 F 
ENDBRANCH   1  15
BRANCH   1  19
ATOM     19  C   UNL     1       2.182   4.192  19.388  0.00  0.00    +0.000 C 
ATOM     20 CL   UNL     1       0.838   4.333  20.603  0.00  0.00    +0.000 Cl
ATOM     21 CL   UNL     1       1.355   3.940  17.797  0.00  0.00    +0.000 Cl
ATOM     22 CL   UNL     1       3.053   2.666  19.811  0.00  0.00    +0.000 Cl
ENDBRANCH   1  19
TORSDOF 3
ENDMDL
MODEL 7
REMARK VINA RESULT:      -6.9      3.542      4.773
REMARK  Name = 
REMARK  4 active torsions:
REMARK  status: ('A' for Active; 'I' for Inactive)
REMARK    1  A    between atoms: C_1  and  C_2
REMARK    2  A    between atoms: C_5  and  C_6
REMARK    3  A    between atoms: C_6  and  N_7
REMARK    4  A    between atoms: C_6  and  C_15
REMARK                            x       y       z     vdW  Elec       q    Type
REMARK                         _______ _______ _______ _____ _____    ______ ____
ROOT
ATOM      1  C   UNL     1       3.296   4.844  19.119  0.00  0.00    +0.000 C 
ENDROOT
BRANCH   1   2
ATOM      2  N   UNL     1       2.678   6.167  18.939  0.00  0.00    +0.000 N 
ATOM      3  C   UNL     1       2.140   6.905  19.951  0.00  0.00    +0.000 C 
ATOM      4  O   UNL     1       2.134   6.528  21.111  0.00  0.00    +0.000 OA
ATOM      5  N   UNL     1       1.620   8.110  19.520  0.00  0.00    +0.000 N 
ATOM      6  C   UNL     1       1.009   9.056  20.429  0.00  0.00    +0.000 C 
ATOM      7  C   UNL     1       0.305  10.035  19.500  0.00  0.00    +0.000 C 
ATOM      8  C   UNL     1       1.218  10.094  18.276  0.00  0.00    +0.000 C 
ATOM      9  C   UNL     1       1.912   8.743  18.243  0.00  0.00    +0.000 C 
ATOM     10  H   UNL     1       2.295   6.352  18.027  0.00  0.00    +0.000 HD
ENDBRANCH   1   2
BRANCH   1  15
ATOM     11  C   UNL     1       7.474   4.817  15.008  0.00  0.00    +0.000 C 
ATOM     12  C   UNL     1       6.401   4.764  16.054  0.00  0.00    +0.000 A 
ATOM     13  C   UNL     1       5.142   4.221  15.784  0.00  0.00    +0.000 A 
ATOM     14  C   UNL     1       4.145   4.219  16.768  0.00  0.00    +0.000 A 
ATOM     15  C   UNL     1       4.390   4.751  18.049  0.00  0.00    +0.000 A 
ATOM     16  C   UNL     1       5.660   5.289  18.311  0.00  0.00    +0.000 A 
ATOM     17  C   UNL     1       6.642   5.291  17.322  0.00  0.00    +0.000 A 
ATOM     18  F   UNL     1       7.836   5.831  17.604  0.00  0.00    +0.000 F 
ENDBRANCH   1  15
BRANCH   1  19
ATOM     19  C   UNL     1       2.295   3.609  19.239  0.00  0.00    +0.000 C 
ATOM     20 CL   UNL     1       1.433   3.508  20.836  0.00  0.00    +0.000 Cl
ATOM     21 CL   UNL     1       0.980   3.729  18.000  0.00  0.00    +0.000 Cl
ATOM     22 CL   UNL     1       3.110   2.009  19.033  0.00  0.00    +0.000 Cl
ENDBRANCH   1  19
TORSDOF 3
ENDMDL
MODEL 8
REMARK VINA RESULT:      -6.9      3.738      5.128
REMARK  Name = 
REMARK  4 active torsions:
REMARK  status: ('A' for Active; 'I' for Inactive)
REMARK    1  A    between atoms: C_1  and  C_2
REMARK    2  A    between atoms: C_5  and  C_6
REMARK    3  A    between atoms: C_6  and  N_7
REMARK    4  A    between atoms: C_6  and  C_15
REMARK                            x       y       z     vdW  Elec       q    Type
REMARK                         _______ _______ _______ _____ _____    ______ ____
ROOT
ATOM      1  C   UNL     1       3.098   5.403  19.301  0.00  0.00    +0.000 C 
ENDROOT
BRANCH   1   2
ATOM      2  N   UNL     1       2.479   6.720  19.080  0.00  0.00    +0.000 N 
ATOM      3  C   UNL     1       1.935   7.486  20.068  0.00  0.00    +0.000 C 
ATOM      4  O   UNL     1       1.923   7.143  21.238  0.00  0.00    +0.000 OA
ATOM      5  N   UNL     1       1.415   8.677  19.600  0.00  0.00    +0.000 N 
ATOM      6  C   UNL     1       0.798   9.647  20.478  0.00  0.00    +0.000 C 
ATOM      7  C   UNL     1       0.097  10.598  19.518  0.00  0.00    +0.000 C 
ATOM      8  C   UNL     1       1.016  10.624  18.297  0.00  0.00    +0.000 C 
ATOM      9  C   UNL     1       1.712   9.274  18.307  0.00  0.00    +0.000 C 
ATOM     10  H   UNL     1       2.100   6.878  18.161  0.00  0.00    +0.000 HD
ENDBRANCH   1   2
BRANCH   1  15
ATOM     11  C   UNL     1       7.584   5.037  15.547  0.00  0.00    +0.000 C 
ATOM     12  C   UNL     1       6.474   5.158  16.546  0.00  0.00    +0.000 A 
ATOM     13  C   UNL     1       6.581   4.617  17.830  0.00  0.00    +0.000 A 
ATOM     14  C   UNL     1       5.513   4.710  18.732  0.00  0.00    +0.000 A 
ATOM     15  C   UNL     1       4.316   5.359  18.371  0.00  0.00    +0.000 A 
ATOM     16  C   UNL     1       4.220   5.904  17.081  0.00  0.00    +0.000 A 
ATOM     17  C   UNL     1       5.288   5.800  16.192  0.00  0.00    +0.000 A 
ATOM     18  F   UNL     1       5.151   6.316  14.961  0.00  0.00    +0.000 F 
ENDBRANCH   1  15
BRANCH   1  19
ATOM     19  C   UNL     1       2.116   4.148  19.269  0.00  0.00    +0.000 C 
ATOM     20 CL   UNL     1       2.953   2.547  19.467  0.00  0.00    +0.000 Cl
ATOM     21 CL   UNL     1       0.928   4.231  20.632  0.00  0.00    +0.000 Cl
ATOM     22 CL   UNL     1       1.184   4.014  17.726  0.00  0.00    +0.000 Cl
ENDBRANCH   1  19
TORSDOF 3
ENDMDL
MODEL 9
REMARK VINA RESULT:      -6.8      2.734      6.110
REMARK  Name = 
REMARK  4 active torsions:
REMARK  status: ('A' for Active; 'I' for Inactive)
REMARK    1  A    between atoms: C_1  and  C_2
REMARK    2  A    between atoms: C_5  and  C_6
REMARK    3  A    between atoms: C_6  and  N_7
REMARK    4  A    between atoms: C_6  and  C_15
REMARK                            x       y       z     vdW  Elec       q    Type
REMARK                         _______ _______ _______ _____ _____    ______ ____
ROOT
ATOM      1  C   UNL     1       5.610   4.269  17.566  0.00  0.00    +0.000 C 
ENDROOT
BRANCH   1   2
ATOM      2  N   UNL     1       5.723   4.196  16.100  0.00  0.00    +0.000 N 
ATOM      3  C   UNL     1       6.877   4.412  15.409  0.00  0.00    +0.000 C 
ATOM      4  O   UNL     1       7.934   4.680  15.956  0.00  0.00    +0.000 OA
ATOM      5  N   UNL     1       6.717   4.287  14.043  0.00  0.00    +0.000 N 
ATOM      6  C   UNL     1       7.815   4.464  13.118  0.00  0.00    +0.000 C 
ATOM      7  C   UNL     1       7.125   4.567  11.765  0.00  0.00    +0.000 C 
ATOM      8  C   UNL     1       5.920   3.637  11.901  0.00  0.00    +0.000 C 
ATOM      9  C   UNL     1       5.593   3.640  13.383  0.00  0.00    +0.000 C 
ATOM     10  H   UNL     1       4.877   4.380  15.586  0.00  0.00    +0.000 HD
ENDBRANCH   1   2
BRANCH   1  15
ATOM     11  C   UNL     1       0.335   2.176  19.029  0.00  0.00    +0.000 C 
ATOM     12  C   UNL     1       1.699   2.657  18.635  0.00  0.00    +0.000 A 
ATOM     13  C   UNL     1       2.858   2.071  19.150  0.00  0.00    +0.000 A 
ATOM     14  C   UNL     1       4.121   2.565  18.796  0.00  0.00    +0.000 A 
ATOM     15  C   UNL     1       4.250   3.650  17.907  0.00  0.00    +0.000 A 
ATOM     16  C   UNL     1       3.079   4.227  17.391  0.00  0.00    +0.000 A 
ATOM     17  C   UNL     1       1.829   3.730  17.756  0.00  0.00    +0.000 A 
ATOM     18  F   UNL     1       0.733   4.321  17.257  0.00  0.00    +0.000 F 
ENDBRANCH   1  15
BRANCH   1  19
ATOM     19  C   UNL     1       5.951   5.678  18.229  0.00  0.00    +0.000 C 
ATOM     20 CL   UNL     1       5.828   7.085  17.085  0.00  0.00    +0.000 Cl
ATOM     21 CL   UNL     1       4.789   6.054  19.565  0.00  0.00    +0.000 Cl
ATOM     22 CL   UNL     1       7.625   5.759  18.909  0.00  0.00    +0.000 Cl
ENDBRANCH   1  19
TORSDOF 3
ENDMDL
