MODEL 1
REMARK VINA RESULT:      -7.8      0.000      0.000
REMARK  Name = 
REMARK  9 active torsions:
REMARK  status: ('A' for Active; 'I' for Inactive)
REMARK    1  A    between atoms: C_1  and  C_2
REMARK    2  A    between atoms: C_2  and  O_3
REMARK    3  A    between atoms: O_3  and  C_4
REMARK    4  A    between atoms: C_4  and  C_5
REMARK    5  A    between atoms: C_5  and  C_6
REMARK    6  A    between atoms: C_6  and  N_7
REMARK    7  A    between atoms: C_8  and  C_10
REMARK    8  A    between atoms: C_10  and  C_11
REMARK    9  A    between atoms: C_11  and  C_12
REMARK                            x       y       z     vdW  Elec       q    Type
REMARK                         _______ _______ _______ _____ _____    ______ ____
ROOT
ATOM      1  C   UNL     1       5.117   4.802  18.852  0.00  0.00    +0.000 A 
ATOM      2  N   UNL     1       5.193   3.537  19.221  0.00  0.00    +0.000 NA
ATOM      3  N   UNL     1       4.066   3.234  19.944  0.00  0.00    +0.000 NA
ATOM      4  C   UNL     1       3.330   4.320  20.005  0.00  0.00    +0.000 A 
ATOM      5  C   UNL     1       2.096   4.591  20.613  0.00  0.00    +0.000 A 
ATOM      6  C   UNL     1       1.599   5.828  20.534  0.00  0.00    +0.000 A 
ATOM      7  C   UNL     1       2.365   6.897  19.798  0.00  0.00    +0.000 A 
ATOM      8  N   UNL     1       1.836   8.180  19.754  0.00  0.00    +0.000 N 
ATOM      9  C   UNL     1       1.079   8.785  20.850  0.00  0.00    +0.000 C 
ATOM     10  C   UNL     1      -0.304   9.190  20.349  0.00  0.00    +0.000 C 
ATOM     11  C   UNL     1      -0.198  10.110  19.133  0.00  0.00    +0.000 C 
ATOM     12  C   UNL     1       0.699   9.501  18.054  0.00  0.00    +0.000 C 
ATOM     13  C   UNL     1       2.060   9.080  18.620  0.00  0.00    +0.000 C 
ATOM     14  N   UNL     1       3.498   6.640  19.188  0.00  0.00    +0.000 NA
ATOM     15  N   UNL     1       3.943   5.351  19.326  0.00  0.00    +0.000 N 
ENDROOT
BRANCH   1  16
ATOM     16  C   UNL     1       6.127   5.540  18.055  0.00  0.00    +0.000 C 
BRANCH  16  17
ATOM     17  C   UNL     1       7.068   4.588  17.318  0.00  0.00    +0.000 C 
BRANCH  17  19
ATOM     18  N   UNL     1       5.751   4.158  15.328  0.00  0.00    +0.000 N 
ATOM     19  C   UNL     1       6.900   4.737  15.821  0.00  0.00    +0.000 C 
ATOM     20  O   UNL     1       7.713   5.324  15.112  0.00  0.00    +0.000 OA
ATOM     21  H   UNL     1       5.131   3.666  15.956  0.00  0.00    +0.000 HD
BRANCH  18  22
ATOM     22  C   UNL     1       5.405   4.252  13.920  0.00  0.00    +0.000 C 
BRANCH  22  23
ATOM     23  C   UNL     1       6.273   3.343  13.050  0.00  0.00    +0.000 C 
BRANCH  23  24
ATOM     24  C   UNL     1       5.512   2.842  11.825  0.00  0.00    +0.000 C 
BRANCH  24  25
ATOM     25  O   UNL     1       4.489   3.775  11.486  0.00  0.00    +0.000 OA
BRANCH  25  27
ATOM     26  C   UNL     1       2.990   4.080   9.651  0.00  0.00    +0.000 C 
ATOM     27  C   UNL     1       3.413   3.162  10.780  0.00  0.00    +0.000 C 
ENDBRANCH  25  27
ENDBRANCH  24  25
ENDBRANCH  23  24
ENDBRANCH  22  23
ENDBRANCH  18  22
ENDBRANCH  17  19
ENDBRANCH  16  17
ENDBRANCH   1  16
TORSDOF 8
ENDMDL
MODEL 2
REMARK VINA RESULT:      -7.8      5.223      7.855
REMARK  Name = 
REMARK  9 active torsions:
REMARK  status: ('A' for Active; 'I' for Inactive)
REMARK    1  A    between atoms: C_1  and  C_2
REMARK    2  A    between atoms: C_2  and  O_3
REMARK    3  A    between atoms: O_3  and  C_4
REMARK    4  A    between atoms: C_4  and  C_5
REMARK    5  A    between atoms: C_5  and  C_6
REMARK    6  A    between atoms: C_6  and  N_7
REMARK    7  A    between atoms: C_8  and  C_10
REMARK    8  A    between atoms: C_10  and  C_11
REMARK    9  A    between atoms: C_11  and  C_12
REMARK                            x       y       z     vdW  Elec       q    Type
REMARK                         _______ _______ _______ _____ _____    ______ ____
ROOT
ATOM      1  C   UNL     1       7.229   6.384  17.089  0.00  0.00    +0.000 A 
ATOM      2  N   UNL     1       7.767   6.227  15.894  0.00  0.00    +0.000 NA
ATOM      3  N   UNL     1       7.065   5.248  15.235  0.00  0.00    +0.000 NA
ATOM      4  C   UNL     1       6.119   4.826  16.043  0.00  0.00    +0.000 A 
ATOM      5  C   UNL     1       5.125   3.847  15.902  0.00  0.00    +0.000 A 
ATOM      6  C   UNL     1       4.308   3.609  16.932  0.00  0.00    +0.000 A 
ATOM      7  C   UNL     1       4.467   4.391  18.210  0.00  0.00    +0.000 A 
ATOM      8  N   UNL     1       3.620   4.104  19.272  0.00  0.00    +0.000 N 
ATOM      9  C   UNL     1       3.123   2.762  19.576  0.00  0.00    +0.000 C 
ATOM     10  C   UNL     1       1.598   2.769  19.560  0.00  0.00    +0.000 C 
ATOM     11  C   UNL     1       1.046   3.828  20.514  0.00  0.00    +0.000 C 
ATOM     12  C   UNL     1       1.676   5.197  20.249  0.00  0.00    +0.000 C 
ATOM     13  C   UNL     1       3.207   5.123  20.240  0.00  0.00    +0.000 C 
ATOM     14  N   UNL     1       5.366   5.340  18.333  0.00  0.00    +0.000 NA
ATOM     15  N   UNL     1       6.169   5.514  17.236  0.00  0.00    +0.000 N 
ENDROOT
BRANCH   1  16
ATOM     16  C   UNL     1       7.681   7.340  18.128  0.00  0.00    +0.000 C 
BRANCH  16  17
ATOM     17  C   UNL     1       7.609   8.785  17.635  0.00  0.00    +0.000 C 
BRANCH  17  19
ATOM     18  N   UNL     1       8.817  10.881  17.804  0.00  0.00    +0.000 N 
ATOM     19  C   UNL     1       8.609   9.645  18.379  0.00  0.00    +0.000 C 
ATOM     20  O   UNL     1       9.177   9.277  19.402  0.00  0.00    +0.000 OA
ATOM     21  H   UNL     1       8.338  11.120  16.947  0.00  0.00    +0.000 HD
BRANCH  18  22
ATOM     22  C   UNL     1       9.704  11.855  18.416  0.00  0.00    +0.000 C 
BRANCH  22  23
ATOM     23  C   UNL     1      11.152  11.684  17.959  0.00  0.00    +0.000 C 
BRANCH  23  24
ATOM     24  C   UNL     1      11.701  12.966  17.336  0.00  0.00    +0.000 C 
BRANCH  24  25
ATOM     25  O   UNL     1      10.867  14.064  17.694  0.00  0.00    +0.000 OA
BRANCH  25  27
ATOM     26  C   UNL     1      10.207  16.335  17.353  0.00  0.00    +0.000 C 
ATOM     27  C   UNL     1      11.176  15.241  16.951  0.00  0.00    +0.000 C 
ENDBRANCH  25  27
ENDBRANCH  24  25
ENDBRANCH  23  24
ENDBRANCH  22  23
ENDBRANCH  18  22
ENDBRANCH  17  19
ENDBRANCH  16  17
ENDBRANCH   1  16
TORSDOF 8
ENDMDL
MODEL 3
REMARK VINA RESULT:      -7.4      1.071      1.176
REMARK  Name = 
REMARK  9 active torsions:
REMARK  status: ('A' for Active; 'I' for Inactive)
REMARK    1  A    between atoms: C_1  and  C_2
REMARK    2  A    between atoms: C_2  and  O_3
REMARK    3  A    between atoms: O_3  and  C_4
REMARK    4  A    between atoms: C_4  and  C_5
REMARK    5  A    between atoms: C_5  and  C_6
REMARK    6  A    between atoms: C_6  and  N_7
REMARK    7  A    between atoms: C_8  and  C_10
REMARK    8  A    between atoms: C_10  and  C_11
REMARK    9  A    between atoms: C_11  and  C_12
REMARK                            x       y       z     vdW  Elec       q    Type
REMARK                         _______ _______ _______ _____ _____    ______ ____
ROOT
ATOM      1  C   UNL     1       4.287   3.695  18.564  0.00  0.00    +0.000 A 
ATOM      2  N   UNL     1       4.146   2.481  19.063  0.00  0.00    +0.000 NA
ATOM      3  N   UNL     1       3.134   2.515  19.990  0.00  0.00    +0.000 NA
ATOM      4  C   UNL     1       2.684   3.749  20.040  0.00  0.00    +0.000 A 
ATOM      5  C   UNL     1       1.677   4.354  20.805  0.00  0.00    +0.000 A 
ATOM      6  C   UNL     1       1.463   5.665  20.661  0.00  0.00    +0.000 A 
ATOM      7  C   UNL     1       2.298   6.458  19.689  0.00  0.00    +0.000 A 
ATOM      8  N   UNL     1       2.070   7.823  19.580  0.00  0.00    +0.000 N 
ATOM      9  C   UNL     1       1.685   8.676  20.705  0.00  0.00    +0.000 C 
ATOM     10  C   UNL     1       0.359   9.362  20.391  0.00  0.00    +0.000 C 
ATOM     11  C   UNL     1       0.440  10.132  19.074  0.00  0.00    +0.000 C 
ATOM     12  C   UNL     1       0.962   9.244  17.942  0.00  0.00    +0.000 C 
ATOM     13  C   UNL     1       2.276   8.552  18.326  0.00  0.00    +0.000 C 
ATOM     14  N   UNL     1       3.212   5.889  18.938  0.00  0.00    +0.000 NA
ATOM     15  N   UNL     1       3.375   4.545  19.153  0.00  0.00    +0.000 N 
ENDROOT
BRANCH   1  16
ATOM     16  C   UNL     1       5.271   4.104  17.531  0.00  0.00    +0.000 C 
BRANCH  16  17
ATOM     17  C   UNL     1       4.651   4.112  16.135  0.00  0.00    +0.000 C 
BRANCH  17  19
ATOM     18  N   UNL     1       6.220   3.729  14.326  0.00  0.00    +0.000 N 
ATOM     19  C   UNL     1       5.628   4.681  15.128  0.00  0.00    +0.000 C 
ATOM     20  O   UNL     1       5.866   5.881  15.033  0.00  0.00    +0.000 OA
ATOM     21  H   UNL     1       6.004   2.753  14.467  0.00  0.00    +0.000 HD
BRANCH  18  22
ATOM     22  C   UNL     1       7.144   4.105  13.270  0.00  0.00    +0.000 C 
BRANCH  22  23
ATOM     23  C   UNL     1       6.547   3.896  11.879  0.00  0.00    +0.000 C 
BRANCH  23  24
ATOM     24  C   UNL     1       5.688   2.635  11.818  0.00  0.00    +0.000 C 
BRANCH  24  25
ATOM     25  O   UNL     1       4.310   2.998  11.802  0.00  0.00    +0.000 OA
BRANCH  25  27
ATOM     26  C   UNL     1       3.016   3.488   9.855  0.00  0.00    +0.000 C 
ATOM     27  C   UNL     1       4.032   4.018  10.846  0.00  0.00    +0.000 C 
ENDBRANCH  25  27
ENDBRANCH  24  25
ENDBRANCH  23  24
ENDBRANCH  22  23
ENDBRANCH  18  22
ENDBRANCH  17  19
ENDBRANCH  16  17
ENDBRANCH   1  16
TORSDOF 8
ENDMDL
MODEL 4
REMARK VINA RESULT:      -7.3      3.440      5.907
REMARK  Name = 
REMARK  9 active torsions:
REMARK  status: ('A' for Active; 'I' for Inactive)
REMARK    1  A    between atoms: C_1  and  C_2
REMARK    2  A    between atoms: C_2  and  O_3
REMARK    3  A    between atoms: O_3  and  C_4
REMARK    4  A    between atoms: C_4  and  C_5
REMARK    5  A    between atoms: C_5  and  C_6
REMARK    6  A    between atoms: C_6  and  N_7
REMARK    7  A    between atoms: C_8  and  C_10
REMARK    8  A    between atoms: C_10  and  C_11
REMARK    9  A    between atoms: C_11  and  C_12
REMARK                            x       y       z     vdW  Elec       q    Type
REMARK                         _______ _______ _______ _____ _____    ______ ____
ROOT
ATOM      1  C   UNL     1       4.266   5.276  17.332  0.00  0.00    +0.000 A 
ATOM      2  N   UNL     1       4.477   3.977  17.434  0.00  0.00    +0.000 NA
ATOM      3  N   UNL     1       3.741   3.506  18.493  0.00  0.00    +0.000 NA
ATOM      4  C   UNL     1       3.102   4.527  19.017  0.00  0.00    +0.000 A 
ATOM      5  C   UNL     1       2.226   4.633  20.107  0.00  0.00    +0.000 A 
ATOM      6  C   UNL     1       1.749   5.838  20.432  0.00  0.00    +0.000 A 
ATOM      7  C   UNL     1       2.155   7.046  19.627  0.00  0.00    +0.000 A 
ATOM      8  N   UNL     1       1.663   8.289  20.004  0.00  0.00    +0.000 N 
ATOM      9  C   UNL     1       1.424   8.681  21.394  0.00  0.00    +0.000 C 
ATOM     10  C   UNL     1      -0.040   9.074  21.566  0.00  0.00    +0.000 C 
ATOM     11  C   UNL     1      -0.433  10.167  20.573  0.00  0.00    +0.000 C 
ATOM     12  C   UNL     1      -0.059   9.777  19.141  0.00  0.00    +0.000 C 
ATOM     13  C   UNL     1       1.411   9.357  19.034  0.00  0.00    +0.000 C 
ATOM     14  N   UNL     1       2.938   6.948  18.579  0.00  0.00    +0.000 NA
ATOM     15  N   UNL     1       3.391   5.680  18.320  0.00  0.00    +0.000 N 
ENDROOT
BRANCH   1  16
ATOM     16  C   UNL     1       4.867   6.181  16.322  0.00  0.00    +0.000 C 
BRANCH  16  17
ATOM     17  C   UNL     1       6.297   5.768  15.976  0.00  0.00    +0.000 C 
BRANCH  17  19
ATOM     18  N   UNL     1       7.386   7.555  17.201  0.00  0.00    +0.000 N 
ATOM     19  C   UNL     1       7.248   6.189  17.076  0.00  0.00    +0.000 C 
ATOM     20  O   UNL     1       7.838   5.387  17.794  0.00  0.00    +0.000 OA
ATOM     21  H   UNL     1       6.894   8.167  16.565  0.00  0.00    +0.000 HD
BRANCH  18  22
ATOM     22  C   UNL     1       8.219   8.135  18.240  0.00  0.00    +0.000 C 
BRANCH  22  23
ATOM     23  C   UNL     1       8.380   9.645  18.075  0.00  0.00    +0.000 C 
BRANCH  23  24
ATOM     24  C   UNL     1       9.513  10.189  18.943  0.00  0.00    +0.000 C 
BRANCH  24  25
ATOM     25  O   UNL     1       8.990  11.135  19.871  0.00  0.00    +0.000 OA
BRANCH  25  27
ATOM     26  C   UNL     1       9.347  12.373  21.883  0.00  0.00    +0.000 C 
ATOM     27  C   UNL     1      10.006  11.702  20.694  0.00  0.00    +0.000 C 
ENDBRANCH  25  27
ENDBRANCH  24  25
ENDBRANCH  23  24
ENDBRANCH  22  23
ENDBRANCH  18  22
ENDBRANCH  17  19
ENDBRANCH  16  17
ENDBRANCH   1  16
TORSDOF 8
ENDMDL
MODEL 5
REMARK VINA RESULT:      -7.3      3.179      5.408
REMARK  Name = 
REMARK  9 active torsions:
REMARK  status: ('A' for Active; 'I' for Inactive)
REMARK    1  A    between atoms: C_1  and  C_2
REMARK    2  A    between atoms: C_2  and  O_3
REMARK    3  A    between atoms: O_3  and  C_4
REMARK    4  A    between atoms: C_4  and  C_5
REMARK    5  A    between atoms: C_5  and  C_6
REMARK    6  A    between atoms: C_6  and  N_7
REMARK    7  A    between atoms: C_8  and  C_10
REMARK    8  A    between atoms: C_10  and  C_11
REMARK    9  A    between atoms: C_11  and  C_12
REMARK                            x       y       z     vdW  Elec       q    Type
REMARK                         _______ _______ _______ _____ _____    ______ ____
ROOT
ATOM      1  C   UNL     1       3.968   3.649  18.067  0.00  0.00    +0.000 A 
ATOM      2  N   UNL     1       3.778   2.403  18.460  0.00  0.00    +0.000 NA
ATOM      3  N   UNL     1       2.820   2.406  19.444  0.00  0.00    +0.000 NA
ATOM      4  C   UNL     1       2.450   3.653  19.633  0.00  0.00    +0.000 A 
ATOM      5  C   UNL     1       1.525   4.239  20.507  0.00  0.00    +0.000 A 
ATOM      6  C   UNL     1       1.385   5.567  20.498  0.00  0.00    +0.000 A 
ATOM      7  C   UNL     1       2.216   6.400  19.555  0.00  0.00    +0.000 A 
ATOM      8  N   UNL     1       2.068   7.781  19.585  0.00  0.00    +0.000 N 
ATOM      9  C   UNL     1       1.795   8.543  20.804  0.00  0.00    +0.000 C 
ATOM     10  C   UNL     1       0.500   9.330  20.633  0.00  0.00    +0.000 C 
ATOM     11  C   UNL     1       0.559  10.216  19.389  0.00  0.00    +0.000 C 
ATOM     12  C   UNL     1       0.965   9.411  18.153  0.00  0.00    +0.000 C 
ATOM     13  C   UNL     1       2.251   8.613  18.394  0.00  0.00    +0.000 C 
ATOM     14  N   UNL     1       3.052   5.855  18.703  0.00  0.00    +0.000 NA
ATOM     15  N   UNL     1       3.142   4.489  18.785  0.00  0.00    +0.000 N 
ENDROOT
BRANCH   1  16
ATOM     16  C   UNL     1       4.919   4.097  17.022  0.00  0.00    +0.000 C 
BRANCH  16  17
ATOM     17  C   UNL     1       6.257   4.524  17.622  0.00  0.00    +0.000 C 
BRANCH  17  19
ATOM     18  N   UNL     1       7.319   6.673  17.989  0.00  0.00    +0.000 N 
ATOM     19  C   UNL     1       6.677   5.870  17.071  0.00  0.00    +0.000 C 
ATOM     20  O   UNL     1       6.469   6.211  15.910  0.00  0.00    +0.000 OA
ATOM     21  H   UNL     1       7.441   6.348  18.938  0.00  0.00    +0.000 HD
BRANCH  18  22
ATOM     22  C   UNL     1       7.838   7.977  17.614  0.00  0.00    +0.000 C 
BRANCH  22  23
ATOM     23  C   UNL     1       8.671   8.609  18.729  0.00  0.00    +0.000 C 
BRANCH  23  24
ATOM     24  C   UNL     1       8.848  10.111  18.518  0.00  0.00    +0.000 C 
BRANCH  24  25
ATOM     25  O   UNL     1       9.787  10.617  19.463  0.00  0.00    +0.000 OA
BRANCH  25  27
ATOM     26  C   UNL     1      10.446  11.842  17.521  0.00  0.00    +0.000 C 
ATOM     27  C   UNL     1      10.376  11.842  19.035  0.00  0.00    +0.000 C 
ENDBRANCH  25  27
ENDBRANCH  24  25
ENDBRANCH  23  24
ENDBRANCH  22  23
ENDBRANCH  18  22
ENDBRANCH  17  19
ENDBRANCH  16  17
ENDBRANCH   1  16
TORSDOF 8
ENDMDL
MODEL 6
REMARK VINA RESULT:      -7.3      3.060      5.565
REMARK  Name = 
REMARK  9 active torsions:
REMARK  status: ('A' for Active; 'I' for Inactive)
REMARK    1  A    between atoms: C_1  and  C_2
REMARK    2  A    between atoms: C_2  and  O_3
REMARK    3  A    between atoms: O_3  and  C_4
REMARK    4  A    between atoms: C_4  and  C_5
REMARK    5  A    between atoms: C_5  and  C_6
REMARK    6  A    between atoms: C_6  and  N_7
REMARK    7  A    between atoms: C_8  and  C_10
REMARK    8  A    between atoms: C_10  and  C_11
REMARK    9  A    between atoms: C_11  and  C_12
REMARK                            x       y       z     vdW  Elec       q    Type
REMARK                         _______ _______ _______ _____ _____    ______ ____
ROOT
ATOM      1  C   UNL     1       4.849   4.021  19.377  0.00  0.00    +0.000 A 
ATOM      2  N   UNL     1       4.675   2.769  19.757  0.00  0.00    +0.000 NA
ATOM      3  N   UNL     1       3.415   2.655  20.290  0.00  0.00    +0.000 NA
ATOM      4  C   UNL     1       2.850   3.840  20.229  0.00  0.00    +0.000 A 
ATOM      5  C   UNL     1       1.590   4.306  20.630  0.00  0.00    +0.000 A 
ATOM      6  C   UNL     1       1.303   5.601  20.468  0.00  0.00    +0.000 A 
ATOM      7  C   UNL     1       2.328   6.524  19.860  0.00  0.00    +0.000 A 
ATOM      8  N   UNL     1       2.011   7.870  19.728  0.00  0.00    +0.000 N 
ATOM      9  C   UNL     1       1.190   8.610  20.686  0.00  0.00    +0.000 C 
ATOM     10  C   UNL     1      -0.020   9.200  19.968  0.00  0.00    +0.000 C 
ATOM     11  C   UNL     1       0.414  10.061  18.782  0.00  0.00    +0.000 C 
ATOM     12  C   UNL     1       1.370   9.297  17.863  0.00  0.00    +0.000 C 
ATOM     13  C   UNL     1       2.545   8.695  18.642  0.00  0.00    +0.000 C 
ATOM     14  N   UNL     1       3.492   6.086  19.442  0.00  0.00    +0.000 NA
ATOM     15  N   UNL     1       3.710   4.749  19.653  0.00  0.00    +0.000 N 
ENDROOT
BRANCH   1  16
ATOM     16  C   UNL     1       6.071   4.579  18.750  0.00  0.00    +0.000 C 
BRANCH  16  17
ATOM     17  C   UNL     1       5.914   4.723  17.237  0.00  0.00    +0.000 C 
BRANCH  17  19
ATOM     18  N   UNL     1       6.849   6.919  17.665  0.00  0.00    +0.000 N 
ATOM     19  C   UNL     1       6.707   5.911  16.735  0.00  0.00    +0.000 C 
ATOM     20  O   UNL     1       7.183   5.968  15.606  0.00  0.00    +0.000 OA
ATOM     21  H   UNL     1       6.414   6.827  18.572  0.00  0.00    +0.000 HD
BRANCH  18  22
ATOM     22  C   UNL     1       7.627   8.110  17.369  0.00  0.00    +0.000 C 
BRANCH  22  23
ATOM     23  C   UNL     1       8.519   8.522  18.540  0.00  0.00    +0.000 C 
BRANCH  23  24
ATOM     24  C   UNL     1       8.705  10.036  18.600  0.00  0.00    +0.000 C 
BRANCH  24  25
ATOM     25  O   UNL     1       9.827  10.346  19.423  0.00  0.00    +0.000 OA
BRANCH  25  27
ATOM     26  C   UNL     1      10.481  12.143  20.854  0.00  0.00    +0.000 C 
ATOM     27  C   UNL     1       9.453  11.059  20.599  0.00  0.00    +0.000 C 
ENDBRANCH  25  27
ENDBRANCH  24  25
ENDBRANCH  23  24
ENDBRANCH  22  23
ENDBRANCH  18  22
ENDBRANCH  17  19
ENDBRANCH  16  17
ENDBRANCH   1  16
TORSDOF 8
ENDMDL
MODEL 7
REMARK VINA RESULT:      -7.3      4.951      7.923
REMARK  Name = 
REMARK  9 active torsions:
REMARK  status: ('A' for Active; 'I' for Inactive)
REMARK    1  A    between atoms: C_1  and  C_2
REMARK    2  A    between atoms: C_2  and  O_3
REMARK    3  A    between atoms: O_3  and  C_4
REMARK    4  A    between atoms: C_4  and  C_5
REMARK    5  A    between atoms: C_5  and  C_6
REMARK    6  A    between atoms: C_6  and  N_7
REMARK    7  A    between atoms: C_8  and  C_10
REMARK    8  A    between atoms: C_10  and  C_11
REMARK    9  A    between atoms: C_11  and  C_12
REMARK                            x       y       z     vdW  Elec       q    Type
REMARK                         _______ _______ _______ _____ _____    ______ ____
ROOT
ATOM      1  C   UNL     1       7.248   6.468  17.127  0.00  0.00    +0.000 A 
ATOM      2  N   UNL     1       7.809   6.291  15.945  0.00  0.00    +0.000 NA
ATOM      3  N   UNL     1       7.147   5.274  15.305  0.00  0.00    +0.000 NA
ATOM      4  C   UNL     1       6.199   4.849  16.111  0.00  0.00    +0.000 A 
ATOM      5  C   UNL     1       5.237   3.838  15.983  0.00  0.00    +0.000 A 
ATOM      6  C   UNL     1       4.410   3.606  17.007  0.00  0.00    +0.000 A 
ATOM      7  C   UNL     1       4.526   4.430  18.264  0.00  0.00    +0.000 A 
ATOM      8  N   UNL     1       3.670   4.149  19.321  0.00  0.00    +0.000 N 
ATOM      9  C   UNL     1       3.207   2.803  19.656  0.00  0.00    +0.000 C 
ATOM     10  C   UNL     1       1.682   2.765  19.616  0.00  0.00    +0.000 C 
ATOM     11  C   UNL     1       1.085   3.835  20.530  0.00  0.00    +0.000 C 
ATOM     12  C   UNL     1       1.680   5.213  20.234  0.00  0.00    +0.000 C 
ATOM     13  C   UNL     1       3.212   5.184  20.252  0.00  0.00    +0.000 C 
ATOM     14  N   UNL     1       5.395   5.407  18.373  0.00  0.00    +0.000 NA
ATOM     15  N   UNL     1       6.210   5.572  17.283  0.00  0.00    +0.000 N 
ENDROOT
BRANCH   1  16
ATOM     16  C   UNL     1       7.655   7.467  18.144  0.00  0.00    +0.000 C 
BRANCH  16  17
ATOM     17  C   UNL     1       7.777   8.867  17.543  0.00  0.00    +0.000 C 
BRANCH  17  19
ATOM     18  N   UNL     1       8.842  11.012  17.920  0.00  0.00    +0.000 N 
ATOM     19  C   UNL     1       8.678   9.731  18.400  0.00  0.00    +0.000 C 
ATOM     20  O   UNL     1       9.208   9.327  19.431  0.00  0.00    +0.000 OA
ATOM     21  H   UNL     1       8.400  11.281  17.052  0.00  0.00    +0.000 HD
BRANCH  18  22
ATOM     22  C   UNL     1       9.631  11.992  18.646  0.00  0.00    +0.000 C 
BRANCH  22  23
ATOM     23  C   UNL     1       8.865  13.294  18.877  0.00  0.00    +0.000 C 
BRANCH  23  24
ATOM     24  C   UNL     1       9.634  14.502  18.345  0.00  0.00    +0.000 C 
BRANCH  24  25
ATOM     25  O   UNL     1       8.716  15.450  17.805  0.00  0.00    +0.000 OA
BRANCH  25  27
ATOM     26  C   UNL     1       6.800  16.565  18.695  0.00  0.00    +0.000 C 
ATOM     27  C   UNL     1       7.385  15.234  18.266  0.00  0.00    +0.000 C 
ENDBRANCH  25  27
ENDBRANCH  24  25
ENDBRANCH  23  24
ENDBRANCH  22  23
ENDBRANCH  18  22
ENDBRANCH  17  19
ENDBRANCH  16  17
ENDBRANCH   1  16
TORSDOF 8
ENDMDL
MODEL 8
REMARK VINA RESULT:      -7.3      3.369      6.452
REMARK  Name = 
REMARK  9 active torsions:
REMARK  status: ('A' for Active; 'I' for Inactive)
REMARK    1  A    between atoms: C_1  and  C_2
REMARK    2  A    between atoms: C_2  and  O_3
REMARK    3  A    between atoms: O_3  and  C_4
REMARK    4  A    between atoms: C_4  and  C_5
REMARK    5  A    between atoms: C_5  and  C_6
REMARK    6  A    between atoms: C_6  and  N_7
REMARK    7  A    between atoms: C_8  and  C_10
REMARK    8  A    between atoms: C_10  and  C_11
REMARK    9  A    between atoms: C_11  and  C_12
REMARK                            x       y       z     vdW  Elec       q    Type
REMARK                         _______ _______ _______ _____ _____    ______ ____
ROOT
ATOM      1  C   UNL     1       5.132   5.607  15.823  0.00  0.00    +0.000 A 
ATOM      2  N   UNL     1       5.246   6.852  15.400  0.00  0.00    +0.000 NA
ATOM      3  N   UNL     1       4.457   7.647  16.193  0.00  0.00    +0.000 NA
ATOM      4  C   UNL     1       3.874   6.870  17.079  0.00  0.00    +0.000 A 
ATOM      5  C   UNL     1       2.970   7.136  18.116  0.00  0.00    +0.000 A 
ATOM      6  C   UNL     1       2.513   6.114  18.846  0.00  0.00    +0.000 A 
ATOM      7  C   UNL     1       2.976   4.713  18.545  0.00  0.00    +0.000 A 
ATOM      8  N   UNL     1       2.465   3.668  19.304  0.00  0.00    +0.000 N 
ATOM      9  C   UNL     1       1.096   3.633  19.820  0.00  0.00    +0.000 C 
ATOM     10  C   UNL     1       1.130   3.502  21.340  0.00  0.00    +0.000 C 
ATOM     11  C   UNL     1       1.948   2.283  21.765  0.00  0.00    +0.000 C 
ATOM     12  C   UNL     1       3.331   2.287  21.111  0.00  0.00    +0.000 C 
ATOM     13  C   UNL     1       3.239   2.458  19.591  0.00  0.00    +0.000 C 
ATOM     14  N   UNL     1       3.856   4.462  17.604  0.00  0.00    +0.000 NA
ATOM     15  N   UNL     1       4.267   5.562  16.897  0.00  0.00    +0.000 N 
ENDROOT
BRANCH   1  16
ATOM     16  C   UNL     1       5.815   4.424  15.245  0.00  0.00    +0.000 C 
BRANCH  16  17
ATOM     17  C   UNL     1       7.292   4.382  15.631  0.00  0.00    +0.000 C 
BRANCH  17  19
ATOM     18  N   UNL     1       7.695   6.415  16.890  0.00  0.00    +0.000 N 
ATOM     19  C   UNL     1       7.506   5.052  16.972  0.00  0.00    +0.000 C 
ATOM     20  O   UNL     1       7.506   4.437  18.034  0.00  0.00    +0.000 OA
ATOM     21  H   UNL     1       7.709   6.864  15.985  0.00  0.00    +0.000 HD
BRANCH  18  22
ATOM     22  C   UNL     1       7.861   7.224  18.085  0.00  0.00    +0.000 C 
BRANCH  22  23
ATOM     23  C   UNL     1       7.959   8.715  17.764  0.00  0.00    +0.000 C 
BRANCH  23  24
ATOM     24  C   UNL     1       8.817   9.456  18.787  0.00  0.00    +0.000 C 
BRANCH  24  25
ATOM     25  O   UNL     1       8.851  10.844  18.464  0.00  0.00    +0.000 OA
BRANCH  25  27
ATOM     26  C   UNL     1      10.032  12.700  17.532  0.00  0.00    +0.000 C 
ATOM     27  C   UNL     1      10.119  11.246  17.951  0.00  0.00    +0.000 C 
ENDBRANCH  25  27
ENDBRANCH  24  25
ENDBRANCH  23  24
ENDBRANCH  22  23
ENDBRANCH  18  22
ENDBRANCH  17  19
ENDBRANCH  16  17
ENDBRANCH   1  16
TORSDOF 8
ENDMDL
MODEL 9
REMARK VINA RESULT:      -7.1      5.053      7.927
REMARK  Name = 
REMARK  9 active torsions:
REMARK  status: ('A' for Active; 'I' for Inactive)
REMARK    1  A    between atoms: C_1  and  C_2
REMARK    2  A    between atoms: C_2  and  O_3
REMARK    3  A    between atoms: O_3  and  C_4
REMARK    4  A    between atoms: C_4  and  C_5
REMARK    5  A    between atoms: C_5  and  C_6
REMARK    6  A    between atoms: C_6  and  N_7
REMARK    7  A    between atoms: C_8  and  C_10
REMARK    8  A    between atoms: C_10  and  C_11
REMARK    9  A    between atoms: C_11  and  C_12
REMARK                            x       y       z     vdW  Elec       q    Type
REMARK                         _______ _______ _______ _____ _____    ______ ____
ROOT
ATOM      1  C   UNL     1       7.295   6.282  16.826  0.00  0.00    +0.000 A 
ATOM      2  N   UNL     1       7.785   6.101  15.614  0.00  0.00    +0.000 NA
ATOM      3  N   UNL     1       6.988   5.193  14.961  0.00  0.00    +0.000 NA
ATOM      4  C   UNL     1       6.033   4.836  15.790  0.00  0.00    +0.000 A 
ATOM      5  C   UNL     1       4.960   3.944  15.664  0.00  0.00    +0.000 A 
ATOM      6  C   UNL     1       4.154   3.756  16.713  0.00  0.00    +0.000 A 
ATOM      7  C   UNL     1       4.411   4.502  17.997  0.00  0.00    +0.000 A 
ATOM      8  N   UNL     1       3.573   4.267  19.079  0.00  0.00    +0.000 N 
ATOM      9  C   UNL     1       2.977   2.965  19.378  0.00  0.00    +0.000 C 
ATOM     10  C   UNL     1       1.457   3.096  19.405  0.00  0.00    +0.000 C 
ATOM     11  C   UNL     1       1.019   4.180  20.389  0.00  0.00    +0.000 C 
ATOM     12  C   UNL     1       1.751   5.498  20.126  0.00  0.00    +0.000 C 
ATOM     13  C   UNL     1       3.271   5.301  20.073  0.00  0.00    +0.000 C 
ATOM     14  N   UNL     1       5.387   5.372  18.108  0.00  0.00    +0.000 NA
ATOM     15  N   UNL     1       6.171   5.498  16.991  0.00  0.00    +0.000 N 
ENDROOT
BRANCH   1  16
ATOM     16  C   UNL     1       7.851   7.182  17.865  0.00  0.00    +0.000 C 
BRANCH  16  17
ATOM     17  C   UNL     1       7.421   8.631  17.646  0.00  0.00    +0.000 C 
BRANCH  17  19
ATOM     18  N   UNL     1       8.472  10.812  17.779  0.00  0.00    +0.000 N 
ATOM     19  C   UNL     1       8.355   9.574  18.373  0.00  0.00    +0.000 C 
ATOM     20  O   UNL     1       8.950   9.265  19.402  0.00  0.00    +0.000 OA
ATOM     21  H   UNL     1       7.977  11.002  16.919  0.00  0.00    +0.000 HD
BRANCH  18  22
ATOM     22  C   UNL     1       9.287  11.858  18.373  0.00  0.00    +0.000 C 
BRANCH  22  23
ATOM     23  C   UNL     1      10.754  11.752  17.961  0.00  0.00    +0.000 C 
BRANCH  23  24
ATOM     24  C   UNL     1      11.665  11.540  19.168  0.00  0.00    +0.000 C 
BRANCH  24  25
ATOM     25  O   UNL     1      12.333  12.760  19.480  0.00  0.00    +0.000 OA
BRANCH  25  27
ATOM     26  C   UNL     1      11.754  15.074  19.362  0.00  0.00    +0.000 C 
ATOM     27  C   UNL     1      12.000  13.805  18.571  0.00  0.00    +0.000 C 
ENDBRANCH  25  27
ENDBRANCH  24  25
ENDBRANCH  23  24
ENDBRANCH  22  23
ENDBRANCH  18  22
ENDBRANCH  17  19
ENDBRANCH  16  17
ENDBRANCH   1  16
TORSDOF 8
ENDMDL
