MODEL 1
REMARK VINA RESULT:      -6.3      0.000      0.000
REMARK  Name = 
REMARK  4 active torsions:
REMARK  status: ('A' for Active; 'I' for Inactive)
REMARK    1  A    between atoms: C_1  and  O_2
REMARK    2  A    between atoms: O_2  and  C_3
REMARK    3  A    between atoms: C_8  and  N_9
REMARK    4  A    between atoms: C_10  and  C_12
REMARK                            x       y       z     vdW  Elec       q    Type
REMARK                         _______ _______ _______ _____ _____    ______ ____
ROOT
ATOM      1  N   UNL     1       3.965   4.068  16.986  0.00  0.00    +0.000 N 
ATOM      2  C   UNL     1       3.133   5.037  17.524  0.00  0.00    +0.000 C 
ATOM      3  O   UNL     1       3.300   6.249  17.562  0.00  0.00    +0.000 OA
ATOM      4  H   UNL     1       3.718   3.093  17.139  0.00  0.00    +0.000 HD
ENDROOT
BRANCH   2   5
ATOM      5  C   UNL     1       1.875   4.456  18.180  0.00  0.00    +0.000 C 
ATOM      6  O   UNL     1       0.903   4.252  17.462  0.00  0.00    +0.000 OA
ATOM      7  N   UNL     1       1.927   4.152  19.534  0.00  0.00    +0.000 N 
ATOM      8  C   UNL     1       3.082   4.340  20.416  0.00  0.00    +0.000 C 
ATOM      9  C   UNL     1       3.322   3.071  21.246  0.00  0.00    +0.000 C 
ATOM     10  O   UNL     1       2.135   2.670  21.950  0.00  0.00    +0.000 OA
ATOM     11  C   UNL     1       1.053   2.421  21.035  0.00  0.00    +0.000 C 
ATOM     12  C   UNL     1       0.731   3.674  20.218  0.00  0.00    +0.000 C 
ENDBRANCH   2   5
BRANCH   1  18
ATOM     13  C   UNL     1       6.373   4.456  17.043  0.00  0.00    +0.000 A 
ATOM     14  C   UNL     1       7.562   4.787  16.376  0.00  0.00    +0.000 A 
ATOM     15  C   UNL     1       7.598   4.867  14.985  0.00  0.00    +0.000 A 
ATOM     16  C   UNL     1       6.446   4.620  14.251  0.00  0.00    +0.000 A 
ATOM     17  C   UNL     1       5.245   4.346  14.905  0.00  0.00    +0.000 A 
ATOM     18  C   UNL     1       5.183   4.294  16.302  0.00  0.00    +0.000 A 
BRANCH  13  20
ATOM     19  C   UNL     1       6.629   5.492  19.155  0.00  0.00    +0.000 C 
ATOM     20  O   UNL     1       6.295   4.315  18.410  0.00  0.00    +0.000 OA
ENDBRANCH  13  20
ENDBRANCH   1  18
TORSDOF 3
ENDMDL
MODEL 2
REMARK VINA RESULT:      -6.2      1.715      6.280
REMARK  Name = 
REMARK  4 active torsions:
REMARK  status: ('A' for Active; 'I' for Inactive)
REMARK    1  A    between atoms: C_1  and  O_2
REMARK    2  A    between atoms: O_2  and  C_3
REMARK    3  A    between atoms: C_8  and  N_9
REMARK    4  A    between atoms: C_10  and  C_12
REMARK                            x       y       z     vdW  Elec       q    Type
REMARK                         _______ _______ _______ _____ _____    ______ ____
ROOT
ATOM      1  N   UNL     1       4.711   3.793  18.675  0.00  0.00    +0.000 N 
ATOM      2  C   UNL     1       5.719   4.724  18.874  0.00  0.00    +0.000 C 
ATOM      3  O   UNL     1       5.809   5.575  19.749  0.00  0.00    +0.000 OA
ATOM      4  H   UNL     1       4.747   3.230  17.830  0.00  0.00    +0.000 HD
ENDROOT
BRANCH   2   5
ATOM      5  C   UNL     1       6.816   4.663  17.805  0.00  0.00    +0.000 C 
ATOM      6  O   UNL     1       7.937   4.316  18.161  0.00  0.00    +0.000 OA
ATOM      7  N   UNL     1       6.466   4.957  16.493  0.00  0.00    +0.000 N 
ATOM      8  C   UNL     1       5.130   5.332  16.021  0.00  0.00    +0.000 C 
ATOM      9  C   UNL     1       4.764   4.513  14.776  0.00  0.00    +0.000 C 
ATOM     10  O   UNL     1       5.773   4.622  13.758  0.00  0.00    +0.000 OA
ATOM     11  C   UNL     1       7.048   4.168  14.246  0.00  0.00    +0.000 C 
ATOM     12  C   UNL     1       7.491   4.990  15.457  0.00  0.00    +0.000 C 
ENDBRANCH   2   5
BRANCH   1  18
ATOM     13  C   UNL     1       2.395   4.314  19.237  0.00  0.00    +0.000 A 
ATOM     14  C   UNL     1       1.307   4.200  20.116  0.00  0.00    +0.000 A 
ATOM     15  C   UNL     1       1.353   3.316  21.192  0.00  0.00    +0.000 A 
ATOM     16  C   UNL     1       2.486   2.541  21.400  0.00  0.00    +0.000 A 
ATOM     17  C   UNL     1       3.595   2.687  20.567  0.00  0.00    +0.000 A 
ATOM     18  C   UNL     1       3.580   3.594  19.501  0.00  0.00    +0.000 A 
BRANCH  13  20
ATOM     19  C   UNL     1       2.480   6.534  18.422  0.00  0.00    +0.000 C 
ATOM     20  O   UNL     1       2.383   5.135  18.132  0.00  0.00    +0.000 OA
ENDBRANCH  13  20
ENDBRANCH   1  18
TORSDOF 3
ENDMDL
MODEL 3
REMARK VINA RESULT:      -6.1      1.640      2.370
REMARK  Name = 
REMARK  4 active torsions:
REMARK  status: ('A' for Active; 'I' for Inactive)
REMARK    1  A    between atoms: C_1  and  O_2
REMARK    2  A    between atoms: O_2  and  C_3
REMARK    3  A    between atoms: C_8  and  N_9
REMARK    4  A    between atoms: C_10  and  C_12
REMARK                            x       y       z     vdW  Elec       q    Type
REMARK                         _______ _______ _______ _____ _____    ______ ____
ROOT
ATOM      1  N   UNL     1       5.760   3.676  17.028  0.00  0.00    +0.000 N 
ATOM      2  C   UNL     1       4.744   4.276  17.755  0.00  0.00    +0.000 C 
ATOM      3  O   UNL     1       4.015   5.201  17.425  0.00  0.00    +0.000 OA
ATOM      4  H   UNL     1       6.338   2.986  17.501  0.00  0.00    +0.000 HD
ENDROOT
BRANCH   2   5
ATOM      5  C   UNL     1       4.585   3.693  19.165  0.00  0.00    +0.000 C 
ATOM      6  O   UNL     1       5.549   3.762  19.920  0.00  0.00    +0.000 OA
ATOM      7  N   UNL     1       3.350   3.166  19.517  0.00  0.00    +0.000 N 
ATOM      8  C   UNL     1       2.162   3.106  18.660  0.00  0.00    +0.000 C 
ATOM      9  C   UNL     1       0.934   3.613  19.428  0.00  0.00    +0.000 C 
ATOM     10  O   UNL     1       0.766   2.916  20.674  0.00  0.00    +0.000 OA
ATOM     11  C   UNL     1       1.925   3.072  21.511  0.00  0.00    +0.000 C 
ATOM     12  C   UNL     1       3.176   2.529  20.817  0.00  0.00    +0.000 C 
ENDBRANCH   2   5
BRANCH   1  18
ATOM     13  C   UNL     1       7.143   4.938  15.464  0.00  0.00    +0.000 A 
ATOM     14  C   UNL     1       7.439   5.323  14.147  0.00  0.00    +0.000 A 
ATOM     15  C   UNL     1       6.810   4.704  13.068  0.00  0.00    +0.000 A 
ATOM     16  C   UNL     1       5.879   3.701  13.296  0.00  0.00    +0.000 A 
ATOM     17  C   UNL     1       5.534   3.349  14.601  0.00  0.00    +0.000 A 
ATOM     18  C   UNL     1       6.132   3.982  15.698  0.00  0.00    +0.000 A 
BRANCH  13  20
ATOM     19  C   UNL     1       7.277   6.765  16.962  0.00  0.00    +0.000 C 
ATOM     20  O   UNL     1       7.770   5.481  16.563  0.00  0.00    +0.000 OA
ENDBRANCH  13  20
ENDBRANCH   1  18
TORSDOF 3
ENDMDL
MODEL 4
REMARK VINA RESULT:      -6.0      2.213      5.686
REMARK  Name = 
REMARK  4 active torsions:
REMARK  status: ('A' for Active; 'I' for Inactive)
REMARK    1  A    between atoms: C_1  and  O_2
REMARK    2  A    between atoms: O_2  and  C_3
REMARK    3  A    between atoms: C_8  and  N_9
REMARK    4  A    between atoms: C_10  and  C_12
REMARK                            x       y       z     vdW  Elec       q    Type
REMARK                         _______ _______ _______ _____ _____    ______ ____
ROOT
ATOM      1  N   UNL     1       3.728   5.015  17.790  0.00  0.00    +0.000 N 
ATOM      2  C   UNL     1       4.561   4.832  16.698  0.00  0.00    +0.000 C 
ATOM      3  O   UNL     1       4.677   3.844  15.985  0.00  0.00    +0.000 OA
ATOM      4  H   UNL     1       3.840   5.867  18.334  0.00  0.00    +0.000 HD
ENDROOT
BRANCH   2   5
ATOM      5  C   UNL     1       5.462   6.041  16.416  0.00  0.00    +0.000 C 
ATOM      6  O   UNL     1       5.056   6.877  15.617  0.00  0.00    +0.000 OA
ATOM      7  N   UNL     1       6.657   6.140  17.116  0.00  0.00    +0.000 N 
ATOM      8  C   UNL     1       7.156   5.185  18.111  0.00  0.00    +0.000 C 
ATOM      9  C   UNL     1       7.632   5.933  19.364  0.00  0.00    +0.000 C 
ATOM     10  O   UNL     1       8.588   6.956  19.035  0.00  0.00    +0.000 OA
ATOM     11  C   UNL     1       8.025   7.911  18.119  0.00  0.00    +0.000 C 
ATOM     12  C   UNL     1       7.582   7.228  16.824  0.00  0.00    +0.000 C 
ENDBRANCH   2   5
BRANCH   1  18
ATOM     13  C   UNL     1       3.180   3.104  19.203  0.00  0.00    +0.000 A 
ATOM     14  C   UNL     1       2.264   2.122  19.610  0.00  0.00    +0.000 A 
ATOM     15  C   UNL     1       0.938   2.167  19.186  0.00  0.00    +0.000 A 
ATOM     16  C   UNL     1       0.518   3.192  18.349  0.00  0.00    +0.000 A 
ATOM     17  C   UNL     1       1.431   4.141  17.892  0.00  0.00    +0.000 A 
ATOM     18  C   UNL     1       2.775   4.093  18.282  0.00  0.00    +0.000 A 
BRANCH  13  20
ATOM     19  C   UNL     1       4.898   1.987  20.387  0.00  0.00    +0.000 C 
ATOM     20  O   UNL     1       4.488   3.133  19.633  0.00  0.00    +0.000 OA
ENDBRANCH  13  20
ENDBRANCH   1  18
TORSDOF 3
ENDMDL
MODEL 5
REMARK VINA RESULT:      -6.0      1.182      1.297
REMARK  Name = 
REMARK  4 active torsions:
REMARK  status: ('A' for Active; 'I' for Inactive)
REMARK    1  A    between atoms: C_1  and  O_2
REMARK    2  A    between atoms: O_2  and  C_3
REMARK    3  A    between atoms: C_8  and  N_9
REMARK    4  A    between atoms: C_10  and  C_12
REMARK                            x       y       z     vdW  Elec       q    Type
REMARK                         _______ _______ _______ _____ _____    ______ ____
ROOT
ATOM      1  N   UNL     1       4.022   4.527  16.610  0.00  0.00    +0.000 N 
ATOM      2  C   UNL     1       3.492   3.409  17.236  0.00  0.00    +0.000 C 
ATOM      3  O   UNL     1       3.867   2.247  17.165  0.00  0.00    +0.000 OA
ATOM      4  H   UNL     1       3.516   5.405  16.698  0.00  0.00    +0.000 HD
ENDROOT
BRANCH   2   5
ATOM      5  C   UNL     1       2.250   3.723  18.080  0.00  0.00    +0.000 C 
ATOM      6  O   UNL     1       1.204   3.958  17.485  0.00  0.00    +0.000 OA
ATOM      7  N   UNL     1       2.373   3.676  19.462  0.00  0.00    +0.000 N 
ATOM      8  C   UNL     1       3.593   3.356  20.209  0.00  0.00    +0.000 C 
ATOM      9  C   UNL     1       3.284   2.322  21.302  0.00  0.00    +0.000 C 
ATOM     10  O   UNL     1       2.203   2.754  22.145  0.00  0.00    +0.000 OA
ATOM     11  C   UNL     1       1.008   2.978  21.376  0.00  0.00    +0.000 C 
ATOM     12  C   UNL     1       1.242   4.045  20.305  0.00  0.00    +0.000 C 
ENDBRANCH   2   5
BRANCH   1  18
ATOM     13  C   UNL     1       6.389   5.041  16.314  0.00  0.00    +0.000 A 
ATOM     14  C   UNL     1       7.503   5.175  15.472  0.00  0.00    +0.000 A 
ATOM     15  C   UNL     1       7.445   4.754  14.145  0.00  0.00    +0.000 A 
ATOM     16  C   UNL     1       6.273   4.198  13.649  0.00  0.00    +0.000 A 
ATOM     17  C   UNL     1       5.142   4.112  14.460  0.00  0.00    +0.000 A 
ATOM     18  C   UNL     1       5.172   4.560  15.786  0.00  0.00    +0.000 A 
BRANCH  13  20
ATOM     19  C   UNL     1       7.386   6.383  17.989  0.00  0.00    +0.000 C 
ATOM     20  O   UNL     1       6.408   5.395  17.645  0.00  0.00    +0.000 OA
ENDBRANCH  13  20
ENDBRANCH   1  18
TORSDOF 3
ENDMDL
MODEL 6
REMARK VINA RESULT:      -5.9      2.215      5.905
REMARK  Name = 
REMARK  4 active torsions:
REMARK  status: ('A' for Active; 'I' for Inactive)
REMARK    1  A    between atoms: C_1  and  O_2
REMARK    2  A    between atoms: O_2  and  C_3
REMARK    3  A    between atoms: C_8  and  N_9
REMARK    4  A    between atoms: C_10  and  C_12
REMARK                            x       y       z     vdW  Elec       q    Type
REMARK                         _______ _______ _______ _____ _____    ______ ____
ROOT
ATOM      1  N   UNL     1       3.500   5.279  18.001  0.00  0.00    +0.000 N 
ATOM      2  C   UNL     1       4.321   4.923  16.942  0.00  0.00    +0.000 C 
ATOM      3  O   UNL     1       4.380   3.854  16.350  0.00  0.00    +0.000 OA
ATOM      4  H   UNL     1       3.660   6.181  18.442  0.00  0.00    +0.000 HD
ENDROOT
BRANCH   2   5
ATOM      5  C   UNL     1       5.288   6.038  16.528  0.00  0.00    +0.000 C 
ATOM      6  O   UNL     1       4.912   6.825  15.666  0.00  0.00    +0.000 OA
ATOM      7  N   UNL     1       6.509   6.119  17.184  0.00  0.00    +0.000 N 
ATOM      8  C   UNL     1       6.977   5.226  18.248  0.00  0.00    +0.000 C 
ATOM      9  C   UNL     1       7.541   6.049  19.414  0.00  0.00    +0.000 C 
ATOM     10  O   UNL     1       8.550   6.972  18.969  0.00  0.00    +0.000 OA
ATOM     11  C   UNL     1       8.020   7.877  17.984  0.00  0.00    +0.000 C 
ATOM     12  C   UNL     1       7.493   7.112  16.769  0.00  0.00    +0.000 C 
ENDBRANCH   2   5
BRANCH   1  18
ATOM     13  C   UNL     1       2.022   4.794  19.881  0.00  0.00    +0.000 A 
ATOM     14  C   UNL     1       1.107   3.938  20.512  0.00  0.00    +0.000 A 
ATOM     15  C   UNL     1       0.593   2.829  19.842  0.00  0.00    +0.000 A 
ATOM     16  C   UNL     1       0.993   2.565  18.539  0.00  0.00    +0.000 A 
ATOM     17  C   UNL     1       1.945   3.375  17.922  0.00  0.00    +0.000 A 
ATOM     18  C   UNL     1       2.496   4.475  18.590  0.00  0.00    +0.000 A 
BRANCH  13  20
ATOM     19  C   UNL     1       1.579   6.997  20.621  0.00  0.00    +0.000 C 
ATOM     20  O   UNL     1       2.522   5.929  20.478  0.00  0.00    +0.000 OA
ENDBRANCH  13  20
ENDBRANCH   1  18
TORSDOF 3
ENDMDL
MODEL 7
REMARK VINA RESULT:      -5.9      2.195      3.096
REMARK  Name = 
REMARK  4 active torsions:
REMARK  status: ('A' for Active; 'I' for Inactive)
REMARK    1  A    between atoms: C_1  and  O_2
REMARK    2  A    between atoms: O_2  and  C_3
REMARK    3  A    between atoms: C_8  and  N_9
REMARK    4  A    between atoms: C_10  and  C_12
REMARK                            x       y       z     vdW  Elec       q    Type
REMARK                         _______ _______ _______ _____ _____    ______ ____
ROOT
ATOM      1  N   UNL     1       5.023   4.623  18.447  0.00  0.00    +0.000 N 
ATOM      2  C   UNL     1       4.664   3.681  17.496  0.00  0.00    +0.000 C 
ATOM      3  O   UNL     1       5.054   3.577  16.341  0.00  0.00    +0.000 OA
ATOM      4  H   UNL     1       4.517   4.624  19.329  0.00  0.00    +0.000 HD
ENDROOT
BRANCH   2   5
ATOM      5  C   UNL     1       3.607   2.690  17.998  0.00  0.00    +0.000 C 
ATOM      6  O   UNL     1       3.857   1.494  17.900  0.00  0.00    +0.000 OA
ATOM      7  N   UNL     1       2.453   3.204  18.576  0.00  0.00    +0.000 N 
ATOM      8  C   UNL     1       2.137   4.625  18.752  0.00  0.00    +0.000 C 
ATOM      9  C   UNL     1       1.650   4.881  20.185  0.00  0.00    +0.000 C 
ATOM     10  O   UNL     1       0.558   4.013  20.534  0.00  0.00    +0.000 OA
ATOM     11  C   UNL     1       0.943   2.631  20.421  0.00  0.00    +0.000 C 
ATOM     12  C   UNL     1       1.386   2.304  18.994  0.00  0.00    +0.000 C 
ENDBRANCH   2   5
BRANCH   1  18
ATOM     13  C   UNL     1       5.686   6.754  17.462  0.00  0.00    +0.000 A 
ATOM     14  C   UNL     1       6.674   7.720  17.216  0.00  0.00    +0.000 A 
ATOM     15  C   UNL     1       7.912   7.647  17.852  0.00  0.00    +0.000 A 
ATOM     16  C   UNL     1       8.173   6.608  18.735  0.00  0.00    +0.000 A 
ATOM     17  C   UNL     1       7.220   5.611  18.943  0.00  0.00    +0.000 A 
ATOM     18  C   UNL     1       5.983   5.650  18.289  0.00  0.00    +0.000 A 
BRANCH  13  20
ATOM     19  C   UNL     1       3.511   7.682  17.560  0.00  0.00    +0.000 C 
ATOM     20  O   UNL     1       4.431   6.806  16.898  0.00  0.00    +0.000 OA
ENDBRANCH  13  20
ENDBRANCH   1  18
TORSDOF 3
ENDMDL
MODEL 8
REMARK VINA RESULT:      -5.7      2.155      6.240
REMARK  Name = 
REMARK  4 active torsions:
REMARK  status: ('A' for Active; 'I' for Inactive)
REMARK    1  A    between atoms: C_1  and  O_2
REMARK    2  A    between atoms: O_2  and  C_3
REMARK    3  A    between atoms: C_8  and  N_9
REMARK    4  A    between atoms: C_10  and  C_12
REMARK                            x       y       z     vdW  Elec       q    Type
REMARK                         _______ _______ _______ _____ _____    ______ ____
ROOT
ATOM      1  N   UNL     1       4.918   4.150  18.589  0.00  0.00    +0.000 N 
ATOM      2  C   UNL     1       6.168   4.706  18.817  0.00  0.00    +0.000 C 
ATOM      3  O   UNL     1       6.574   5.283  19.817  0.00  0.00    +0.000 OA
ATOM      4  H   UNL     1       4.718   3.802  17.655  0.00  0.00    +0.000 HD
ENDROOT
BRANCH   2   5
ATOM      5  C   UNL     1       7.108   4.590  17.611  0.00  0.00    +0.000 C 
ATOM      6  O   UNL     1       8.250   4.194  17.818  0.00  0.00    +0.000 OA
ATOM      7  N   UNL     1       6.599   4.895  16.356  0.00  0.00    +0.000 N 
ATOM      8  C   UNL     1       5.230   5.329  16.063  0.00  0.00    +0.000 C 
ATOM      9  C   UNL     1       4.664   4.523  14.885  0.00  0.00    +0.000 C 
ATOM     10  O   UNL     1       5.532   4.583  13.740  0.00  0.00    +0.000 OA
ATOM     11  C   UNL     1       6.839   4.073  14.058  0.00  0.00    +0.000 C 
ATOM     12  C   UNL     1       7.477   4.878  15.192  0.00  0.00    +0.000 C 
ENDBRANCH   2   5
BRANCH   1  18
ATOM     13  C   UNL     1       3.522   2.848  20.107  0.00  0.00    +0.000 A 
ATOM     14  C   UNL     1       2.396   2.757  20.940  0.00  0.00    +0.000 A 
ATOM     15  C   UNL     1       1.655   3.893  21.258  0.00  0.00    +0.000 A 
ATOM     16  C   UNL     1       2.029   5.127  20.743  0.00  0.00    +0.000 A 
ATOM     17  C   UNL     1       3.111   5.221  19.869  0.00  0.00    +0.000 A 
ATOM     18  C   UNL     1       3.849   4.085  19.513  0.00  0.00    +0.000 A 
BRANCH  13  20
ATOM     19  C   UNL     1       5.195   1.351  20.854  0.00  0.00    +0.000 C 
ATOM     20  O   UNL     1       4.318   1.766  19.802  0.00  0.00    +0.000 OA
ENDBRANCH  13  20
ENDBRANCH   1  18
TORSDOF 3
ENDMDL
MODEL 9
REMARK VINA RESULT:      -5.7      4.055      6.571
REMARK  Name = 
REMARK  4 active torsions:
REMARK  status: ('A' for Active; 'I' for Inactive)
REMARK    1  A    between atoms: C_1  and  O_2
REMARK    2  A    between atoms: O_2  and  C_3
REMARK    3  A    between atoms: C_8  and  N_9
REMARK    4  A    between atoms: C_10  and  C_12
REMARK                            x       y       z     vdW  Elec       q    Type
REMARK                         _______ _______ _______ _____ _____    ______ ____
ROOT
ATOM      1  N   UNL     1       2.246   7.541  20.063  0.00  0.00    +0.000 N 
ATOM      2  C   UNL     1       2.151   6.166  20.214  0.00  0.00    +0.000 C 
ATOM      3  O   UNL     1       1.350   5.526  20.882  0.00  0.00    +0.000 OA
ATOM      4  H   UNL     1       3.044   7.908  19.551  0.00  0.00    +0.000 HD
ENDROOT
BRANCH   2   5
ATOM      5  C   UNL     1       3.244   5.400  19.459  0.00  0.00    +0.000 C 
ATOM      6  O   UNL     1       4.410   5.709  19.679  0.00  0.00    +0.000 OA
ATOM      7  N   UNL     1       2.852   4.374  18.609  0.00  0.00    +0.000 N 
ATOM      8  C   UNL     1       1.473   3.945  18.354  0.00  0.00    +0.000 C 
ATOM      9  C   UNL     1       1.370   2.417  18.457  0.00  0.00    +0.000 C 
ATOM     10  O   UNL     1       2.330   1.766  17.607  0.00  0.00    +0.000 OA
ATOM     11  C   UNL     1       3.671   2.158  17.950  0.00  0.00    +0.000 C 
ATOM     12  C   UNL     1       3.848   3.671  17.810  0.00  0.00    +0.000 C 
ENDBRANCH   2   5
BRANCH   1  18
ATOM     13  C   UNL     1       0.779   9.469  19.775  0.00  0.00    +0.000 A 
ATOM     14  C   UNL     1       0.001  10.493  20.336  0.00  0.00    +0.000 A 
ATOM     15  C   UNL     1      -0.264  10.516  21.704  0.00  0.00    +0.000 A 
ATOM     16  C   UNL     1       0.249   9.518  22.521  0.00  0.00    +0.000 A 
ATOM     17  C   UNL     1       1.070   8.527  21.985  0.00  0.00    +0.000 A 
ATOM     18  C   UNL     1       1.374   8.507  20.618  0.00  0.00    +0.000 A 
BRANCH  13  20
ATOM     19  C   UNL     1       1.958  10.338  17.916  0.00  0.00    +0.000 C 
ATOM     20  O   UNL     1       1.030   9.373  18.425  0.00  0.00    +0.000 OA
ENDBRANCH  13  20
ENDBRANCH   1  18
TORSDOF 3
ENDMDL
