MODEL 1
REMARK VINA RESULT:      -7.2      0.000      0.000
REMARK  Name = 
REMARK  8 active torsions:
REMARK  status: ('A' for Active; 'I' for Inactive)
REMARK    1  A    between atoms: C_1  and  C_2
REMARK    2  A    between atoms: C_2  and  N_3
REMARK    3  A    between atoms: C_4  and  C_5
REMARK    4  A    between atoms: C_5  and  N_6
REMARK    5  A    between atoms: C_7  and  C_9
REMARK    6  A    between atoms: C_9  and  C_10
REMARK    7  A    between atoms: C_10  and  C_11
REMARK    8  A    between atoms: C_11  and  O_13
REMARK                            x       y       z     vdW  Elec       q    Type
REMARK                         _______ _______ _______ _____ _____    ______ ____
ROOT
ATOM      1  N   UNL     1       4.015   4.947  18.392  0.00  0.00    +0.000 N 
ATOM      2  C   UNL     1       4.658   4.026  17.579  0.00  0.00    +0.000 A 
ATOM      3  C   UNL     1       3.867   2.889  17.580  0.00  0.00    +0.000 A 
ATOM      4  C   UNL     1       2.766   3.093  18.446  0.00  0.00    +0.000 A 
ATOM      5  C   UNL     1       1.676   2.291  18.838  0.00  0.00    +0.000 A 
ATOM      6  C   UNL     1       0.750   2.787  19.760  0.00  0.00    +0.000 A 
ATOM      7  C   UNL     1       0.903   4.062  20.293  0.00  0.00    +0.000 A 
ATOM      8  C   UNL     1       1.974   4.879  19.914  0.00  0.00    +0.000 A 
ATOM      9  C   UNL     1       2.894   4.375  18.977  0.00  0.00    +0.000 A 
ENDROOT
BRANCH   1  11
ATOM     10  C   UNL     1       3.666   7.273  17.567  0.00  0.00    +0.000 C 
ATOM     11  C   UNL     1       4.367   6.351  18.553  0.00  0.00    +0.000 C 
ENDBRANCH   1  11
BRANCH   2  12
ATOM     12  C   UNL     1       5.964   4.297  16.892  0.00  0.00    +0.000 C 
BRANCH  12  13
ATOM     13  N   UNL     1       5.882   3.975  15.483  0.00  0.00    +0.000 N 
ATOM     14  C   UNL     1       6.737   4.516  14.547  0.00  0.00    +0.000 C 
ATOM     15  O   UNL     1       7.560   5.390  14.797  0.00  0.00    +0.000 OA
ATOM     16  H   UNL     1       5.217   3.270  15.199  0.00  0.00    +0.000 HD
BRANCH  14  17
ATOM     17  C   UNL     1       6.546   3.952  13.153  0.00  0.00    +0.000 C 
BRANCH  17  18
ATOM     18  C   UNL     1       5.065   3.731  12.848  0.00  0.00    +0.000 C 
BRANCH  18  19
ATOM     19  C   UNL     1       4.873   2.824  11.662  0.00  0.00    +0.000 C 
ATOM     20  O   UNL     1       3.990   2.941  10.829  0.00  0.00    +0.000 OA
BRANCH  19  21
ATOM     21  O   UNL     1       5.802   1.842  11.600  0.00  0.00    +0.000 OA
ATOM     22  H   UNL     1       6.042   1.478  12.473  0.00  0.00    +0.000 HD
ENDBRANCH  19  21
ENDBRANCH  18  19
ENDBRANCH  17  18
ENDBRANCH  14  17
ENDBRANCH  12  13
ENDBRANCH   2  12
TORSDOF 7
ENDMDL
MODEL 2
REMARK VINA RESULT:      -7.0      1.011      1.275
REMARK  Name = 
REMARK  8 active torsions:
REMARK  status: ('A' for Active; 'I' for Inactive)
REMARK    1  A    between atoms: C_1  and  C_2
REMARK    2  A    between atoms: C_2  and  N_3
REMARK    3  A    between atoms: C_4  and  C_5
REMARK    4  A    between atoms: C_5  and  N_6
REMARK    5  A    between atoms: C_7  and  C_9
REMARK    6  A    between atoms: C_9  and  C_10
REMARK    7  A    between atoms: C_10  and  C_11
REMARK    8  A    between atoms: C_11  and  O_13
REMARK                            x       y       z     vdW  Elec       q    Type
REMARK                         _______ _______ _______ _____ _____    ______ ____
ROOT
ATOM      1  N   UNL     1       4.241   5.085  18.848  0.00  0.00    +0.000 N 
ATOM      2  C   UNL     1       5.090   4.051  18.483  0.00  0.00    +0.000 A 
ATOM      3  C   UNL     1       4.422   2.876  18.784  0.00  0.00    +0.000 A 
ATOM      4  C   UNL     1       3.183   3.191  19.391  0.00  0.00    +0.000 A 
ATOM      5  C   UNL     1       2.127   2.414  19.907  0.00  0.00    +0.000 A 
ATOM      6  C   UNL     1       1.024   3.045  20.487  0.00  0.00    +0.000 A 
ATOM      7  C   UNL     1       0.966   4.432  20.561  0.00  0.00    +0.000 A 
ATOM      8  C   UNL     1       2.001   5.225  20.051  0.00  0.00    +0.000 A 
ATOM      9  C   UNL     1       3.101   4.580  19.459  0.00  0.00    +0.000 A 
ENDROOT
BRANCH   1  11
ATOM     10  C   UNL     1       4.018   6.888  17.141  0.00  0.00    +0.000 C 
ATOM     11  C   UNL     1       4.427   6.499  18.554  0.00  0.00    +0.000 C 
ENDBRANCH   1  11
BRANCH   2  12
ATOM     12  C   UNL     1       6.456   4.268  17.902  0.00  0.00    +0.000 C 
BRANCH  12  13
ATOM     13  N   UNL     1       6.419   4.195  16.456  0.00  0.00    +0.000 N 
ATOM     14  C   UNL     1       6.977   5.163  15.650  0.00  0.00    +0.000 C 
ATOM     15  O   UNL     1       7.452   6.213  16.070  0.00  0.00    +0.000 OA
ATOM     16  H   UNL     1       6.031   3.363  16.036  0.00  0.00    +0.000 HD
BRANCH  14  17
ATOM     17  C   UNL     1       6.925   4.827  14.172  0.00  0.00    +0.000 C 
BRANCH  17  18
ATOM     18  C   UNL     1       5.855   3.774  13.887  0.00  0.00    +0.000 C 
BRANCH  18  19
ATOM     19  C   UNL     1       5.863   3.353  12.442  0.00  0.00    +0.000 C 
ATOM     20  O   UNL     1       6.848   2.970  11.831  0.00  0.00    +0.000 OA
BRANCH  19  21
ATOM     21  O   UNL     1       4.640   3.433  11.868  0.00  0.00    +0.000 OA
ATOM     22  H   UNL     1       4.598   3.022  10.984  0.00  0.00    +0.000 HD
ENDBRANCH  19  21
ENDBRANCH  18  19
ENDBRANCH  17  18
ENDBRANCH  14  17
ENDBRANCH  12  13
ENDBRANCH   2  12
TORSDOF 7
ENDMDL
MODEL 3
REMARK VINA RESULT:      -7.0      0.971      1.234
REMARK  Name = 
REMARK  8 active torsions:
REMARK  status: ('A' for Active; 'I' for Inactive)
REMARK    1  A    between atoms: C_1  and  C_2
REMARK    2  A    between atoms: C_2  and  N_3
REMARK    3  A    between atoms: C_4  and  C_5
REMARK    4  A    between atoms: C_5  and  N_6
REMARK    5  A    between atoms: C_7  and  C_9
REMARK    6  A    between atoms: C_9  and  C_10
REMARK    7  A    between atoms: C_10  and  C_11
REMARK    8  A    between atoms: C_11  and  O_13
REMARK                            x       y       z     vdW  Elec       q    Type
REMARK                         _______ _______ _______ _____ _____    ______ ____
ROOT
ATOM      1  N   UNL     1       3.366   5.950  18.155  0.00  0.00    +0.000 N 
ATOM      2  C   UNL     1       4.142   5.347  17.176  0.00  0.00    +0.000 A 
ATOM      3  C   UNL     1       3.736   4.024  17.118  0.00  0.00    +0.000 A 
ATOM      4  C   UNL     1       2.750   3.800  18.109  0.00  0.00    +0.000 A 
ATOM      5  C   UNL     1       2.014   2.668  18.510  0.00  0.00    +0.000 A 
ATOM      6  C   UNL     1       1.114   2.770  19.574  0.00  0.00    +0.000 A 
ATOM      7  C   UNL     1       0.946   3.979  20.240  0.00  0.00    +0.000 A 
ATOM      8  C   UNL     1       1.662   5.119  19.856  0.00  0.00    +0.000 A 
ATOM      9  C   UNL     1       2.557   5.009  18.776  0.00  0.00    +0.000 A 
ENDROOT
BRANCH   1  11
ATOM     10  C   UNL     1       2.101   8.071  17.820  0.00  0.00    +0.000 C 
ATOM     11  C   UNL     1       3.299   7.375  18.448  0.00  0.00    +0.000 C 
ENDBRANCH   1  11
BRANCH   2  12
ATOM     12  C   UNL     1       5.202   6.070  16.398  0.00  0.00    +0.000 C 
BRANCH  12  13
ATOM     13  N   UNL     1       5.381   5.473  15.091  0.00  0.00    +0.000 N 
ATOM     14  C   UNL     1       6.532   4.808  14.729  0.00  0.00    +0.000 C 
ATOM     15  O   UNL     1       7.539   4.754  15.428  0.00  0.00    +0.000 OA
ATOM     16  H   UNL     1       4.596   5.488  14.455  0.00  0.00    +0.000 HD
BRANCH  14  17
ATOM     17  C   UNL     1       6.456   4.164  13.359  0.00  0.00    +0.000 C 
BRANCH  17  18
ATOM     18  C   UNL     1       5.065   3.589  13.099  0.00  0.00    +0.000 C 
BRANCH  18  19
ATOM     19  C   UNL     1       4.982   2.926  11.750  0.00  0.00    +0.000 C 
ATOM     20  O   UNL     1       5.651   1.967  11.401  0.00  0.00    +0.000 OA
BRANCH  19  21
ATOM     21  O   UNL     1       4.066   3.504  10.939  0.00  0.00    +0.000 OA
ATOM     22  H   UNL     1       4.391   4.312  10.498  0.00  0.00    +0.000 HD
ENDBRANCH  19  21
ENDBRANCH  18  19
ENDBRANCH  17  18
ENDBRANCH  14  17
ENDBRANCH  12  13
ENDBRANCH   2  12
TORSDOF 7
ENDMDL
MODEL 4
REMARK VINA RESULT:      -7.0      1.363      1.883
REMARK  Name = 
REMARK  8 active torsions:
REMARK  status: ('A' for Active; 'I' for Inactive)
REMARK    1  A    between atoms: C_1  and  C_2
REMARK    2  A    between atoms: C_2  and  N_3
REMARK    3  A    between atoms: C_4  and  C_5
REMARK    4  A    between atoms: C_5  and  N_6
REMARK    5  A    between atoms: C_7  and  C_9
REMARK    6  A    between atoms: C_9  and  C_10
REMARK    7  A    between atoms: C_10  and  C_11
REMARK    8  A    between atoms: C_11  and  O_13
REMARK                            x       y       z     vdW  Elec       q    Type
REMARK                         _______ _______ _______ _____ _____    ______ ____
ROOT
ATOM      1  N   UNL     1       4.489   4.520  18.720  0.00  0.00    +0.000 N 
ATOM      2  C   UNL     1       3.916   5.437  17.850  0.00  0.00    +0.000 A 
ATOM      3  C   UNL     1       2.578   5.515  18.194  0.00  0.00    +0.000 A 
ATOM      4  C   UNL     1       2.316   4.597  19.240  0.00  0.00    +0.000 A 
ATOM      5  C   UNL     1       1.154   4.244  19.955  0.00  0.00    +0.000 A 
ATOM      6  C   UNL     1       1.222   3.249  20.934  0.00  0.00    +0.000 A 
ATOM      7  C   UNL     1       2.425   2.605  21.201  0.00  0.00    +0.000 A 
ATOM      8  C   UNL     1       3.592   2.943  20.507  0.00  0.00    +0.000 A 
ATOM      9  C   UNL     1       3.517   3.954  19.532  0.00  0.00    +0.000 A 
ENDROOT
BRANCH   1  11
ATOM     10  C   UNL     1       6.718   5.435  19.356  0.00  0.00    +0.000 C 
ATOM     11  C   UNL     1       5.911   4.242  18.868  0.00  0.00    +0.000 C 
ENDBRANCH   1  11
BRANCH   2  12
ATOM     12  C   UNL     1       4.681   6.139  16.767  0.00  0.00    +0.000 C 
BRANCH  12  13
ATOM     13  N   UNL     1       5.005   5.228  15.689  0.00  0.00    +0.000 N 
ATOM     14  C   UNL     1       6.290   5.058  15.222  0.00  0.00    +0.000 C 
ATOM     15  O   UNL     1       7.247   5.730  15.591  0.00  0.00    +0.000 OA
ATOM     16  H   UNL     1       4.264   4.647  15.325  0.00  0.00    +0.000 HD
BRANCH  14  17
ATOM     17  C   UNL     1       6.416   3.972  14.172  0.00  0.00    +0.000 C 
BRANCH  17  18
ATOM     18  C   UNL     1       5.387   4.164  13.059  0.00  0.00    +0.000 C 
BRANCH  18  19
ATOM     19  C   UNL     1       5.438   3.041  12.057  0.00  0.00    +0.000 C 
ATOM     20  O   UNL     1       4.516   2.711  11.329  0.00  0.00    +0.000 OA
BRANCH  19  21
ATOM     21  O   UNL     1       6.639   2.417  12.033  0.00  0.00    +0.000 OA
ATOM     22  H   UNL     1       6.702   1.720  11.352  0.00  0.00    +0.000 HD
ENDBRANCH  19  21
ENDBRANCH  18  19
ENDBRANCH  17  18
ENDBRANCH  14  17
ENDBRANCH  12  13
ENDBRANCH   2  12
TORSDOF 7
ENDMDL
MODEL 5
REMARK VINA RESULT:      -6.9      1.371      1.619
REMARK  Name = 
REMARK  8 active torsions:
REMARK  status: ('A' for Active; 'I' for Inactive)
REMARK    1  A    between atoms: C_1  and  C_2
REMARK    2  A    between atoms: C_2  and  N_3
REMARK    3  A    between atoms: C_4  and  C_5
REMARK    4  A    between atoms: C_5  and  N_6
REMARK    5  A    between atoms: C_7  and  C_9
REMARK    6  A    between atoms: C_9  and  C_10
REMARK    7  A    between atoms: C_10  and  C_11
REMARK    8  A    between atoms: C_11  and  O_13
REMARK                            x       y       z     vdW  Elec       q    Type
REMARK                         _______ _______ _______ _____ _____    ______ ____
ROOT
ATOM      1  N   UNL     1       3.563   5.762  18.383  0.00  0.00    +0.000 N 
ATOM      2  C   UNL     1       4.918   5.494  18.255  0.00  0.00    +0.000 A 
ATOM      3  C   UNL     1       5.139   4.294  18.910  0.00  0.00    +0.000 A 
ATOM      4  C   UNL     1       3.927   3.856  19.494  0.00  0.00    +0.000 A 
ATOM      5  C   UNL     1       3.571   2.738  20.275  0.00  0.00    +0.000 A 
ATOM      6  C   UNL     1       2.259   2.607  20.737  0.00  0.00    +0.000 A 
ATOM      7  C   UNL     1       1.308   3.575  20.435  0.00  0.00    +0.000 A 
ATOM      8  C   UNL     1       1.636   4.691  19.657  0.00  0.00    +0.000 A 
ATOM      9  C   UNL     1       2.956   4.808  19.187  0.00  0.00    +0.000 A 
ENDROOT
BRANCH   1  11
ATOM     10  C   UNL     1       2.373   7.939  18.628  0.00  0.00    +0.000 C 
ATOM     11  C   UNL     1       2.824   6.817  17.704  0.00  0.00    +0.000 C 
ENDBRANCH   1  11
BRANCH   2  12
ATOM     12  C   UNL     1       5.877   6.400  17.542  0.00  0.00    +0.000 C 
BRANCH  12  13
ATOM     13  N   UNL     1       6.014   6.017  16.152  0.00  0.00    +0.000 N 
ATOM     14  C   UNL     1       6.950   5.102  15.723  0.00  0.00    +0.000 C 
ATOM     15  O   UNL     1       7.814   4.617  16.445  0.00  0.00    +0.000 OA
ATOM     16  H   UNL     1       5.342   6.387  15.494  0.00  0.00    +0.000 HD
BRANCH  14  17
ATOM     17  C   UNL     1       6.838   4.765  14.249  0.00  0.00    +0.000 C 
BRANCH  17  18
ATOM     18  C   UNL     1       5.759   3.709  14.008  0.00  0.00    +0.000 C 
BRANCH  18  19
ATOM     19  C   UNL     1       5.649   3.352  12.550  0.00  0.00    +0.000 C 
ATOM     20  O   UNL     1       4.696   3.616  11.836  0.00  0.00    +0.000 OA
BRANCH  19  21
ATOM     21  O   UNL     1       6.741   2.697  12.089  0.00  0.00    +0.000 OA
ATOM     22  H   UNL     1       6.549   2.097  11.344  0.00  0.00    +0.000 HD
ENDBRANCH  19  21
ENDBRANCH  18  19
ENDBRANCH  17  18
ENDBRANCH  14  17
ENDBRANCH  12  13
ENDBRANCH   2  12
TORSDOF 7
ENDMDL
MODEL 6
REMARK VINA RESULT:      -6.9      3.279      5.232
REMARK  Name = 
REMARK  8 active torsions:
REMARK  status: ('A' for Active; 'I' for Inactive)
REMARK    1  A    between atoms: C_1  and  C_2
REMARK    2  A    between atoms: C_2  and  N_3
REMARK    3  A    between atoms: C_4  and  C_5
REMARK    4  A    between atoms: C_5  and  N_6
REMARK    5  A    between atoms: C_7  and  C_9
REMARK    6  A    between atoms: C_9  and  C_10
REMARK    7  A    between atoms: C_10  and  C_11
REMARK    8  A    between atoms: C_11  and  O_13
REMARK                            x       y       z     vdW  Elec       q    Type
REMARK                         _______ _______ _______ _____ _____    ______ ____
ROOT
ATOM      1  N   UNL     1       3.105   5.928  18.430  0.00  0.00    +0.000 N 
ATOM      2  C   UNL     1       3.886   5.442  17.392  0.00  0.00    +0.000 A 
ATOM      3  C   UNL     1       3.629   4.083  17.316  0.00  0.00    +0.000 A 
ATOM      4  C   UNL     1       2.734   3.724  18.352  0.00  0.00    +0.000 A 
ATOM      5  C   UNL     1       2.154   2.505  18.758  0.00  0.00    +0.000 A 
ATOM      6  C   UNL     1       1.311   2.479  19.872  0.00  0.00    +0.000 A 
ATOM      7  C   UNL     1       1.047   3.644  20.582  0.00  0.00    +0.000 A 
ATOM      8  C   UNL     1       1.607   4.867  20.195  0.00  0.00    +0.000 A 
ATOM      9  C   UNL     1       2.444   4.886  19.065  0.00  0.00    +0.000 A 
ENDROOT
BRANCH   1  11
ATOM     10  C   UNL     1       2.020   8.074  17.772  0.00  0.00    +0.000 C 
ATOM     11  C   UNL     1       2.895   7.329  18.770  0.00  0.00    +0.000 C 
ENDBRANCH   1  11
BRANCH   2  12
ATOM     12  C   UNL     1       4.811   6.300  16.580  0.00  0.00    +0.000 C 
BRANCH  12  13
ATOM     13  N   UNL     1       5.819   6.912  17.421  0.00  0.00    +0.000 N 
ATOM     14  C   UNL     1       7.158   6.908  17.097  0.00  0.00    +0.000 C 
ATOM     15  O   UNL     1       7.629   6.303  16.140  0.00  0.00    +0.000 OA
ATOM     16  H   UNL     1       5.506   7.421  18.236  0.00  0.00    +0.000 HD
BRANCH  14  17
ATOM     17  C   UNL     1       8.017   7.705  18.059  0.00  0.00    +0.000 C 
BRANCH  17  18
ATOM     18  C   UNL     1       7.893   9.204  17.792  0.00  0.00    +0.000 C 
BRANCH  18  19
ATOM     19  C   UNL     1       9.006   9.978  18.449  0.00  0.00    +0.000 C 
ATOM     20  O   UNL     1       9.650  10.865  17.914  0.00  0.00    +0.000 OA
BRANCH  19  21
ATOM     21  O   UNL     1       9.226   9.592  19.727  0.00  0.00    +0.000 OA
ATOM     22  H   UNL     1       9.068   8.641  19.879  0.00  0.00    +0.000 HD
ENDBRANCH  19  21
ENDBRANCH  18  19
ENDBRANCH  17  18
ENDBRANCH  14  17
ENDBRANCH  12  13
ENDBRANCH   2  12
TORSDOF 7
ENDMDL
MODEL 7
REMARK VINA RESULT:      -6.8      3.452      6.977
REMARK  Name = 
REMARK  8 active torsions:
REMARK  status: ('A' for Active; 'I' for Inactive)
REMARK    1  A    between atoms: C_1  and  C_2
REMARK    2  A    between atoms: C_2  and  N_3
REMARK    3  A    between atoms: C_4  and  C_5
REMARK    4  A    between atoms: C_5  and  N_6
REMARK    5  A    between atoms: C_7  and  C_9
REMARK    6  A    between atoms: C_9  and  C_10
REMARK    7  A    between atoms: C_10  and  C_11
REMARK    8  A    between atoms: C_11  and  O_13
REMARK                            x       y       z     vdW  Elec       q    Type
REMARK                         _______ _______ _______ _____ _____    ______ ____
ROOT
ATOM      1  N   UNL     1       6.514   5.189  16.462  0.00  0.00    +0.000 N 
ATOM      2  C   UNL     1       5.351   4.582  16.913  0.00  0.00    +0.000 A 
ATOM      3  C   UNL     1       4.844   3.869  15.839  0.00  0.00    +0.000 A 
ATOM      4  C   UNL     1       5.666   4.091  14.708  0.00  0.00    +0.000 A 
ATOM      5  C   UNL     1       5.622   3.646  13.372  0.00  0.00    +0.000 A 
ATOM      6  C   UNL     1       6.593   4.082  12.467  0.00  0.00    +0.000 A 
ATOM      7  C   UNL     1       7.595   4.954  12.876  0.00  0.00    +0.000 A 
ATOM      8  C   UNL     1       7.662   5.405  14.199  0.00  0.00    +0.000 A 
ATOM      9  C   UNL     1       6.688   4.951  15.106  0.00  0.00    +0.000 A 
ENDROOT
BRANCH   1  11
ATOM     10  C   UNL     1       7.265   7.394  17.349  0.00  0.00    +0.000 C 
ATOM     11  C   UNL     1       7.494   5.891  17.279  0.00  0.00    +0.000 C 
ENDBRANCH   1  11
BRANCH   2  12
ATOM     12  C   UNL     1       4.820   4.743  18.307  0.00  0.00    +0.000 C 
BRANCH  12  13
ATOM     13  N   UNL     1       3.530   4.099  18.446  0.00  0.00    +0.000 N 
ATOM     14  C   UNL     1       3.372   2.883  19.074  0.00  0.00    +0.000 C 
ATOM     15  O   UNL     1       4.303   2.191  19.471  0.00  0.00    +0.000 OA
ATOM     16  H   UNL     1       2.715   4.605  18.131  0.00  0.00    +0.000 HD
BRANCH  14  17
ATOM     17  C   UNL     1       1.924   2.453  19.208  0.00  0.00    +0.000 C 
BRANCH  17  18
ATOM     18  C   UNL     1       1.138   3.436  20.074  0.00  0.00    +0.000 C 
BRANCH  18  19
ATOM     19  C   UNL     1       1.886   3.788  21.332  0.00  0.00    +0.000 C 
ATOM     20  O   UNL     1       2.052   3.037  22.279  0.00  0.00    +0.000 OA
BRANCH  19  21
ATOM     21  O   UNL     1       2.376   5.049  21.312  0.00  0.00    +0.000 OA
ATOM     22  H   UNL     1       2.976   5.245  22.057  0.00  0.00    +0.000 HD
ENDBRANCH  19  21
ENDBRANCH  18  19
ENDBRANCH  17  18
ENDBRANCH  14  17
ENDBRANCH  12  13
ENDBRANCH   2  12
TORSDOF 7
ENDMDL
MODEL 8
REMARK VINA RESULT:      -6.8      3.310      6.278
REMARK  Name = 
REMARK  8 active torsions:
REMARK  status: ('A' for Active; 'I' for Inactive)
REMARK    1  A    between atoms: C_1  and  C_2
REMARK    2  A    between atoms: C_2  and  N_3
REMARK    3  A    between atoms: C_4  and  C_5
REMARK    4  A    between atoms: C_5  and  N_6
REMARK    5  A    between atoms: C_7  and  C_9
REMARK    6  A    between atoms: C_9  and  C_10
REMARK    7  A    between atoms: C_10  and  C_11
REMARK    8  A    between atoms: C_11  and  O_13
REMARK                            x       y       z     vdW  Elec       q    Type
REMARK                         _______ _______ _______ _____ _____    ______ ____
ROOT
ATOM      1  N   UNL     1       6.215   5.238  17.645  0.00  0.00    +0.000 N 
ATOM      2  C   UNL     1       4.913   5.005  18.062  0.00  0.00    +0.000 A 
ATOM      3  C   UNL     1       4.256   4.435  16.985  0.00  0.00    +0.000 A 
ATOM      4  C   UNL     1       5.143   4.375  15.883  0.00  0.00    +0.000 A 
ATOM      5  C   UNL     1       5.015   3.919  14.556  0.00  0.00    +0.000 A 
ATOM      6  C   UNL     1       6.098   4.030  13.680  0.00  0.00    +0.000 A 
ATOM      7  C   UNL     1       7.296   4.590  14.110  0.00  0.00    +0.000 A 
ATOM      8  C   UNL     1       7.448   5.044  15.425  0.00  0.00    +0.000 A 
ATOM      9  C   UNL     1       6.356   4.917  16.302  0.00  0.00    +0.000 A 
ENDROOT
BRANCH   1  11
ATOM     10  C   UNL     1       7.797   7.077  18.218  0.00  0.00    +0.000 C 
ATOM     11  C   UNL     1       7.330   5.654  18.485  0.00  0.00    +0.000 C 
ENDBRANCH   1  11
BRANCH   2  12
ATOM     12  C   UNL     1       4.407   5.356  19.431  0.00  0.00    +0.000 C 
BRANCH  12  13
ATOM     13  N   UNL     1       3.575   4.296  19.961  0.00  0.00    +0.000 N 
ATOM     14  C   UNL     1       2.375   4.540  20.593  0.00  0.00    +0.000 C 
ATOM     15  O   UNL     1       1.959   5.662  20.860  0.00  0.00    +0.000 OA
ATOM     16  H   UNL     1       3.860   3.342  19.788  0.00  0.00    +0.000 HD
BRANCH  14  17
ATOM     17  C   UNL     1       1.617   3.281  20.963  0.00  0.00    +0.000 C 
BRANCH  17  18
ATOM     18  C   UNL     1       0.613   2.905  19.874  0.00  0.00    +0.000 C 
BRANCH  18  19
ATOM     19  C   UNL     1       1.270   2.817  18.522  0.00  0.00    +0.000 C 
ATOM     20  O   UNL     1       1.111   3.617  17.615  0.00  0.00    +0.000 OA
BRANCH  19  21
ATOM     21  O   UNL     1       2.082   1.741  18.405  0.00  0.00    +0.000 OA
ATOM     22  H   UNL     1       3.030   1.971  18.373  0.00  0.00    +0.000 HD
ENDBRANCH  19  21
ENDBRANCH  18  19
ENDBRANCH  17  18
ENDBRANCH  14  17
ENDBRANCH  12  13
ENDBRANCH   2  12
TORSDOF 7
ENDMDL
MODEL 9
REMARK VINA RESULT:      -6.7      2.231      4.219
REMARK  Name = 
REMARK  8 active torsions:
REMARK  status: ('A' for Active; 'I' for Inactive)
REMARK    1  A    between atoms: C_1  and  C_2
REMARK    2  A    between atoms: C_2  and  N_3
REMARK    3  A    between atoms: C_4  and  C_5
REMARK    4  A    between atoms: C_5  and  N_6
REMARK    5  A    between atoms: C_7  and  C_9
REMARK    6  A    between atoms: C_9  and  C_10
REMARK    7  A    between atoms: C_10  and  C_11
REMARK    8  A    between atoms: C_11  and  O_13
REMARK                            x       y       z     vdW  Elec       q    Type
REMARK                         _______ _______ _______ _____ _____    ______ ____
ROOT
ATOM      1  N   UNL     1       2.543   5.405  19.947  0.00  0.00    +0.000 N 
ATOM      2  C   UNL     1       3.210   5.186  18.751  0.00  0.00    +0.000 A 
ATOM      3  C   UNL     1       3.164   6.382  18.056  0.00  0.00    +0.000 A 
ATOM      4  C   UNL     1       2.412   7.322  18.802  0.00  0.00    +0.000 A 
ATOM      5  C   UNL     1       2.033   8.660  18.580  0.00  0.00    +0.000 A 
ATOM      6  C   UNL     1       1.240   9.319  19.523  0.00  0.00    +0.000 A 
ATOM      7  C   UNL     1       0.820   8.660  20.673  0.00  0.00    +0.000 A 
ATOM      8  C   UNL     1       1.189   7.332  20.918  0.00  0.00    +0.000 A 
ATOM      9  C   UNL     1       1.998   6.681  19.968  0.00  0.00    +0.000 A 
ENDROOT
BRANCH   1  11
ATOM     10  C   UNL     1       1.304   3.545  21.051  0.00  0.00    +0.000 C 
ATOM     11  C   UNL     1       2.490   4.498  21.085  0.00  0.00    +0.000 C 
ENDBRANCH   1  11
BRANCH   2  12
ATOM     12  C   UNL     1       3.814   3.866  18.370  0.00  0.00    +0.000 C 
BRANCH  12  13
ATOM     13  N   UNL     1       5.056   4.055  17.651  0.00  0.00    +0.000 N 
ATOM     14  C   UNL     1       6.214   4.477  18.268  0.00  0.00    +0.000 C 
ATOM     15  O   UNL     1       6.275   4.831  19.440  0.00  0.00    +0.000 OA
ATOM     16  H   UNL     1       5.080   3.794  16.675  0.00  0.00    +0.000 HD
BRANCH  14  17
ATOM     17  C   UNL     1       7.420   4.494  17.348  0.00  0.00    +0.000 C 
BRANCH  17  18
ATOM     18  C   UNL     1       7.240   5.517  16.228  0.00  0.00    +0.000 C 
BRANCH  18  19
ATOM     19  C   UNL     1       7.047   4.849  14.893  0.00  0.00    +0.000 C 
ATOM     20  O   UNL     1       6.306   3.901  14.687  0.00  0.00    +0.000 OA
BRANCH  19  21
ATOM     21  O   UNL     1       7.786   5.418  13.912  0.00  0.00    +0.000 OA
ATOM     22  H   UNL     1       7.283   5.583  13.092  0.00  0.00    +0.000 HD
ENDBRANCH  19  21
ENDBRANCH  18  19
ENDBRANCH  17  18
ENDBRANCH  14  17
ENDBRANCH  12  13
ENDBRANCH   2  12
TORSDOF 7
ENDMDL
