MODEL 1
REMARK VINA RESULT:      -7.9      0.000      0.000
REMARK  Name = 
REMARK  7 active torsions:
REMARK  status: ('A' for Active; 'I' for Inactive)
REMARK    1  A    between atoms: C_1  and  O_2
REMARK    2  A    between atoms: O_2  and  C_3
REMARK    3  A    between atoms: C_6  and  C_7
REMARK    4  A    between atoms: C_9  and  C_10
REMARK    5  A    between atoms: C_10  and  N_11
REMARK    6  A    between atoms: C_15  and  C_16
REMARK    7  A    between atoms: C_19  and  C_20
REMARK                            x       y       z     vdW  Elec       q    Type
REMARK                         _______ _______ _______ _____ _____    ______ ____
ROOT
ATOM      1  N   UNL     1       6.412   5.119  18.116  0.00  0.00    +0.000 NA
ATOM      2  C   UNL     1       7.798   5.264  18.596  0.00  0.00    +0.000 C 
ATOM      3  C   UNL     1       8.049   6.758  18.676  0.00  0.00    +0.000 C 
ATOM      4  C   UNL     1       7.239   7.332  17.527  0.00  0.00    +0.000 C 
ATOM      5  C   UNL     1       6.219   6.241  17.148  0.00  0.00    +0.000 C 
ENDROOT
BRANCH   5   6
ATOM      6  C   UNL     1       6.485   5.795  15.736  0.00  0.00    +0.000 A 
ATOM      7  N   UNL     1       7.679   5.960  15.140  0.00  0.00    +0.000 NA
ATOM      8  O   UNL     1       7.627   5.060  14.069  0.00  0.00    +0.000 OA
ATOM      9  C   UNL     1       6.410   4.449  14.135  0.00  0.00    +0.000 A 
ATOM     10  N   UNL     1       5.653   4.912  15.101  0.00  0.00    +0.000 NA
BRANCH   9  11
ATOM     11  C   UNL     1       5.986   3.264  13.287  0.00  0.00    +0.000 C 
ATOM     12  C   UNL     1       5.084   3.570  12.097  0.00  0.00    +0.000 C 
ATOM     13  C   UNL     1       6.501   3.162  11.864  0.00  0.00    +0.000 C 
ENDBRANCH   9  11
ENDBRANCH   5   6
BRANCH   1  14
ATOM     14  C   UNL     1       5.435   5.225  19.220  0.00  0.00    +0.000 C 
BRANCH  14  21
ATOM     15  C   UNL     1       3.069   5.826  18.433  0.00  0.00    +0.000 A 
ATOM     16  C   UNL     1       1.745   5.449  18.156  0.00  0.00    +0.000 A 
ATOM     17  C   UNL     1       1.330   4.127  18.291  0.00  0.00    +0.000 A 
ATOM     18  C   UNL     1       2.234   3.154  18.717  0.00  0.00    +0.000 A 
ATOM     19  C   UNL     1       1.816   1.720  18.858  0.00  0.00    +0.000 C 
ATOM     20  C   UNL     1       3.551   3.534  19.018  0.00  0.00    +0.000 A 
ATOM     21  C   UNL     1       3.992   4.871  18.905  0.00  0.00    +0.000 A 
BRANCH  15  23
ATOM     22  C   UNL     1       2.166   7.978  17.955  0.00  0.00    +0.000 C 
ATOM     23  O   UNL     1       3.289   7.171  18.285  0.00  0.00    +0.000 OA
ENDBRANCH  15  23
ENDBRANCH  14  21
ENDBRANCH   1  14
TORSDOF 5
ENDMDL
MODEL 2
REMARK VINA RESULT:      -7.8      1.306      2.333
REMARK  Name = 
REMARK  7 active torsions:
REMARK  status: ('A' for Active; 'I' for Inactive)
REMARK    1  A    between atoms: C_1  and  O_2
REMARK    2  A    between atoms: O_2  and  C_3
REMARK    3  A    between atoms: C_6  and  C_7
REMARK    4  A    between atoms: C_9  and  C_10
REMARK    5  A    between atoms: C_10  and  N_11
REMARK    6  A    between atoms: C_15  and  C_16
REMARK    7  A    between atoms: C_19  and  C_20
REMARK                            x       y       z     vdW  Elec       q    Type
REMARK                         _______ _______ _______ _____ _____    ______ ____
ROOT
ATOM      1  N   UNL     1       6.569   4.513  18.090  0.00  0.00    +0.000 NA
ATOM      2  C   UNL     1       7.950   4.871  18.463  0.00  0.00    +0.000 C 
ATOM      3  C   UNL     1       7.936   6.371  18.687  0.00  0.00    +0.000 C 
ATOM      4  C   UNL     1       6.922   6.887  17.683  0.00  0.00    +0.000 C 
ATOM      5  C   UNL     1       6.079   5.665  17.272  0.00  0.00    +0.000 C 
ENDROOT
BRANCH   5   6
ATOM      6  C   UNL     1       6.272   5.411  15.802  0.00  0.00    +0.000 A 
ATOM      7  N   UNL     1       7.383   5.787  15.144  0.00  0.00    +0.000 NA
ATOM      8  O   UNL     1       7.343   5.009  13.981  0.00  0.00    +0.000 OA
ATOM      9  C   UNL     1       6.216   4.248  14.064  0.00  0.00    +0.000 A 
ATOM     10  N   UNL     1       5.496   4.505  15.129  0.00  0.00    +0.000 NA
BRANCH   9  11
ATOM     11  C   UNL     1       5.859   3.117  13.115  0.00  0.00    +0.000 C 
ATOM     12  C   UNL     1       5.058   3.499  11.876  0.00  0.00    +0.000 C 
ATOM     13  C   UNL     1       6.488   3.097  11.734  0.00  0.00    +0.000 C 
ENDBRANCH   9  11
ENDBRANCH   5   6
BRANCH   1  14
ATOM     14  C   UNL     1       5.709   4.330  19.278  0.00  0.00    +0.000 C 
BRANCH  14  21
ATOM     15  C   UNL     1       3.366   3.766  18.401  0.00  0.00    +0.000 A 
ATOM     16  C   UNL     1       2.003   4.081  18.277  0.00  0.00    +0.000 A 
ATOM     17  C   UNL     1       1.466   5.209  18.892  0.00  0.00    +0.000 A 
ATOM     18  C   UNL     1       2.290   6.052  19.639  0.00  0.00    +0.000 A 
ATOM     19  C   UNL     1       1.734   7.266  20.323  0.00  0.00    +0.000 C 
ATOM     20  C   UNL     1       3.657   5.752  19.742  0.00  0.00    +0.000 A 
ATOM     21  C   UNL     1       4.228   4.623  19.114  0.00  0.00    +0.000 A 
BRANCH  15  23
ATOM     22  C   UNL     1       3.537   1.390  18.339  0.00  0.00    +0.000 C 
ATOM     23  O   UNL     1       3.726   2.646  17.698  0.00  0.00    +0.000 OA
ENDBRANCH  15  23
ENDBRANCH  14  21
ENDBRANCH   1  14
TORSDOF 5
ENDMDL
MODEL 3
REMARK VINA RESULT:      -7.8      2.688      6.884
REMARK  Name = 
REMARK  7 active torsions:
REMARK  status: ('A' for Active; 'I' for Inactive)
REMARK    1  A    between atoms: C_1  and  O_2
REMARK    2  A    between atoms: O_2  and  C_3
REMARK    3  A    between atoms: C_6  and  C_7
REMARK    4  A    between atoms: C_9  and  C_10
REMARK    5  A    between atoms: C_10  and  N_11
REMARK    6  A    between atoms: C_15  and  C_16
REMARK    7  A    between atoms: C_19  and  C_20
REMARK                            x       y       z     vdW  Elec       q    Type
REMARK                         _______ _______ _______ _____ _____    ______ ____
ROOT
ATOM      1  N   UNL     1       3.346   4.267  19.309  0.00  0.00    +0.000 NA
ATOM      2  C   UNL     1       2.154   3.527  19.762  0.00  0.00    +0.000 C 
ATOM      3  C   UNL     1       1.273   3.384  18.535  0.00  0.00    +0.000 C 
ATOM      4  C   UNL     1       1.517   4.661  17.752  0.00  0.00    +0.000 C 
ATOM      5  C   UNL     1       2.835   5.242  18.298  0.00  0.00    +0.000 C 
ENDROOT
BRANCH   5   6
ATOM      6  C   UNL     1       2.555   6.581  18.924  0.00  0.00    +0.000 A 
ATOM      7  N   UNL     1       2.492   7.715  18.204  0.00  0.00    +0.000 NA
ATOM      8  O   UNL     1       1.810   8.594  19.054  0.00  0.00    +0.000 OA
ATOM      9  C   UNL     1       1.535   7.897  20.192  0.00  0.00    +0.000 A 
ATOM     10  N   UNL     1       2.026   6.681  20.183  0.00  0.00    +0.000 NA
BRANCH   9  11
ATOM     11  C   UNL     1       0.643   8.389  21.318  0.00  0.00    +0.000 C 
ATOM     12  C   UNL     1       1.324   9.198  22.416  0.00  0.00    +0.000 C 
ATOM     13  C   UNL     1       0.403   9.880  21.461  0.00  0.00    +0.000 C 
ENDBRANCH   9  11
ENDBRANCH   5   6
BRANCH   1  14
ATOM     14  C   UNL     1       4.347   3.371  18.693  0.00  0.00    +0.000 C 
BRANCH  14  21
ATOM     15  C   UNL     1       6.431   4.732  18.076  0.00  0.00    +0.000 A 
ATOM     16  C   UNL     1       7.284   5.283  17.106  0.00  0.00    +0.000 A 
ATOM     17  C   UNL     1       7.065   5.063  15.748  0.00  0.00    +0.000 A 
ATOM     18  C   UNL     1       5.978   4.294  15.335  0.00  0.00    +0.000 A 
ATOM     19  C   UNL     1       5.727   4.031  13.879  0.00  0.00    +0.000 C 
ATOM     20  C   UNL     1       5.110   3.765  16.303  0.00  0.00    +0.000 A 
ATOM     21  C   UNL     1       5.301   3.987  17.685  0.00  0.00    +0.000 A 
BRANCH  15  23
ATOM     22  C   UNL     1       7.970   5.835  19.524  0.00  0.00    +0.000 C 
ATOM     23  O   UNL     1       6.774   5.084  19.356  0.00  0.00    +0.000 OA
ENDBRANCH  15  23
ENDBRANCH  14  21
ENDBRANCH   1  14
TORSDOF 5
ENDMDL
MODEL 4
REMARK VINA RESULT:      -7.6      1.331      1.415
REMARK  Name = 
REMARK  7 active torsions:
REMARK  status: ('A' for Active; 'I' for Inactive)
REMARK    1  A    between atoms: C_1  and  O_2
REMARK    2  A    between atoms: O_2  and  C_3
REMARK    3  A    between atoms: C_6  and  C_7
REMARK    4  A    between atoms: C_9  and  C_10
REMARK    5  A    between atoms: C_10  and  N_11
REMARK    6  A    between atoms: C_15  and  C_16
REMARK    7  A    between atoms: C_19  and  C_20
REMARK                            x       y       z     vdW  Elec       q    Type
REMARK                         _______ _______ _______ _____ _____    ______ ____
ROOT
ATOM      1  N   UNL     1       5.154   5.482  17.530  0.00  0.00    +0.000 NA
ATOM      2  C   UNL     1       6.137   4.767  18.365  0.00  0.00    +0.000 C 
ATOM      3  C   UNL     1       7.238   5.771  18.651  0.00  0.00    +0.000 C 
ATOM      4  C   UNL     1       7.304   6.616  17.392  0.00  0.00    +0.000 C 
ATOM      5  C   UNL     1       5.971   6.380  16.657  0.00  0.00    +0.000 C 
ENDROOT
BRANCH   5   6
ATOM      6  C   UNL     1       6.254   5.738  15.327  0.00  0.00    +0.000 A 
ATOM      7  N   UNL     1       7.503   5.582  14.852  0.00  0.00    +0.000 NA
ATOM      8  O   UNL     1       7.348   4.603  13.864  0.00  0.00    +0.000 OA
ATOM      9  C   UNL     1       6.026   4.272  13.850  0.00  0.00    +0.000 A 
ATOM     10  N   UNL     1       5.308   4.986  14.684  0.00  0.00    +0.000 NA
BRANCH   9  11
ATOM     11  C   UNL     1       5.427   3.118  13.067  0.00  0.00    +0.000 C 
ATOM     12  C   UNL     1       4.769   3.469  11.738  0.00  0.00    +0.000 C 
ATOM     13  C   UNL     1       6.061   2.723  11.747  0.00  0.00    +0.000 C 
ENDBRANCH   9  11
ENDBRANCH   5   6
BRANCH   1  14
ATOM     14  C   UNL     1       4.217   6.280  18.347  0.00  0.00    +0.000 C 
BRANCH  14  21
ATOM     15  C   UNL     1       2.214   6.165  19.944  0.00  0.00    +0.000 A 
ATOM     16  C   UNL     1       1.196   5.428  20.570  0.00  0.00    +0.000 A 
ATOM     17  C   UNL     1       1.005   4.079  20.286  0.00  0.00    +0.000 A 
ATOM     18  C   UNL     1       1.841   3.436  19.373  0.00  0.00    +0.000 A 
ATOM     19  C   UNL     1       1.649   1.986  19.038  0.00  0.00    +0.000 C 
ATOM     20  C   UNL     1       2.875   4.165  18.765  0.00  0.00    +0.000 A 
ATOM     21  C   UNL     1       3.099   5.530  19.050  0.00  0.00    +0.000 A 
BRANCH  15  23
ATOM     22  C   UNL     1       1.168   7.963  21.108  0.00  0.00    +0.000 C 
ATOM     23  O   UNL     1       2.280   7.465  20.373  0.00  0.00    +0.000 OA
ENDBRANCH  15  23
ENDBRANCH  14  21
ENDBRANCH   1  14
TORSDOF 5
ENDMDL
MODEL 5
REMARK VINA RESULT:      -7.3      1.591      2.507
REMARK  Name = 
REMARK  7 active torsions:
REMARK  status: ('A' for Active; 'I' for Inactive)
REMARK    1  A    between atoms: C_1  and  O_2
REMARK    2  A    between atoms: O_2  and  C_3
REMARK    3  A    between atoms: C_6  and  C_7
REMARK    4  A    between atoms: C_9  and  C_10
REMARK    5  A    between atoms: C_10  and  N_11
REMARK    6  A    between atoms: C_15  and  C_16
REMARK    7  A    between atoms: C_19  and  C_20
REMARK                            x       y       z     vdW  Elec       q    Type
REMARK                         _______ _______ _______ _____ _____    ______ ____
ROOT
ATOM      1  N   UNL     1       6.428   4.706  18.250  0.00  0.00    +0.000 NA
ATOM      2  C   UNL     1       7.838   4.863  18.650  0.00  0.00    +0.000 C 
ATOM      3  C   UNL     1       8.046   6.354  18.838  0.00  0.00    +0.000 C 
ATOM      4  C   UNL     1       7.143   6.989  17.796  0.00  0.00    +0.000 C 
ATOM      5  C   UNL     1       6.135   5.896  17.393  0.00  0.00    +0.000 C 
ENDROOT
BRANCH   5   6
ATOM      6  C   UNL     1       6.319   5.576  15.934  0.00  0.00    +0.000 A 
ATOM      7  N   UNL     1       7.470   5.817  15.282  0.00  0.00    +0.000 NA
ATOM      8  O   UNL     1       7.366   5.009  14.144  0.00  0.00    +0.000 OA
ATOM      9  C   UNL     1       6.167   4.368  14.233  0.00  0.00    +0.000 A 
ATOM     10  N   UNL     1       5.464   4.731  15.279  0.00  0.00    +0.000 NA
BRANCH   9  11
ATOM     11  C   UNL     1       5.711   3.248  13.314  0.00  0.00    +0.000 C 
ATOM     12  C   UNL     1       4.992   3.669  12.038  0.00  0.00    +0.000 C 
ATOM     13  C   UNL     1       6.371   3.103  11.956  0.00  0.00    +0.000 C 
ENDBRANCH   9  11
ENDBRANCH   5   6
BRANCH   1  14
ATOM     14  C   UNL     1       5.525   4.686  19.419  0.00  0.00    +0.000 C 
BRANCH  14  21
ATOM     15  C   UNL     1       3.882   2.822  20.051  0.00  0.00    +0.000 A 
ATOM     16  C   UNL     1       2.651   2.169  19.872  0.00  0.00    +0.000 A 
ATOM     17  C   UNL     1       1.712   2.643  18.960  0.00  0.00    +0.000 A 
ATOM     18  C   UNL     1       1.993   3.778  18.200  0.00  0.00    +0.000 A 
ATOM     19  C   UNL     1       0.993   4.318  17.219  0.00  0.00    +0.000 C 
ATOM     20  C   UNL     1       3.232   4.416  18.360  0.00  0.00    +0.000 A 
ATOM     21  C   UNL     1       4.208   3.945  19.266  0.00  0.00    +0.000 A 
BRANCH  15  23
ATOM     22  C   UNL     1       5.225   0.927  20.587  0.00  0.00    +0.000 C 
ATOM     23  O   UNL     1       4.696   2.194  20.959  0.00  0.00    +0.000 OA
ENDBRANCH  15  23
ENDBRANCH  14  21
ENDBRANCH   1  14
TORSDOF 5
ENDMDL
MODEL 6
REMARK VINA RESULT:      -7.2      2.636      5.134
REMARK  Name = 
REMARK  7 active torsions:
REMARK  status: ('A' for Active; 'I' for Inactive)
REMARK    1  A    between atoms: C_1  and  O_2
REMARK    2  A    between atoms: O_2  and  C_3
REMARK    3  A    between atoms: C_6  and  C_7
REMARK    4  A    between atoms: C_9  and  C_10
REMARK    5  A    between atoms: C_10  and  N_11
REMARK    6  A    between atoms: C_15  and  C_16
REMARK    7  A    between atoms: C_19  and  C_20
REMARK                            x       y       z     vdW  Elec       q    Type
REMARK                         _______ _______ _______ _____ _____    ______ ____
ROOT
ATOM      1  N   UNL     1       5.600   5.581  18.188  0.00  0.00    +0.000 NA
ATOM      2  C   UNL     1       5.149   5.184  16.842  0.00  0.00    +0.000 C 
ATOM      3  C   UNL     1       6.156   4.156  16.361  0.00  0.00    +0.000 C 
ATOM      4  C   UNL     1       7.471   4.612  16.968  0.00  0.00    +0.000 C 
ATOM      5  C   UNL     1       7.093   5.569  18.115  0.00  0.00    +0.000 C 
ENDROOT
BRANCH   5   6
ATOM      6  C   UNL     1       7.636   6.937  17.807  0.00  0.00    +0.000 A 
ATOM      7  N   UNL     1       7.101   7.730  16.861  0.00  0.00    +0.000 NA
ATOM      8  O   UNL     1       7.592   8.998  17.194  0.00  0.00    +0.000 OA
ATOM      9  C   UNL     1       8.366   8.835  18.303  0.00  0.00    +0.000 A 
ATOM     10  N   UNL     1       8.474   7.582  18.677  0.00  0.00    +0.000 NA
BRANCH   9  11
ATOM     11  C   UNL     1       8.952   9.967  19.128  0.00  0.00    +0.000 C 
ATOM     12  C   UNL     1      10.203  10.635  18.570  0.00  0.00    +0.000 C 
ATOM     13  C   UNL     1       8.908  11.376  18.568  0.00  0.00    +0.000 C 
ENDBRANCH   9  11
ENDBRANCH   5   6
BRANCH   1  14
ATOM     14  C   UNL     1       5.133   4.637  19.224  0.00  0.00    +0.000 C 
BRANCH  14  21
ATOM     15  C   UNL     1       2.830   3.587  19.638  0.00  0.00    +0.000 A 
ATOM     16  C   UNL     1       1.484   3.712  20.018  0.00  0.00    +0.000 A 
ATOM     17  C   UNL     1       0.966   4.935  20.438  0.00  0.00    +0.000 A 
ATOM     18  C   UNL     1       1.787   6.062  20.476  0.00  0.00    +0.000 A 
ATOM     19  C   UNL     1       1.258   7.388  20.937  0.00  0.00    +0.000 C 
ATOM     20  C   UNL     1       3.126   5.943  20.072  0.00  0.00    +0.000 A 
ATOM     21  C   UNL     1       3.670   4.718  19.627  0.00  0.00    +0.000 A 
BRANCH  15  23
ATOM     22  C   UNL     1       2.328   1.741  18.218  0.00  0.00    +0.000 C 
ATOM     23  O   UNL     1       3.155   2.323  19.217  0.00  0.00    +0.000 OA
ENDBRANCH  15  23
ENDBRANCH  14  21
ENDBRANCH   1  14
TORSDOF 5
ENDMDL
MODEL 7
REMARK VINA RESULT:      -7.2      2.498      6.473
REMARK  Name = 
REMARK  7 active torsions:
REMARK  status: ('A' for Active; 'I' for Inactive)
REMARK    1  A    between atoms: C_1  and  O_2
REMARK    2  A    between atoms: O_2  and  C_3
REMARK    3  A    between atoms: C_6  and  C_7
REMARK    4  A    between atoms: C_9  and  C_10
REMARK    5  A    between atoms: C_10  and  N_11
REMARK    6  A    between atoms: C_15  and  C_16
REMARK    7  A    between atoms: C_19  and  C_20
REMARK                            x       y       z     vdW  Elec       q    Type
REMARK                         _______ _______ _______ _____ _____    ______ ____
ROOT
ATOM      1  N   UNL     1       3.307   4.076  19.342  0.00  0.00    +0.000 NA
ATOM      2  C   UNL     1       2.218   3.162  19.736  0.00  0.00    +0.000 C 
ATOM      3  C   UNL     1       1.476   2.837  18.453  0.00  0.00    +0.000 C 
ATOM      4  C   UNL     1       1.571   4.112  17.635  0.00  0.00    +0.000 C 
ATOM      5  C   UNL     1       2.727   4.921  18.254  0.00  0.00    +0.000 C 
ENDROOT
BRANCH   5   6
ATOM      6  C   UNL     1       2.182   6.213  18.797  0.00  0.00    +0.000 A 
ATOM      7  N   UNL     1       2.314   6.566  20.089  0.00  0.00    +0.000 NA
ATOM      8  O   UNL     1       2.080   7.946  20.067  0.00  0.00    +0.000 OA
ATOM      9  C   UNL     1       1.835   8.277  18.769  0.00  0.00    +0.000 A 
ATOM     10  N   UNL     1       1.824   7.240  17.965  0.00  0.00    +0.000 NA
BRANCH   9  11
ATOM     11  C   UNL     1       1.713   9.696  18.242  0.00  0.00    +0.000 C 
ATOM     12  C   UNL     1       0.300  10.248  18.102  0.00  0.00    +0.000 C 
ATOM     13  C   UNL     1       1.196  10.778  19.171  0.00  0.00    +0.000 C 
ENDBRANCH   9  11
ENDBRANCH   5   6
BRANCH   1  14
ATOM     14  C   UNL     1       4.487   3.341  18.843  0.00  0.00    +0.000 C 
BRANCH  14  21
ATOM     15  C   UNL     1       6.386   4.929  18.172  0.00  0.00    +0.000 A 
ATOM     16  C   UNL     1       7.160   5.552  17.180  0.00  0.00    +0.000 A 
ATOM     17  C   UNL     1       6.964   5.269  15.831  0.00  0.00    +0.000 A 
ATOM     18  C   UNL     1       5.977   4.361  15.448  0.00  0.00    +0.000 A 
ATOM     19  C   UNL     1       5.753   4.028  14.002  0.00  0.00    +0.000 C 
ATOM     20  C   UNL     1       5.185   3.757  16.437  0.00  0.00    +0.000 A 
ATOM     21  C   UNL     1       5.354   4.040  17.810  0.00  0.00    +0.000 A 
BRANCH  15  23
ATOM     22  C   UNL     1       8.053   5.651  19.715  0.00  0.00    +0.000 C 
ATOM     23  O   UNL     1       6.689   5.356  19.439  0.00  0.00    +0.000 OA
ENDBRANCH  15  23
ENDBRANCH  14  21
ENDBRANCH   1  14
TORSDOF 5
ENDMDL
MODEL 8
REMARK VINA RESULT:      -7.2      1.430      1.587
REMARK  Name = 
REMARK  7 active torsions:
REMARK  status: ('A' for Active; 'I' for Inactive)
REMARK    1  A    between atoms: C_1  and  O_2
REMARK    2  A    between atoms: O_2  and  C_3
REMARK    3  A    between atoms: C_6  and  C_7
REMARK    4  A    between atoms: C_9  and  C_10
REMARK    5  A    between atoms: C_10  and  N_11
REMARK    6  A    between atoms: C_15  and  C_16
REMARK    7  A    between atoms: C_19  and  C_20
REMARK                            x       y       z     vdW  Elec       q    Type
REMARK                         _______ _______ _______ _____ _____    ______ ____
ROOT
ATOM      1  N   UNL     1       5.816   5.387  18.405  0.00  0.00    +0.000 NA
ATOM      2  C   UNL     1       7.129   5.387  19.075  0.00  0.00    +0.000 C 
ATOM      3  C   UNL     1       7.813   6.667  18.634  0.00  0.00    +0.000 C 
ATOM      4  C   UNL     1       7.329   6.875  17.211  0.00  0.00    +0.000 C 
ATOM      5  C   UNL     1       6.066   6.004  17.066  0.00  0.00    +0.000 C 
ENDROOT
BRANCH   5   6
ATOM      6  C   UNL     1       6.316   4.953  16.019  0.00  0.00    +0.000 A 
ATOM      7  N   UNL     1       5.958   3.668  16.187  0.00  0.00    +0.000 NA
ATOM      8  O   UNL     1       5.965   3.163  14.882  0.00  0.00    +0.000 OA
ATOM      9  C   UNL     1       6.324   4.195  14.069  0.00  0.00    +0.000 A 
ATOM     10  N   UNL     1       6.610   5.293  14.726  0.00  0.00    +0.000 NA
BRANCH   9  11
ATOM     11  C   UNL     1       6.282   4.162  12.551  0.00  0.00    +0.000 C 
ATOM     12  C   UNL     1       6.775   2.881  11.888  0.00  0.00    +0.000 C 
ATOM     13  C   UNL     1       5.319   3.208  11.868  0.00  0.00    +0.000 C 
ENDBRANCH   9  11
ENDBRANCH   5   6
BRANCH   1  14
ATOM     14  C   UNL     1       4.818   6.180  19.152  0.00  0.00    +0.000 C 
BRANCH  14  21
ATOM     15  C   UNL     1       2.385   6.184  19.961  0.00  0.00    +0.000 A 
ATOM     16  C   UNL     1       1.218   5.489  20.320  0.00  0.00    +0.000 A 
ATOM     17  C   UNL     1       1.152   4.101  20.230  0.00  0.00    +0.000 A 
ATOM     18  C   UNL     1       2.260   3.379  19.786  0.00  0.00    +0.000 A 
ATOM     19  C   UNL     1       2.211   1.884  19.667  0.00  0.00    +0.000 C 
ATOM     20  C   UNL     1       3.434   4.071  19.452  0.00  0.00    +0.000 A 
ATOM     21  C   UNL     1       3.532   5.477  19.551  0.00  0.00    +0.000 A 
BRANCH  15  23
ATOM     22  C   UNL     1       1.303   7.992  21.076  0.00  0.00    +0.000 C 
ATOM     23  O   UNL     1       2.284   7.538  20.151  0.00  0.00    +0.000 OA
ENDBRANCH  15  23
ENDBRANCH  14  21
ENDBRANCH   1  14
TORSDOF 5
ENDMDL
MODEL 9
REMARK VINA RESULT:      -7.1      1.219      1.401
REMARK  Name = 
REMARK  7 active torsions:
REMARK  status: ('A' for Active; 'I' for Inactive)
REMARK    1  A    between atoms: C_1  and  O_2
REMARK    2  A    between atoms: O_2  and  C_3
REMARK    3  A    between atoms: C_6  and  C_7
REMARK    4  A    between atoms: C_9  and  C_10
REMARK    5  A    between atoms: C_10  and  N_11
REMARK    6  A    between atoms: C_15  and  C_16
REMARK    7  A    between atoms: C_19  and  C_20
REMARK                            x       y       z     vdW  Elec       q    Type
REMARK                         _______ _______ _______ _____ _____    ______ ____
ROOT
ATOM      1  N   UNL     1       6.095   5.226  18.508  0.00  0.00    +0.000 NA
ATOM      2  C   UNL     1       7.474   5.409  18.998  0.00  0.00    +0.000 C 
ATOM      3  C   UNL     1       7.907   6.774  18.495  0.00  0.00    +0.000 C 
ATOM      4  C   UNL     1       7.211   6.913  17.154  0.00  0.00    +0.000 C 
ATOM      5  C   UNL     1       6.074   5.874  17.161  0.00  0.00    +0.000 C 
ENDROOT
BRANCH   5   6
ATOM      6  C   UNL     1       6.325   4.870  16.069  0.00  0.00    +0.000 A 
ATOM      7  N   UNL     1       5.978   3.576  16.185  0.00  0.00    +0.000 NA
ATOM      8  O   UNL     1       5.979   3.126  14.859  0.00  0.00    +0.000 OA
ATOM      9  C   UNL     1       6.323   4.195  14.088  0.00  0.00    +0.000 A 
ATOM     10  N   UNL     1       6.606   5.267  14.789  0.00  0.00    +0.000 NA
BRANCH   9  11
ATOM     11  C   UNL     1       6.270   4.225  12.571  0.00  0.00    +0.000 C 
ATOM     12  C   UNL     1       6.866   3.023  11.848  0.00  0.00    +0.000 C 
ATOM     13  C   UNL     1       5.387   3.222  11.851  0.00  0.00    +0.000 C 
ENDBRANCH   9  11
ENDBRANCH   5   6
BRANCH   1  14
ATOM     14  C   UNL     1       5.106   5.869  19.398  0.00  0.00    +0.000 C 
BRANCH  14  21
ATOM     15  C   UNL     1       2.694   5.575  18.580  0.00  0.00    +0.000 A 
ATOM     16  C   UNL     1       1.435   4.962  18.692  0.00  0.00    +0.000 A 
ATOM     17  C   UNL     1       1.197   3.978  19.647  0.00  0.00    +0.000 A 
ATOM     18  C   UNL     1       2.216   3.594  20.518  0.00  0.00    +0.000 A 
ATOM     19  C   UNL     1       1.990   2.526  21.548  0.00  0.00    +0.000 C 
ATOM     20  C   UNL     1       3.466   4.223  20.424  0.00  0.00    +0.000 A 
ATOM     21  C   UNL     1       3.727   5.236  19.475  0.00  0.00    +0.000 A 
BRANCH  15  23
ATOM     22  C   UNL     1       2.399   7.871  18.011  0.00  0.00    +0.000 C 
ATOM     23  O   UNL     1       2.735   6.547  17.614  0.00  0.00    +0.000 OA
ENDBRANCH  15  23
ENDBRANCH  14  21
ENDBRANCH   1  14
TORSDOF 5
ENDMDL
