MODEL 1
REMARK VINA RESULT:      -7.8      0.000      0.000
REMARK  Name = 
REMARK  7 active torsions:
REMARK  status: ('A' for Active; 'I' for Inactive)
REMARK    1  A    between atoms: C_1  and  C_2
REMARK    2  A    between atoms: C_4  and  N_5
REMARK    3  A    between atoms: N_5  and  C_6
REMARK    4  A    between atoms: C_6  and  C_7
REMARK    5  A    between atoms: C_6  and  C_8
REMARK    6  A    between atoms: N_11  and  C_12
REMARK    7  A    between atoms: C_12  and  C_13
REMARK                            x       y       z     vdW  Elec       q    Type
REMARK                         _______ _______ _______ _____ _____    ______ ____
ROOT
ATOM      1  C   UNL     1       6.668   3.785  12.702  0.00  0.00    +0.000 C 
ATOM      2  C   UNL     1       6.426   4.309  14.087  0.00  0.00    +0.000 A 
ATOM      3  C   UNL     1       7.342   5.172  14.667  0.00  0.00    +0.000 A 
ATOM      4  C   UNL     1       7.004   5.708  15.900  0.00  0.00    +0.000 A 
ATOM      5  N   UNL     1       5.862   5.389  16.504  0.00  0.00    +0.000 NA
ATOM      6  C   UNL     1       5.064   4.494  15.906  0.00  0.00    +0.000 A 
ATOM      7  N   UNL     1       3.911   4.100  16.508  0.00  0.00    +0.000 N 
ATOM      8  N   UNL     1       5.311   3.934  14.710  0.00  0.00    +0.000 NA
ATOM      9  H   UNL     1       3.694   3.129  16.372  0.00  0.00    +0.000 HD
ENDROOT
BRANCH   4  10
ATOM     10  N   UNL     1       7.815   6.706  16.429  0.00  0.00    +0.000 N 
ATOM     11  H   UNL     1       8.713   6.832  15.997  0.00  0.00    +0.000 HD
BRANCH  10  12
ATOM     12  C   UNL     1       7.542   7.293  17.748  0.00  0.00    +0.000 C 
ATOM     13  C   UNL     1       8.110   6.483  18.913  0.00  0.00    +0.000 C 
ATOM     14  C   UNL     1       8.155   8.699  17.800  0.00  0.00    +0.000 C 
ENDBRANCH  10  12
ENDBRANCH   4  10
BRANCH   7  15
ATOM     15  C   UNL     1       3.187   4.966  17.397  0.00  0.00    +0.000 C 
BRANCH  15  16
ATOM     16  C   UNL     1       2.614   4.173  18.596  0.00  0.00    +0.000 C 
ATOM     17  C   UNL     1       1.958   5.112  19.646  0.00  0.00    +0.000 C 
ATOM     18  C   UNL     1       1.385   4.302  20.818  0.00  0.00    +0.000 C 
ATOM     19  C   UNL     1       0.316   3.338  20.285  0.00  0.00    +0.000 C 
ATOM     20  C   UNL     1       0.939   2.377  19.261  0.00  0.00    +0.000 C 
ATOM     21  C   UNL     1       2.066   1.578  19.935  0.00  0.00    +0.000 C 
ATOM     22  C   UNL     1       3.148   2.534  20.461  0.00  0.00    +0.000 C 
ATOM     23  C   UNL     1       2.521   3.501  21.478  0.00  0.00    +0.000 C 
ATOM     24  C   UNL     1       3.726   3.342  19.288  0.00  0.00    +0.000 C 
ATOM     25  C   UNL     1       1.525   3.188  18.092  0.00  0.00    +0.000 C 
ENDBRANCH  15  16
ENDBRANCH   7  15
TORSDOF 4
ENDMDL
MODEL 2
REMARK VINA RESULT:      -7.8      0.117      1.515
REMARK  Name = 
REMARK  7 active torsions:
REMARK  status: ('A' for Active; 'I' for Inactive)
REMARK    1  A    between atoms: C_1  and  C_2
REMARK    2  A    between atoms: C_4  and  N_5
REMARK    3  A    between atoms: N_5  and  C_6
REMARK    4  A    between atoms: C_6  and  C_7
REMARK    5  A    between atoms: C_6  and  C_8
REMARK    6  A    between atoms: N_11  and  C_12
REMARK    7  A    between atoms: C_12  and  C_13
REMARK                            x       y       z     vdW  Elec       q    Type
REMARK                         _______ _______ _______ _____ _____    ______ ____
ROOT
ATOM      1  C   UNL     1       6.671   3.783  12.681  0.00  0.00    +0.000 C 
ATOM      2  C   UNL     1       6.430   4.298  14.070  0.00  0.00    +0.000 A 
ATOM      3  C   UNL     1       7.342   5.163  14.652  0.00  0.00    +0.000 A 
ATOM      4  C   UNL     1       7.004   5.690  15.889  0.00  0.00    +0.000 A 
ATOM      5  N   UNL     1       5.866   5.360  16.494  0.00  0.00    +0.000 NA
ATOM      6  C   UNL     1       5.072   4.464  15.894  0.00  0.00    +0.000 A 
ATOM      7  N   UNL     1       3.923   4.060  16.497  0.00  0.00    +0.000 N 
ATOM      8  N   UNL     1       5.319   3.913  14.694  0.00  0.00    +0.000 NA
ATOM      9  H   UNL     1       3.712   3.089  16.356  0.00  0.00    +0.000 HD
ENDROOT
BRANCH   4  10
ATOM     10  N   UNL     1       7.811   6.690  16.422  0.00  0.00    +0.000 N 
ATOM     11  H   UNL     1       8.710   6.818  15.993  0.00  0.00    +0.000 HD
BRANCH  10  12
ATOM     12  C   UNL     1       7.531   7.276  17.740  0.00  0.00    +0.000 C 
ATOM     13  C   UNL     1       8.082   6.459  18.908  0.00  0.00    +0.000 C 
ATOM     14  C   UNL     1       8.155   8.677  17.801  0.00  0.00    +0.000 C 
ENDBRANCH  10  12
ENDBRANCH   4  10
BRANCH   7  15
ATOM     15  C   UNL     1       3.196   4.916  17.393  0.00  0.00    +0.000 C 
BRANCH  15  16
ATOM     16  C   UNL     1       2.631   4.113  18.589  0.00  0.00    +0.000 C 
ATOM     17  C   UNL     1       3.762   3.446  19.419  0.00  0.00    +0.000 C 
ATOM     18  C   UNL     1       3.178   2.667  20.607  0.00  0.00    +0.000 C 
ATOM     19  C   UNL     1       2.410   3.639  21.514  0.00  0.00    +0.000 C 
ATOM     20  C   UNL     1       1.267   4.298  20.728  0.00  0.00    +0.000 C 
ATOM     21  C   UNL     1       0.312   3.209  20.212  0.00  0.00    +0.000 C 
ATOM     22  C   UNL     1       1.069   2.238  19.292  0.00  0.00    +0.000 C 
ATOM     23  C   UNL     1       2.219   1.587  20.077  0.00  0.00    +0.000 C 
ATOM     24  C   UNL     1       1.650   3.015  18.100  0.00  0.00    +0.000 C 
ATOM     25  C   UNL     1       1.848   5.068  19.530  0.00  0.00    +0.000 C 
ENDBRANCH  15  16
ENDBRANCH   7  15
TORSDOF 4
ENDMDL
MODEL 3
REMARK VINA RESULT:      -7.8      4.977      7.181
REMARK  Name = 
REMARK  7 active torsions:
REMARK  status: ('A' for Active; 'I' for Inactive)
REMARK    1  A    between atoms: C_1  and  C_2
REMARK    2  A    between atoms: C_4  and  N_5
REMARK    3  A    between atoms: N_5  and  C_6
REMARK    4  A    between atoms: C_6  and  C_7
REMARK    5  A    between atoms: C_6  and  C_8
REMARK    6  A    between atoms: N_11  and  C_12
REMARK    7  A    between atoms: C_12  and  C_13
REMARK                            x       y       z     vdW  Elec       q    Type
REMARK                         _______ _______ _______ _____ _____    ______ ____
ROOT
ATOM      1  C   UNL     1      -0.757  10.460  23.120  0.00  0.00    +0.000 C 
ATOM      2  C   UNL     1      -0.145   9.986  21.834  0.00  0.00    +0.000 A 
ATOM      3  C   UNL     1      -0.123  10.825  20.732  0.00  0.00    +0.000 A 
ATOM      4  C   UNL     1       0.557  10.370  19.612  0.00  0.00    +0.000 A 
ATOM      5  N   UNL     1       1.140   9.174  19.595  0.00  0.00    +0.000 NA
ATOM      6  C   UNL     1       1.013   8.397  20.679  0.00  0.00    +0.000 A 
ATOM      7  N   UNL     1       1.551   7.149  20.689  0.00  0.00    +0.000 N 
ATOM      8  N   UNL     1       0.381   8.763  21.806  0.00  0.00    +0.000 NA
ATOM      9  H   UNL     1       0.990   6.471  21.174  0.00  0.00    +0.000 HD
ENDROOT
BRANCH   4  10
ATOM     10  N   UNL     1       0.746  11.251  18.553  0.00  0.00    +0.000 N 
ATOM     11  H   UNL     1       0.976  10.844  17.665  0.00  0.00    +0.000 HD
BRANCH  10  12
ATOM     12  C   UNL     1       0.955  12.687  18.783  0.00  0.00    +0.000 C 
ATOM     13  C   UNL     1       2.195  13.249  18.090  0.00  0.00    +0.000 C 
ATOM     14  C   UNL     1      -0.270  13.454  18.266  0.00  0.00    +0.000 C 
ENDBRANCH  10  12
ENDBRANCH   4  10
BRANCH   7  15
ATOM     15  C   UNL     1       2.718   6.821  19.919  0.00  0.00    +0.000 C 
BRANCH  15  16
ATOM     16  C   UNL     1       2.681   5.343  19.461  0.00  0.00    +0.000 C 
ATOM     17  C   UNL     1       4.101   4.715  19.427  0.00  0.00    +0.000 C 
ATOM     18  C   UNL     1       4.037   3.246  18.983  0.00  0.00    +0.000 C 
ATOM     19  C   UNL     1       3.176   2.459  19.981  0.00  0.00    +0.000 C 
ATOM     20  C   UNL     1       1.754   3.041  20.021  0.00  0.00    +0.000 C 
ATOM     21  C   UNL     1       1.131   2.953  18.618  0.00  0.00    +0.000 C 
ATOM     22  C   UNL     1       1.979   3.748  17.614  0.00  0.00    +0.000 C 
ATOM     23  C   UNL     1       3.404   3.172  17.583  0.00  0.00    +0.000 C 
ATOM     24  C   UNL     1       2.041   5.220  18.053  0.00  0.00    +0.000 C 
ATOM     25  C   UNL     1       1.818   4.516  20.452  0.00  0.00    +0.000 C 
ENDBRANCH  15  16
ENDBRANCH   7  15
TORSDOF 4
ENDMDL
MODEL 4
REMARK VINA RESULT:      -7.8      4.900      7.119
REMARK  Name = 
REMARK  7 active torsions:
REMARK  status: ('A' for Active; 'I' for Inactive)
REMARK    1  A    between atoms: C_1  and  C_2
REMARK    2  A    between atoms: C_4  and  N_5
REMARK    3  A    between atoms: N_5  and  C_6
REMARK    4  A    between atoms: C_6  and  C_7
REMARK    5  A    between atoms: C_6  and  C_8
REMARK    6  A    between atoms: N_11  and  C_12
REMARK    7  A    between atoms: C_12  and  C_13
REMARK                            x       y       z     vdW  Elec       q    Type
REMARK                         _______ _______ _______ _____ _____    ______ ____
ROOT
ATOM      1  C   UNL     1      -0.524  10.270  23.215  0.00  0.00    +0.000 C 
ATOM      2  C   UNL     1       0.015   9.830  21.885  0.00  0.00    +0.000 A 
ATOM      3  C   UNL     1      -0.044  10.688  20.800  0.00  0.00    +0.000 A 
ATOM      4  C   UNL     1       0.573  10.265  19.632  0.00  0.00    +0.000 A 
ATOM      5  N   UNL     1       1.171   9.079  19.556  0.00  0.00    +0.000 NA
ATOM      6  C   UNL     1       1.123   8.281  20.631  0.00  0.00    +0.000 A 
ATOM      7  N   UNL     1       1.679   7.042  20.585  0.00  0.00    +0.000 N 
ATOM      8  N   UNL     1       0.556   8.616  21.802  0.00  0.00    +0.000 NA
ATOM      9  H   UNL     1       1.160   6.346  21.090  0.00  0.00    +0.000 HD
ENDROOT
BRANCH   4  10
ATOM     10  N   UNL     1       0.683  11.168  18.580  0.00  0.00    +0.000 N 
ATOM     11  H   UNL     1       0.825  10.778  17.666  0.00  0.00    +0.000 HD
BRANCH  10  12
ATOM     12  C   UNL     1       0.939  12.595  18.823  0.00  0.00    +0.000 C 
ATOM     13  C   UNL     1       2.219  13.112  18.169  0.00  0.00    +0.000 C 
ATOM     14  C   UNL     1      -0.241  13.409  18.273  0.00  0.00    +0.000 C 
ENDBRANCH  10  12
ENDBRANCH   4  10
BRANCH   7  15
ATOM     15  C   UNL     1       2.801   6.746  19.739  0.00  0.00    +0.000 C 
BRANCH  15  16
ATOM     16  C   UNL     1       2.815   5.251  19.341  0.00  0.00    +0.000 C 
ATOM     17  C   UNL     1       2.179   5.021  17.942  0.00  0.00    +0.000 C 
ATOM     18  C   UNL     1       2.217   3.533  17.564  0.00  0.00    +0.000 C 
ATOM     19  C   UNL     1       3.678   3.064  17.523  0.00  0.00    +0.000 C 
ATOM     20  C   UNL     1       4.330   3.255  18.901  0.00  0.00    +0.000 C 
ATOM     21  C   UNL     1       3.554   2.437  19.946  0.00  0.00    +0.000 C 
ATOM     22  C   UNL     1       2.093   2.908  20.004  0.00  0.00    +0.000 C 
ATOM     23  C   UNL     1       1.445   2.727  18.622  0.00  0.00    +0.000 C 
ATOM     24  C   UNL     1       2.053   4.396  20.387  0.00  0.00    +0.000 C 
ATOM     25  C   UNL     1       4.281   4.743  19.287  0.00  0.00    +0.000 C 
ENDBRANCH  15  16
ENDBRANCH   7  15
TORSDOF 4
ENDMDL
MODEL 5
REMARK VINA RESULT:      -7.5      5.204      7.551
REMARK  Name = 
REMARK  7 active torsions:
REMARK  status: ('A' for Active; 'I' for Inactive)
REMARK    1  A    between atoms: C_1  and  C_2
REMARK    2  A    between atoms: C_4  and  N_5
REMARK    3  A    between atoms: N_5  and  C_6
REMARK    4  A    between atoms: C_6  and  C_7
REMARK    5  A    between atoms: C_6  and  C_8
REMARK    6  A    between atoms: N_11  and  C_12
REMARK    7  A    between atoms: C_12  and  C_13
REMARK                            x       y       z     vdW  Elec       q    Type
REMARK                         _______ _______ _______ _____ _____    ______ ____
ROOT
ATOM      1  C   UNL     1       0.480  12.346  21.283  0.00  0.00    +0.000 C 
ATOM      2  C   UNL     1       0.338  11.314  20.203  0.00  0.00    +0.000 A 
ATOM      3  C   UNL     1      -0.603  11.490  19.201  0.00  0.00    +0.000 A 
ATOM      4  C   UNL     1      -0.606  10.560  18.173  0.00  0.00    +0.000 A 
ATOM      5  N   UNL     1       0.242   9.535  18.165  0.00  0.00    +0.000 NA
ATOM      6  C   UNL     1       1.074   9.400  19.207  0.00  0.00    +0.000 A 
ATOM      7  N   UNL     1       1.925   8.341  19.266  0.00  0.00    +0.000 N 
ATOM      8  N   UNL     1       1.148  10.258  20.237  0.00  0.00    +0.000 NA
ATOM      9  H   UNL     1       2.056   7.979  20.193  0.00  0.00    +0.000 HD
ENDROOT
BRANCH   4  10
ATOM     10  N   UNL     1      -1.416  10.801  17.069  0.00  0.00    +0.000 N 
ATOM     11  H   UNL     1      -1.321  11.698  16.629  0.00  0.00    +0.000 HD
BRANCH  10  12
ATOM     12  C   UNL     1      -2.583   9.956  16.779  0.00  0.00    +0.000 C 
ATOM     13  C   UNL     1      -3.829  10.330  17.582  0.00  0.00    +0.000 C 
ATOM     14  C   UNL     1      -2.923  10.077  15.287  0.00  0.00    +0.000 C 
ENDBRANCH  10  12
ENDBRANCH   4  10
BRANCH   7  15
ATOM     15  C   UNL     1       2.433   7.711  18.079  0.00  0.00    +0.000 C 
BRANCH  15  16
ATOM     16  C   UNL     1       2.695   6.205  18.322  0.00  0.00    +0.000 C 
ATOM     17  C   UNL     1       2.799   5.876  19.836  0.00  0.00    +0.000 C 
ATOM     18  C   UNL     1       3.044   4.376  20.052  0.00  0.00    +0.000 C 
ATOM     19  C   UNL     1       1.871   3.586  19.457  0.00  0.00    +0.000 C 
ATOM     20  C   UNL     1       1.756   3.870  17.952  0.00  0.00    +0.000 C 
ATOM     21  C   UNL     1       3.063   3.456  17.256  0.00  0.00    +0.000 C 
ATOM     22  C   UNL     1       4.243   4.252  17.837  0.00  0.00    +0.000 C 
ATOM     23  C   UNL     1       4.350   3.974  19.345  0.00  0.00    +0.000 C 
ATOM     24  C   UNL     1       4.001   5.754  17.617  0.00  0.00    +0.000 C 
ATOM     25  C   UNL     1       1.523   5.375  17.733  0.00  0.00    +0.000 C 
ENDBRANCH  15  16
ENDBRANCH   7  15
TORSDOF 4
ENDMDL
MODEL 6
REMARK VINA RESULT:      -7.4      5.185      7.701
REMARK  Name = 
REMARK  7 active torsions:
REMARK  status: ('A' for Active; 'I' for Inactive)
REMARK    1  A    between atoms: C_1  and  C_2
REMARK    2  A    between atoms: C_4  and  N_5
REMARK    3  A    between atoms: N_5  and  C_6
REMARK    4  A    between atoms: C_6  and  C_7
REMARK    5  A    between atoms: C_6  and  C_8
REMARK    6  A    between atoms: N_11  and  C_12
REMARK    7  A    between atoms: C_12  and  C_13
REMARK                            x       y       z     vdW  Elec       q    Type
REMARK                         _______ _______ _______ _____ _____    ______ ____
ROOT
ATOM      1  C   UNL     1      -0.064  11.970  21.576  0.00  0.00    +0.000 C 
ATOM      2  C   UNL     1      -0.017  11.030  20.406  0.00  0.00    +0.000 A 
ATOM      3  C   UNL     1      -0.860  11.232  19.326  0.00  0.00    +0.000 A 
ATOM      4  C   UNL     1      -0.688  10.398  18.232  0.00  0.00    +0.000 A 
ATOM      5  N   UNL     1       0.231   9.437  18.233  0.00  0.00    +0.000 NA
ATOM      6  C   UNL     1       0.959   9.265  19.344  0.00  0.00    +0.000 A 
ATOM      7  N   UNL     1       1.877   8.264  19.409  0.00  0.00    +0.000 N 
ATOM      8  N   UNL     1       0.863  10.032  20.442  0.00  0.00    +0.000 NA
ATOM      9  H   UNL     1       1.938   7.830  20.312  0.00  0.00    +0.000 HD
ENDROOT
BRANCH   4  10
ATOM     10  N   UNL     1      -1.397  10.682  17.069  0.00  0.00    +0.000 N 
ATOM     11  H   UNL     1      -1.147  11.526  16.586  0.00  0.00    +0.000 HD
BRANCH  10  12
ATOM     12  C   UNL     1      -2.660   9.998  16.758  0.00  0.00    +0.000 C 
ATOM     13  C   UNL     1      -3.879  10.614  17.445  0.00  0.00    +0.000 C 
ATOM     14  C   UNL     1      -2.889  10.049  15.242  0.00  0.00    +0.000 C 
ENDBRANCH  10  12
ENDBRANCH   4  10
BRANCH   7  15
ATOM     15  C   UNL     1       2.550   7.776  18.237  0.00  0.00    +0.000 C 
BRANCH  15  16
ATOM     16  C   UNL     1       2.820   6.256  18.348  0.00  0.00    +0.000 C 
ATOM     17  C   UNL     1       1.623   5.419  17.819  0.00  0.00    +0.000 C 
ATOM     18  C   UNL     1       1.919   3.916  17.925  0.00  0.00    +0.000 C 
ATOM     19  C   UNL     1       3.159   3.589  17.081  0.00  0.00    +0.000 C 
ATOM     20  C   UNL     1       4.369   4.384  17.595  0.00  0.00    +0.000 C 
ATOM     21  C   UNL     1       4.632   4.013  19.064  0.00  0.00    +0.000 C 
ATOM     22  C   UNL     1       3.401   4.349  19.920  0.00  0.00    +0.000 C 
ATOM     23  C   UNL     1       2.189   3.561  19.398  0.00  0.00    +0.000 C 
ATOM     24  C   UNL     1       3.106   5.854  19.818  0.00  0.00    +0.000 C 
ATOM     25  C   UNL     1       4.068   5.890  17.501  0.00  0.00    +0.000 C 
ENDBRANCH  15  16
ENDBRANCH   7  15
TORSDOF 4
ENDMDL
MODEL 7
REMARK VINA RESULT:      -7.4      4.936      7.070
REMARK  Name = 
REMARK  7 active torsions:
REMARK  status: ('A' for Active; 'I' for Inactive)
REMARK    1  A    between atoms: C_1  and  C_2
REMARK    2  A    between atoms: C_4  and  N_5
REMARK    3  A    between atoms: N_5  and  C_6
REMARK    4  A    between atoms: C_6  and  C_7
REMARK    5  A    between atoms: C_6  and  C_8
REMARK    6  A    between atoms: N_11  and  C_12
REMARK    7  A    between atoms: C_12  and  C_13
REMARK                            x       y       z     vdW  Elec       q    Type
REMARK                         _______ _______ _______ _____ _____    ______ ____
ROOT
ATOM      1  C   UNL     1      -1.858  10.161  16.928  0.00  0.00    +0.000 C 
ATOM      2  C   UNL     1      -0.762  10.053  17.949  0.00  0.00    +0.000 A 
ATOM      3  C   UNL     1      -0.770  10.883  19.058  0.00  0.00    +0.000 A 
ATOM      4  C   UNL     1       0.205  10.656  20.017  0.00  0.00    +0.000 A 
ATOM      5  N   UNL     1       1.116   9.699  19.864  0.00  0.00    +0.000 NA
ATOM      6  C   UNL     1       1.095   8.986  18.730  0.00  0.00    +0.000 A 
ATOM      7  N   UNL     1       2.036   8.030  18.508  0.00  0.00    +0.000 N 
ATOM      8  N   UNL     1       0.182   9.135  17.756  0.00  0.00    +0.000 NA
ATOM      9  H   UNL     1       2.332   7.969  17.551  0.00  0.00    +0.000 HD
ENDROOT
BRANCH   4  10
ATOM     10  N   UNL     1       0.123  11.352  21.218  0.00  0.00    +0.000 N 
ATOM     11  H   UNL     1       0.933  11.881  21.488  0.00  0.00    +0.000 HD
BRANCH  10  12
ATOM     12  C   UNL     1      -0.926  11.055  22.203  0.00  0.00    +0.000 C 
ATOM     13  C   UNL     1      -0.513  10.022  23.251  0.00  0.00    +0.000 C 
ATOM     14  C   UNL     1      -1.302  12.352  22.933  0.00  0.00    +0.000 C 
ENDBRANCH  10  12
ENDBRANCH   4  10
BRANCH   7  15
ATOM     15  C   UNL     1       2.658   7.316  19.587  0.00  0.00    +0.000 C 
BRANCH  15  16
ATOM     16  C   UNL     1       2.548   5.787  19.374  0.00  0.00    +0.000 C 
ATOM     17  C   UNL     1       1.956   5.442  17.980  0.00  0.00    +0.000 C 
ATOM     18  C   UNL     1       1.870   3.920  17.787  0.00  0.00    +0.000 C 
ATOM     19  C   UNL     1       3.280   3.322  17.884  0.00  0.00    +0.000 C 
ATOM     20  C   UNL     1       3.884   3.625  19.264  0.00  0.00    +0.000 C 
ATOM     21  C   UNL     1       2.988   3.017  20.355  0.00  0.00    +0.000 C 
ATOM     22  C   UNL     1       1.577   3.619  20.274  0.00  0.00    +0.000 C 
ATOM     23  C   UNL     1       0.978   3.324  18.889  0.00  0.00    +0.000 C 
ATOM     24  C   UNL     1       1.662   5.141  20.472  0.00  0.00    +0.000 C 
ATOM     25  C   UNL     1       3.960   5.148  19.465  0.00  0.00    +0.000 C 
ENDBRANCH  15  16
ENDBRANCH   7  15
TORSDOF 4
ENDMDL
MODEL 8
REMARK VINA RESULT:      -7.4      4.955      7.087
REMARK  Name = 
REMARK  7 active torsions:
REMARK  status: ('A' for Active; 'I' for Inactive)
REMARK    1  A    between atoms: C_1  and  C_2
REMARK    2  A    between atoms: C_4  and  N_5
REMARK    3  A    between atoms: N_5  and  C_6
REMARK    4  A    between atoms: C_6  and  C_7
REMARK    5  A    between atoms: C_6  and  C_8
REMARK    6  A    between atoms: N_11  and  C_12
REMARK    7  A    between atoms: C_12  and  C_13
REMARK                            x       y       z     vdW  Elec       q    Type
REMARK                         _______ _______ _______ _____ _____    ______ ____
ROOT
ATOM      1  C   UNL     1      -1.879  10.193  16.875  0.00  0.00    +0.000 C 
ATOM      2  C   UNL     1      -0.800  10.093  17.914  0.00  0.00    +0.000 A 
ATOM      3  C   UNL     1      -0.833  10.924  19.022  0.00  0.00    +0.000 A 
ATOM      4  C   UNL     1       0.127  10.704  19.999  0.00  0.00    +0.000 A 
ATOM      5  N   UNL     1       1.047   9.753  19.863  0.00  0.00    +0.000 NA
ATOM      6  C   UNL     1       1.050   9.039  18.729  0.00  0.00    +0.000 A 
ATOM      7  N   UNL     1       2.001   8.090  18.524  0.00  0.00    +0.000 N 
ATOM      8  N   UNL     1       0.153   9.181  17.739  0.00  0.00    +0.000 NA
ATOM      9  H   UNL     1       2.314   8.029  17.572  0.00  0.00    +0.000 HD
ENDROOT
BRANCH   4  10
ATOM     10  N   UNL     1       0.019  11.402  21.197  0.00  0.00    +0.000 N 
ATOM     11  H   UNL     1       0.764  12.039  21.415  0.00  0.00    +0.000 HD
BRANCH  10  12
ATOM     12  C   UNL     1      -0.921  10.979  22.244  0.00  0.00    +0.000 C 
ATOM     13  C   UNL     1      -0.351   9.930  23.198  0.00  0.00    +0.000 C 
ATOM     14  C   UNL     1      -1.325  12.208  23.071  0.00  0.00    +0.000 C 
ENDBRANCH  10  12
ENDBRANCH   4  10
BRANCH   7  15
ATOM     15  C   UNL     1       2.609   7.380  19.616  0.00  0.00    +0.000 C 
BRANCH  15  16
ATOM     16  C   UNL     1       2.577   5.853  19.368  0.00  0.00    +0.000 C 
ATOM     17  C   UNL     1       3.985   5.215  19.520  0.00  0.00    +0.000 C 
ATOM     18  C   UNL     1       3.926   3.699  19.283  0.00  0.00    +0.000 C 
ATOM     19  C   UNL     1       2.986   3.067  20.320  0.00  0.00    +0.000 C 
ATOM     20  C   UNL     1       1.575   3.659  20.179  0.00  0.00    +0.000 C 
ATOM     21  C   UNL     1       1.047   3.379  18.762  0.00  0.00    +0.000 C 
ATOM     22  C   UNL     1       1.975   4.019  17.718  0.00  0.00    +0.000 C 
ATOM     23  C   UNL     1       3.388   3.433  17.867  0.00  0.00    +0.000 C 
ATOM     24  C   UNL     1       2.032   5.537  17.950  0.00  0.00    +0.000 C 
ATOM     25  C   UNL     1       1.635   5.180  20.402  0.00  0.00    +0.000 C 
ENDBRANCH  15  16
ENDBRANCH   7  15
TORSDOF 4
ENDMDL
MODEL 9
REMARK VINA RESULT:      -7.3      1.374      3.656
REMARK  Name = 
REMARK  7 active torsions:
REMARK  status: ('A' for Active; 'I' for Inactive)
REMARK    1  A    between atoms: C_1  and  C_2
REMARK    2  A    between atoms: C_4  and  N_5
REMARK    3  A    between atoms: N_5  and  C_6
REMARK    4  A    between atoms: C_6  and  C_7
REMARK    5  A    between atoms: C_6  and  C_8
REMARK    6  A    between atoms: N_11  and  C_12
REMARK    7  A    between atoms: C_12  and  C_13
REMARK                            x       y       z     vdW  Elec       q    Type
REMARK                         _______ _______ _______ _____ _____    ______ ____
ROOT
ATOM      1  C   UNL     1       8.492   5.522  19.671  0.00  0.00    +0.000 C 
ATOM      2  C   UNL     1       7.429   5.482  18.611  0.00  0.00    +0.000 A 
ATOM      3  C   UNL     1       7.712   4.924  17.375  0.00  0.00    +0.000 A 
ATOM      4  C   UNL     1       6.656   4.816  16.481  0.00  0.00    +0.000 A 
ATOM      5  N   UNL     1       5.438   5.248  16.793  0.00  0.00    +0.000 NA
ATOM      6  C   UNL     1       5.267   5.837  17.984  0.00  0.00    +0.000 A 
ATOM      7  N   UNL     1       4.050   6.338  18.328  0.00  0.00    +0.000 N 
ATOM      8  N   UNL     1       6.230   5.975  18.910  0.00  0.00    +0.000 NA
ATOM      9  H   UNL     1       4.099   7.190  18.856  0.00  0.00    +0.000 HD
ENDROOT
BRANCH   4  10
ATOM     10  N   UNL     1       6.862   4.108  15.302  0.00  0.00    +0.000 N 
ATOM     11  H   UNL     1       7.449   3.295  15.362  0.00  0.00    +0.000 HD
BRANCH  10  12
ATOM     12  C   UNL     1       6.549   4.697  13.993  0.00  0.00    +0.000 C 
ATOM     13  C   UNL     1       7.773   5.222  13.244  0.00  0.00    +0.000 C 
ATOM     14  C   UNL     1       5.876   3.630  13.119  0.00  0.00    +0.000 C 
ENDBRANCH  10  12
ENDBRANCH   4  10
BRANCH   7  15
ATOM     15  C   UNL     1       2.830   5.780  17.816  0.00  0.00    +0.000 C 
BRANCH  15  16
ATOM     16  C   UNL     1       2.399   4.543  18.642  0.00  0.00    +0.000 C 
ATOM     17  C   UNL     1       3.571   3.541  18.830  0.00  0.00    +0.000 C 
ATOM     18  C   UNL     1       3.124   2.331  19.663  0.00  0.00    +0.000 C 
ATOM     19  C   UNL     1       2.666   2.816  21.045  0.00  0.00    +0.000 C 
ATOM     20  C   UNL     1       1.490   3.792  20.896  0.00  0.00    +0.000 C 
ATOM     21  C   UNL     1       0.326   3.080  20.187  0.00  0.00    +0.000 C 
ATOM     22  C   UNL     1       0.771   2.601  18.797  0.00  0.00    +0.000 C 
ATOM     23  C   UNL     1       1.955   1.632  18.947  0.00  0.00    +0.000 C 
ATOM     24  C   UNL     1       1.214   3.812  17.959  0.00  0.00    +0.000 C 
ATOM     25  C   UNL     1       1.931   4.999  20.051  0.00  0.00    +0.000 C 
ENDBRANCH  15  16
ENDBRANCH   7  15
TORSDOF 4
ENDMDL
