MODEL 1
REMARK VINA RESULT:      -9.3      0.000      0.000
REMARK  Name = 
REMARK  2 active torsions:
REMARK  status: ('A' for Active; 'I' for Inactive)
REMARK    1  A    between atoms: C_1  and  C_2
REMARK    2  A    between atoms: C_19  and  C_20
REMARK                            x       y       z     vdW  Elec       q    Type
REMARK                         _______ _______ _______ _____ _____    ______ ____
ROOT
ATOM      1  C   UNL     1      -0.808   9.693  22.936  0.00  0.00    +0.000 C 
ATOM      2  C   UNL     1      -0.012   9.688  21.666  0.00  0.00    +0.000 A 
ATOM      3  C   UNL     1       0.135  10.845  20.915  0.00  0.00    +0.000 A 
ATOM      4  C   UNL     1       0.869  10.784  19.739  0.00  0.00    +0.000 A 
ATOM      5  C   UNL     1       1.447   9.572  19.340  0.00  0.00    +0.000 A 
ATOM      6  C   UNL     1       2.199   9.477  18.170  0.00  0.00    +0.000 A 
ATOM      7  C   UNL     1       2.782   8.262  17.803  0.00  0.00    +0.000 A 
ATOM      8  C   UNL     1       2.666   7.104  18.598  0.00  0.00    +0.000 A 
ATOM      9  C   UNL     1       1.911   7.239  19.785  0.00  0.00    +0.000 A 
ATOM     10  C   UNL     1       1.280   8.446  20.162  0.00  0.00    +0.000 A 
ATOM     11  N   UNL     1       0.551   8.509  21.304  0.00  0.00    +0.000 NA
ATOM     12  N   UNL     1       1.958   6.238  20.823  0.00  0.00    +0.000 N 
ATOM     13  S   UNL     1       2.133   4.637  20.412  0.00  0.00    +0.000 S 
ATOM     14  O   UNL     1       0.828   4.134  20.041  0.00  0.00    +0.000 OA
ATOM     15  O   UNL     1       2.910   4.014  21.459  0.00  0.00    +0.000 OA
ATOM     16  C   UNL     1       3.112   4.638  18.948  0.00  0.00    +0.000 A 
ATOM     17  C   UNL     1       3.680   3.406  18.580  0.00  0.00    +0.000 A 
ATOM     18  C   UNL     1       4.439   3.306  17.420  0.00  0.00    +0.000 A 
ATOM     19  C   UNL     1       4.640   4.437  16.628  0.00  0.00    +0.000 A 
ATOM     20  C   UNL     1       4.071   5.667  17.031  0.00  0.00    +0.000 A 
ATOM     21  C   UNL     1       3.292   5.811  18.203  0.00  0.00    +0.000 A 
ATOM     22  H   UNL     1       1.132   6.365  21.424  0.00  0.00    +0.000 HD
ENDROOT
BRANCH  19  23
ATOM     23  C   UNL     1       5.441   4.361  15.349  0.00  0.00    +0.000 C 
ATOM     24  F   UNL     1       4.677   4.201  14.233  0.00  0.00    +0.000 F 
ATOM     25  F   UNL     1       6.184   5.482  15.138  0.00  0.00    +0.000 F 
ATOM     26  F   UNL     1       6.324   3.325  15.352  0.00  0.00    +0.000 F 
ENDBRANCH  19  23
TORSDOF 1
ENDMDL
MODEL 2
REMARK VINA RESULT:      -7.8      4.566      7.341
REMARK  Name = 
REMARK  2 active torsions:
REMARK  status: ('A' for Active; 'I' for Inactive)
REMARK    1  A    between atoms: C_1  and  C_2
REMARK    2  A    between atoms: C_19  and  C_20
REMARK                            x       y       z     vdW  Elec       q    Type
REMARK                         _______ _______ _______ _____ _____    ______ ____
ROOT
ATOM      1  C   UNL     1       2.785   3.361  20.902  0.00  0.00    +0.000 C 
ATOM      2  C   UNL     1       2.725   4.523  19.957  0.00  0.00    +0.000 A 
ATOM      3  C   UNL     1       3.160   4.396  18.645  0.00  0.00    +0.000 A 
ATOM      4  C   UNL     1       3.096   5.506  17.815  0.00  0.00    +0.000 A 
ATOM      5  C   UNL     1       2.595   6.718  18.308  0.00  0.00    +0.000 A 
ATOM      6  C   UNL     1       2.508   7.850  17.499  0.00  0.00    +0.000 A 
ATOM      7  C   UNL     1       1.985   9.041  18.006  0.00  0.00    +0.000 A 
ATOM      8  C   UNL     1       1.502   9.145  19.326  0.00  0.00    +0.000 A 
ATOM      9  C   UNL     1       1.590   7.975  20.114  0.00  0.00    +0.000 A 
ATOM     10  C   UNL     1       2.148   6.768  19.638  0.00  0.00    +0.000 A 
ATOM     11  N   UNL     1       2.223   5.682  20.448  0.00  0.00    +0.000 NA
ATOM     12  N   UNL     1       0.875   7.854  21.362  0.00  0.00    +0.000 N 
ATOM     13  S   UNL     1       0.658   9.197  22.317  0.00  0.00    +0.000 S 
ATOM     14  O   UNL     1       1.872   9.394  23.079  0.00  0.00    +0.000 OA
ATOM     15  O   UNL     1      -0.623   9.051  22.969  0.00  0.00    +0.000 OA
ATOM     16  C   UNL     1       0.537  10.550  21.198  0.00  0.00    +0.000 A 
ATOM     17  C   UNL     1       0.025  11.749  21.724  0.00  0.00    +0.000 A 
ATOM     18  C   UNL     1      -0.074  12.878  20.921  0.00  0.00    +0.000 A 
ATOM     19  C   UNL     1       0.331  12.813  19.587  0.00  0.00    +0.000 A 
ATOM     20  C   UNL     1       0.826  11.590  19.079  0.00  0.00    +0.000 A 
ATOM     21  C   UNL     1       0.944  10.418  19.863  0.00  0.00    +0.000 A 
ATOM     22  H   UNL     1       1.309   7.094  21.904  0.00  0.00    +0.000 HD
ENDROOT
BRANCH  19  23
ATOM     23  C   UNL     1       0.258  14.027  18.690  0.00  0.00    +0.000 C 
ATOM     24  F   UNL     1      -0.185  15.149  19.322  0.00  0.00    +0.000 F 
ATOM     25  F   UNL     1       1.468  14.349  18.157  0.00  0.00    +0.000 F 
ATOM     26  F   UNL     1      -0.577  13.839  17.631  0.00  0.00    +0.000 F 
ENDBRANCH  19  23
TORSDOF 1
ENDMDL
MODEL 3
REMARK VINA RESULT:      -7.4      5.066      7.923
REMARK  Name = 
REMARK  2 active torsions:
REMARK  status: ('A' for Active; 'I' for Inactive)
REMARK    1  A    between atoms: C_1  and  C_2
REMARK    2  A    between atoms: C_19  and  C_20
REMARK                            x       y       z     vdW  Elec       q    Type
REMARK                         _______ _______ _______ _____ _____    ______ ____
ROOT
ATOM      1  C   UNL     1       2.782   4.121  20.358  0.00  0.00    +0.000 C 
ATOM      2  C   UNL     1       2.664   5.414  19.609  0.00  0.00    +0.000 A 
ATOM      3  C   UNL     1       3.157   5.535  18.318  0.00  0.00    +0.000 A 
ATOM      4  C   UNL     1       3.035   6.758  17.674  0.00  0.00    +0.000 A 
ATOM      5  C   UNL     1       2.419   7.833  18.327  0.00  0.00    +0.000 A 
ATOM      6  C   UNL     1       2.271   9.072  17.706  0.00  0.00    +0.000 A 
ATOM      7  C   UNL     1       1.635  10.123  18.370  0.00  0.00    +0.000 A 
ATOM      8  C   UNL     1       1.095   9.974  19.663  0.00  0.00    +0.000 A 
ATOM      9  C   UNL     1       1.247   8.701  20.258  0.00  0.00    +0.000 A 
ATOM     10  C   UNL     1       1.919   7.632  19.624  0.00  0.00    +0.000 A 
ATOM     11  N   UNL     1       2.052   6.438  20.253  0.00  0.00    +0.000 NA
ATOM     12  N   UNL     1       0.498   8.326  21.432  0.00  0.00    +0.000 N 
ATOM     13  S   UNL     1       0.137   9.475  22.578  0.00  0.00    +0.000 S 
ATOM     14  O   UNL     1       1.302   9.634  23.422  0.00  0.00    +0.000 OA
ATOM     15  O   UNL     1      -1.152   9.130  23.132  0.00  0.00    +0.000 OA
ATOM     16  C   UNL     1      -0.051  10.980  21.684  0.00  0.00    +0.000 A 
ATOM     17  C   UNL     1      -0.678  12.036  22.369  0.00  0.00    +0.000 A 
ATOM     18  C   UNL     1      -0.838  13.270  21.752  0.00  0.00    +0.000 A 
ATOM     19  C   UNL     1      -0.378  13.454  20.447  0.00  0.00    +0.000 A 
ATOM     20  C   UNL     1       0.233  12.370  19.776  0.00  0.00    +0.000 A 
ATOM     21  C   UNL     1       0.415  11.098  20.368  0.00  0.00    +0.000 A 
ATOM     22  H   UNL     1       0.971   7.522  21.868  0.00  0.00    +0.000 HD
ENDROOT
BRANCH  19  23
ATOM     23  C   UNL     1      -0.516  14.789  19.753  0.00  0.00    +0.000 C 
ATOM     24  F   UNL     1       0.425  15.701  20.128  0.00  0.00    +0.000 F 
ATOM     25  F   UNL     1      -0.414  14.680  18.400  0.00  0.00    +0.000 F 
ATOM     26  F   UNL     1      -1.721  15.374  19.990  0.00  0.00    +0.000 F 
ENDBRANCH  19  23
TORSDOF 1
ENDMDL
MODEL 4
REMARK VINA RESULT:      -7.4      4.498      5.382
REMARK  Name = 
REMARK  2 active torsions:
REMARK  status: ('A' for Active; 'I' for Inactive)
REMARK    1  A    between atoms: C_1  and  C_2
REMARK    2  A    between atoms: C_19  and  C_20
REMARK                            x       y       z     vdW  Elec       q    Type
REMARK                         _______ _______ _______ _____ _____    ______ ____
ROOT
ATOM      1  C   UNL     1       2.336   4.185  22.562  0.00  0.00    +0.000 C 
ATOM      2  C   UNL     1       2.252   3.702  21.146  0.00  0.00    +0.000 A 
ATOM      3  C   UNL     1       1.196   2.904  20.728  0.00  0.00    +0.000 A 
ATOM      4  C   UNL     1       1.173   2.472  19.410  0.00  0.00    +0.000 A 
ATOM      5  C   UNL     1       2.199   2.848  18.534  0.00  0.00    +0.000 A 
ATOM      6  C   UNL     1       2.202   2.440  17.201  0.00  0.00    +0.000 A 
ATOM      7  C   UNL     1       3.226   2.845  16.341  0.00  0.00    +0.000 A 
ATOM      8  C   UNL     1       4.267   3.695  16.763  0.00  0.00    +0.000 A 
ATOM      9  C   UNL     1       4.225   4.104  18.116  0.00  0.00    +0.000 A 
ATOM     10  C   UNL     1       3.223   3.679  19.017  0.00  0.00    +0.000 A 
ATOM     11  N   UNL     1       3.246   4.089  20.309  0.00  0.00    +0.000 NA
ATOM     12  N   UNL     1       5.043   5.191  18.598  0.00  0.00    +0.000 N 
ATOM     13  S   UNL     1       6.557   5.426  17.955  0.00  0.00    +0.000 S 
ATOM     14  O   UNL     1       7.461   4.507  18.613  0.00  0.00    +0.000 OA
ATOM     15  O   UNL     1       6.801   6.850  17.955  0.00  0.00    +0.000 OA
ATOM     16  C   UNL     1       6.437   4.904  16.278  0.00  0.00    +0.000 A 
ATOM     17  C   UNL     1       7.481   5.304  15.426  0.00  0.00    +0.000 A 
ATOM     18  C   UNL     1       7.485   4.909  14.094  0.00  0.00    +0.000 A 
ATOM     19  C   UNL     1       6.444   4.119  13.605  0.00  0.00    +0.000 A 
ATOM     20  C   UNL     1       5.397   3.746  14.480  0.00  0.00    +0.000 A 
ATOM     21  C   UNL     1       5.356   4.126  15.842  0.00  0.00    +0.000 A 
ATOM     22  H   UNL     1       5.097   5.117  19.623  0.00  0.00    +0.000 HD
ENDROOT
BRANCH  19  23
ATOM     23  C   UNL     1       6.426   3.653  12.168  0.00  0.00    +0.000 C 
ATOM     24  F   UNL     1       6.929   2.399  11.993  0.00  0.00    +0.000 F 
ATOM     25  F   UNL     1       5.169   3.629  11.648  0.00  0.00    +0.000 F 
ATOM     26  F   UNL     1       7.151   4.465  11.351  0.00  0.00    +0.000 F 
ENDBRANCH  19  23
TORSDOF 1
ENDMDL
MODEL 5
REMARK VINA RESULT:      -7.3      6.932      9.935
REMARK  Name = 
REMARK  2 active torsions:
REMARK  status: ('A' for Active; 'I' for Inactive)
REMARK    1  A    between atoms: C_1  and  C_2
REMARK    2  A    between atoms: C_19  and  C_20
REMARK                            x       y       z     vdW  Elec       q    Type
REMARK                         _______ _______ _______ _____ _____    ______ ____
ROOT
ATOM      1  C   UNL     1       2.849   7.962  17.467  0.00  0.00    +0.000 C 
ATOM      2  C   UNL     1       2.159   8.107  18.790  0.00  0.00    +0.000 A 
ATOM      3  C   UNL     1       2.314   7.148  19.781  0.00  0.00    +0.000 A 
ATOM      4  C   UNL     1       1.642   7.321  20.982  0.00  0.00    +0.000 A 
ATOM      5  C   UNL     1       0.835   8.450  21.173  0.00  0.00    +0.000 A 
ATOM      6  C   UNL     1       0.154   8.661  22.372  0.00  0.00    +0.000 A 
ATOM      7  C   UNL     1      -0.629   9.804  22.547  0.00  0.00    +0.000 A 
ATOM      8  C   UNL     1      -0.740  10.796  21.551  0.00  0.00    +0.000 A 
ATOM      9  C   UNL     1      -0.024  10.559  20.356  0.00  0.00    +0.000 A 
ATOM     10  C   UNL     1       0.745   9.394  20.138  0.00  0.00    +0.000 A 
ATOM     11  N   UNL     1       1.395   9.212  18.961  0.00  0.00    +0.000 NA
ATOM     12  N   UNL     1       0.190  11.608  19.388  0.00  0.00    +0.000 N 
ATOM     13  S   UNL     1      -0.983  12.763  19.157  0.00  0.00    +0.000 S 
ATOM     14  O   UNL     1      -1.981  12.204  18.271  0.00  0.00    +0.000 OA
ATOM     15  O   UNL     1      -0.304  13.998  18.841  0.00  0.00    +0.000 OA
ATOM     16  C   UNL     1      -1.754  12.963  20.727  0.00  0.00    +0.000 A 
ATOM     17  C   UNL     1      -2.552  14.109  20.886  0.00  0.00    +0.000 A 
ATOM     18  C   UNL     1      -3.226  14.331  22.081  0.00  0.00    +0.000 A 
ATOM     19  C   UNL     1      -3.100  13.413  23.124  0.00  0.00    +0.000 A 
ATOM     20  C   UNL     1      -2.277  12.277  22.943  0.00  0.00    +0.000 A 
ATOM     21  C   UNL     1      -1.575  12.015  21.743  0.00  0.00    +0.000 A 
ATOM     22  H   UNL     1       0.440  11.167  18.492  0.00  0.00    +0.000 HD
ENDROOT
BRANCH  19  23
ATOM     23  C   UNL     1      -3.835  13.610  24.429  0.00  0.00    +0.000 C 
ATOM     24  F   UNL     1      -4.135  12.446  25.070  0.00  0.00    +0.000 F 
ATOM     25  F   UNL     1      -3.120  14.353  25.317  0.00  0.00    +0.000 F 
ATOM     26  F   UNL     1      -5.017  14.263  24.264  0.00  0.00    +0.000 F 
ENDBRANCH  19  23
TORSDOF 1
ENDMDL
MODEL 6
REMARK VINA RESULT:      -7.2      4.837      7.752
REMARK  Name = 
REMARK  2 active torsions:
REMARK  status: ('A' for Active; 'I' for Inactive)
REMARK    1  A    between atoms: C_1  and  C_2
REMARK    2  A    between atoms: C_19  and  C_20
REMARK                            x       y       z     vdW  Elec       q    Type
REMARK                         _______ _______ _______ _____ _____    ______ ____
ROOT
ATOM      1  C   UNL     1       5.181   4.328  15.372  0.00  0.00    +0.000 C 
ATOM      2  C   UNL     1       4.560   4.382  16.735  0.00  0.00    +0.000 A 
ATOM      3  C   UNL     1       4.636   3.294  17.594  0.00  0.00    +0.000 A 
ATOM      4  C   UNL     1       4.033   3.389  18.839  0.00  0.00    +0.000 A 
ATOM      5  C   UNL     1       3.370   4.567  19.206  0.00  0.00    +0.000 A 
ATOM      6  C   UNL     1       2.762   4.701  20.453  0.00  0.00    +0.000 A 
ATOM      7  C   UNL     1       2.125   5.894  20.804  0.00  0.00    +0.000 A 
ATOM      8  C   UNL     1       2.095   7.008  19.942  0.00  0.00    +0.000 A 
ATOM      9  C   UNL     1       2.736   6.846  18.693  0.00  0.00    +0.000 A 
ATOM     10  C   UNL     1       3.355   5.639  18.297  0.00  0.00    +0.000 A 
ATOM     11  N   UNL     1       3.937   5.535  17.077  0.00  0.00    +0.000 NA
ATOM     12  N   UNL     1       3.037   7.978  17.849  0.00  0.00    +0.000 N 
ATOM     13  S   UNL     1       2.000   9.276  17.819  0.00  0.00    +0.000 S 
ATOM     14  O   UNL     1       0.913   8.948  16.922  0.00  0.00    +0.000 OA
ATOM     15  O   UNL     1       2.808  10.458  17.621  0.00  0.00    +0.000 OA
ATOM     16  C   UNL     1       1.314   9.363  19.438  0.00  0.00    +0.000 A 
ATOM     17  C   UNL     1       0.661  10.562  19.774  0.00  0.00    +0.000 A 
ATOM     18  C   UNL     1       0.062  10.705  21.019  0.00  0.00    +0.000 A 
ATOM     19  C   UNL     1       0.116   9.654  21.935  0.00  0.00    +0.000 A 
ATOM     20  C   UNL     1       0.793   8.466  21.578  0.00  0.00    +0.000 A 
ATOM     21  C   UNL     1       1.417   8.280  20.321  0.00  0.00    +0.000 A 
ATOM     22  H   UNL     1       3.202   7.628  16.896  0.00  0.00    +0.000 HD
ENDROOT
BRANCH  19  23
ATOM     23  C   UNL     1      -0.544   9.766  23.290  0.00  0.00    +0.000 C 
ATOM     24  F   UNL     1      -1.053  11.003  23.551  0.00  0.00    +0.000 F 
ATOM     25  F   UNL     1      -1.581   8.897  23.433  0.00  0.00    +0.000 F 
ATOM     26  F   UNL     1       0.315   9.492  24.309  0.00  0.00    +0.000 F 
ENDBRANCH  19  23
TORSDOF 1
ENDMDL
MODEL 7
REMARK VINA RESULT:      -7.2      6.543      8.576
REMARK  Name = 
REMARK  2 active torsions:
REMARK  status: ('A' for Active; 'I' for Inactive)
REMARK    1  A    between atoms: C_1  and  C_2
REMARK    2  A    between atoms: C_19  and  C_20
REMARK                            x       y       z     vdW  Elec       q    Type
REMARK                         _______ _______ _______ _____ _____    ______ ____
ROOT
ATOM      1  C   UNL     1      -1.715  15.424  26.281  0.00  0.00    +0.000 C 
ATOM      2  C   UNL     1      -2.511  15.216  25.029  0.00  0.00    +0.000 A 
ATOM      3  C   UNL     1      -3.706  15.892  24.827  0.00  0.00    +0.000 A 
ATOM      4  C   UNL     1      -4.414  15.654  23.657  0.00  0.00    +0.000 A 
ATOM      5  C   UNL     1      -3.912  14.752  22.710  0.00  0.00    +0.000 A 
ATOM      6  C   UNL     1      -4.591  14.496  21.520  0.00  0.00    +0.000 A 
ATOM      7  C   UNL     1      -4.061  13.608  20.581  0.00  0.00    +0.000 A 
ATOM      8  C   UNL     1      -2.823  12.964  20.775  0.00  0.00    +0.000 A 
ATOM      9  C   UNL     1      -2.152  13.257  21.984  0.00  0.00    +0.000 A 
ATOM     10  C   UNL     1      -2.683  14.123  22.968  0.00  0.00    +0.000 A 
ATOM     11  N   UNL     1      -2.003  14.351  24.118  0.00  0.00    +0.000 NA
ATOM     12  N   UNL     1      -0.765  12.909  22.179  0.00  0.00    +0.000 N 
ATOM     13  S   UNL     1      -0.164  11.522  21.490  0.00  0.00    +0.000 S 
ATOM     14  O   UNL     1      -0.520  10.414  22.351  0.00  0.00    +0.000 OA
ATOM     15  O   UNL     1       1.212  11.787  21.136  0.00  0.00    +0.000 OA
ATOM     16  C   UNL     1      -1.069  11.314  19.995  0.00  0.00    +0.000 A 
ATOM     17  C   UNL     1      -0.535  10.405  19.065  0.00  0.00    +0.000 A 
ATOM     18  C   UNL     1      -1.201  10.153  17.872  0.00  0.00    +0.000 A 
ATOM     19  C   UNL     1      -2.401  10.812  17.600  0.00  0.00    +0.000 A 
ATOM     20  C   UNL     1      -2.907  11.734  18.545  0.00  0.00    +0.000 A 
ATOM     21  C   UNL     1      -2.260  12.018  19.771  0.00  0.00    +0.000 A 
ATOM     22  H   UNL     1      -0.574  12.920  23.190  0.00  0.00    +0.000 HD
ENDROOT
BRANCH  19  23
ATOM     23  C   UNL     1      -3.164  10.547  16.323  0.00  0.00    +0.000 C 
ATOM     24  F   UNL     1      -4.496  10.818  16.415  0.00  0.00    +0.000 F 
ATOM     25  F   UNL     1      -2.701  11.290  15.281  0.00  0.00    +0.000 F 
ATOM     26  F   UNL     1      -3.072   9.249  15.925  0.00  0.00    +0.000 F 
ENDBRANCH  19  23
TORSDOF 1
ENDMDL
MODEL 8
REMARK VINA RESULT:      -6.8      6.245      8.085
REMARK  Name = 
REMARK  2 active torsions:
REMARK  status: ('A' for Active; 'I' for Inactive)
REMARK    1  A    between atoms: C_1  and  C_2
REMARK    2  A    between atoms: C_19  and  C_20
REMARK                            x       y       z     vdW  Elec       q    Type
REMARK                         _______ _______ _______ _____ _____    ______ ____
ROOT
ATOM      1  C   UNL     1      -7.916  14.870  20.296  0.00  0.00    +0.000 C 
ATOM      2  C   UNL     1      -7.132  13.906  19.459  0.00  0.00    +0.000 A 
ATOM      3  C   UNL     1      -7.690  13.332  18.325  0.00  0.00    +0.000 A 
ATOM      4  C   UNL     1      -6.927  12.434  17.592  0.00  0.00    +0.000 A 
ATOM      5  C   UNL     1      -5.621  12.132  18.000  0.00  0.00    +0.000 A 
ATOM      6  C   UNL     1      -4.823  11.243  17.282  0.00  0.00    +0.000 A 
ATOM      7  C   UNL     1      -3.517  10.973  17.697  0.00  0.00    +0.000 A 
ATOM      8  C   UNL     1      -2.944  11.599  18.822  0.00  0.00    +0.000 A 
ATOM      9  C   UNL     1      -3.774  12.508  19.518  0.00  0.00    +0.000 A 
ATOM     10  C   UNL     1      -5.111  12.771  19.142  0.00  0.00    +0.000 A 
ATOM     11  N   UNL     1      -5.866  13.638  19.861  0.00  0.00    +0.000 NA
ATOM     12  N   UNL     1      -3.233  13.426  20.491  0.00  0.00    +0.000 N 
ATOM     13  S   UNL     1      -1.946  12.959  21.433  0.00  0.00    +0.000 S 
ATOM     14  O   UNL     1      -2.467  12.169  22.528  0.00  0.00    +0.000 OA
ATOM     15  O   UNL     1      -1.145  14.138  21.670  0.00  0.00    +0.000 OA
ATOM     16  C   UNL     1      -1.003  11.868  20.424  0.00  0.00    +0.000 A 
ATOM     17  C   UNL     1       0.305  11.591  20.860  0.00  0.00    +0.000 A 
ATOM     18  C   UNL     1       1.109  10.713  20.144  0.00  0.00    +0.000 A 
ATOM     19  C   UNL     1       0.614  10.113  18.985  0.00  0.00    +0.000 A 
ATOM     20  C   UNL     1      -0.699  10.423  18.559  0.00  0.00    +0.000 A 
ATOM     21  C   UNL     1      -1.549  11.310  19.260  0.00  0.00    +0.000 A 
ATOM     22  H   UNL     1      -4.009  13.755  21.082  0.00  0.00    +0.000 HD
ENDROOT
BRANCH  19  23
ATOM     23  C   UNL     1       1.452   9.137  18.193  0.00  0.00    +0.000 C 
ATOM     24  F   UNL     1       0.735   8.400  17.299  0.00  0.00    +0.000 F 
ATOM     25  F   UNL     1       2.425   9.759  17.471  0.00  0.00    +0.000 F 
ATOM     26  F   UNL     1       2.095   8.241  18.989  0.00  0.00    +0.000 F 
ENDBRANCH  19  23
TORSDOF 1
ENDMDL
MODEL 9
REMARK VINA RESULT:      -6.7      6.658      8.575
REMARK  Name = 
REMARK  2 active torsions:
REMARK  status: ('A' for Active; 'I' for Inactive)
REMARK    1  A    between atoms: C_1  and  C_2
REMARK    2  A    between atoms: C_19  and  C_20
REMARK                            x       y       z     vdW  Elec       q    Type
REMARK                         _______ _______ _______ _____ _____    ______ ____
ROOT
ATOM      1  C   UNL     1      -0.254  16.094  25.957  0.00  0.00    +0.000 C 
ATOM      2  C   UNL     1      -1.313  15.465  25.103  0.00  0.00    +0.000 A 
ATOM      3  C   UNL     1      -2.658  15.633  25.399  0.00  0.00    +0.000 A 
ATOM      4  C   UNL     1      -3.599  15.018  24.586  0.00  0.00    +0.000 A 
ATOM      5  C   UNL     1      -3.180  14.253  23.490  0.00  0.00    +0.000 A 
ATOM      6  C   UNL     1      -4.098  13.629  22.646  0.00  0.00    +0.000 A 
ATOM      7  C   UNL     1      -3.656  12.888  21.547  0.00  0.00    +0.000 A 
ATOM      8  C   UNL     1      -2.289  12.764  21.228  0.00  0.00    +0.000 A 
ATOM      9  C   UNL     1      -1.386  13.422  22.094  0.00  0.00    +0.000 A 
ATOM     10  C   UNL     1      -1.803  14.147  23.233  0.00  0.00    +0.000 A 
ATOM     11  N   UNL     1      -0.888  14.741  24.039  0.00  0.00    +0.000 NA
ATOM     12  N   UNL     1      -0.005  13.625  21.726  0.00  0.00    +0.000 N 
ATOM     13  S   UNL     1       0.778  12.478  20.815  0.00  0.00    +0.000 S 
ATOM     14  O   UNL     1       1.213  11.428  21.710  0.00  0.00    +0.000 OA
ATOM     15  O   UNL     1       1.715  13.179  19.966  0.00  0.00    +0.000 OA
ATOM     16  C   UNL     1      -0.462  11.780  19.779  0.00  0.00    +0.000 A 
ATOM     17  C   UNL     1      -0.006  11.022  18.686  0.00  0.00    +0.000 A 
ATOM     18  C   UNL     1      -0.915  10.406  17.835  0.00  0.00    +0.000 A 
ATOM     19  C   UNL     1      -2.283  10.549  18.068  0.00  0.00    +0.000 A 
ATOM     20  C   UNL     1      -2.715  11.331  19.164  0.00  0.00    +0.000 A 
ATOM     21  C   UNL     1      -1.822  11.973  20.054  0.00  0.00    +0.000 A 
ATOM     22  H   UNL     1       0.525  13.825  22.585  0.00  0.00    +0.000 HD
ENDROOT
BRANCH  19  23
ATOM     23  C   UNL     1      -3.301   9.876  17.176  0.00  0.00    +0.000 C 
ATOM     24  F   UNL     1      -3.957   8.843  17.776  0.00  0.00    +0.000 F 
ATOM     25  F   UNL     1      -4.266  10.737  16.752  0.00  0.00    +0.000 F 
ATOM     26  F   UNL     1      -2.740   9.359  16.049  0.00  0.00    +0.000 F 
ENDBRANCH  19  23
TORSDOF 1
ENDMDL
