MODEL 1
REMARK VINA RESULT:      -8.5      0.000      0.000
REMARK  Name = 
REMARK  7 active torsions:
REMARK  status: ('A' for Active; 'I' for Inactive)
REMARK    1  A    between atoms: C_4  and  C_5
REMARK    2  A    between atoms: C_5  and  C_6
REMARK    3  A    between atoms: C_13  and  S_14
REMARK    4  A    between atoms: S_14  and  C_15
REMARK    5  A    between atoms: C_15  and  C_16
REMARK    6  A    between atoms: C_16  and  C_17
REMARK    7  A    between atoms: C_17  and  C_18
REMARK                            x       y       z     vdW  Elec       q    Type
REMARK                         _______ _______ _______ _____ _____    ______ ____
ROOT
ATOM      1  N   UNL     1       7.131   5.122  13.826  0.00  0.00    +0.000 N 
ATOM      2  C   UNL     1       6.696   5.027  15.147  0.00  0.00    +0.000 A 
ATOM      3  C   UNL     1       5.611   4.238  15.465  0.00  0.00    +0.000 A 
ATOM      4  C   UNL     1       5.276   4.156  16.801  0.00  0.00    +0.000 A 
ATOM      5  N   UNL     1       5.932   4.867  17.742  0.00  0.00    +0.000 NA
ATOM      6  C   UNL     1       6.929   5.662  17.318  0.00  0.00    +0.000 A 
ATOM      7  N   UNL     1       7.356   5.757  16.049  0.00  0.00    +0.000 NA
ATOM      8  H   UNL     1       7.266   4.213  13.397  0.00  0.00    +0.000 HD
ATOM      9  H   UNL     1       7.989   5.670  13.826  0.00  0.00    +0.000 HD
ENDROOT
BRANCH   4  10
ATOM     10  C   UNL     1       4.196   3.204  17.267  0.00  0.00    +0.000 C 
BRANCH  10  11
ATOM     11  C   UNL     1       3.406   3.652  18.475  0.00  0.00    +0.000 A 
ATOM     12  C   UNL     1       3.412   2.891  19.653  0.00  0.00    +0.000 A 
ATOM     13  C   UNL     1       2.756   3.351  20.798  0.00  0.00    +0.000 A 
ATOM     14  C   UNL     1       2.090   4.574  20.777  0.00  0.00    +0.000 A 
ATOM     15  C   UNL     1       2.070   5.335  19.610  0.00  0.00    +0.000 A 
ATOM     16  C   UNL     1       2.723   4.876  18.465  0.00  0.00    +0.000 A 
ENDBRANCH  10  11
ENDBRANCH   4  10
BRANCH   6  17
ATOM     17  S   UNL     1       7.791   6.594  18.554  0.00  0.00    +0.000 S 
BRANCH  17  18
ATOM     18  C   UNL     1       7.919   8.206  17.700  0.00  0.00    +0.000 C 
BRANCH  18  19
ATOM     19  C   UNL     1       8.524   9.216  18.683  0.00  0.00    +0.000 C 
BRANCH  19  20
ATOM     20  C   UNL     1       8.643  10.631  18.100  0.00  0.00    +0.000 C 
BRANCH  20  21
ATOM     21  C   UNL     1       9.939  11.289  18.521  0.00  0.00    +0.000 A 
ATOM     22  C   UNL     1      10.323  11.315  19.870  0.00  0.00    +0.000 A 
ATOM     23  C   UNL     1      11.498  11.953  20.268  0.00  0.00    +0.000 A 
ATOM     24  C   UNL     1      12.309  12.581  19.324  0.00  0.00    +0.000 A 
ATOM     25  C   UNL     1      11.941  12.566  17.980  0.00  0.00    +0.000 A 
ATOM     26  C   UNL     1      10.764  11.924  17.577  0.00  0.00    +0.000 A 
ENDBRANCH  20  21
ENDBRANCH  19  20
ENDBRANCH  18  19
ENDBRANCH  17  18
ENDBRANCH   6  17
TORSDOF 7
ENDMDL
MODEL 2
REMARK VINA RESULT:      -8.0      1.639      8.870
REMARK  Name = 
REMARK  7 active torsions:
REMARK  status: ('A' for Active; 'I' for Inactive)
REMARK    1  A    between atoms: C_4  and  C_5
REMARK    2  A    between atoms: C_5  and  C_6
REMARK    3  A    between atoms: C_13  and  S_14
REMARK    4  A    between atoms: S_14  and  C_15
REMARK    5  A    between atoms: C_15  and  C_16
REMARK    6  A    between atoms: C_16  and  C_17
REMARK    7  A    between atoms: C_17  and  C_18
REMARK                            x       y       z     vdW  Elec       q    Type
REMARK                         _______ _______ _______ _____ _____    ______ ____
ROOT
ATOM      1  N   UNL     1       8.552   5.378  20.158  0.00  0.00    +0.000 N 
ATOM      2  C   UNL     1       8.127   6.054  19.014  0.00  0.00    +0.000 A 
ATOM      3  C   UNL     1       8.192   7.430  18.957  0.00  0.00    +0.000 A 
ATOM      4  C   UNL     1       7.803   8.019  17.771  0.00  0.00    +0.000 A 
ATOM      5  N   UNL     1       7.314   7.292  16.745  0.00  0.00    +0.000 NA
ATOM      6  C   UNL     1       7.225   5.964  16.929  0.00  0.00    +0.000 A 
ATOM      7  N   UNL     1       7.634   5.306  18.024  0.00  0.00    +0.000 NA
ATOM      8  H   UNL     1       9.480   5.662  20.452  0.00  0.00    +0.000 HD
ATOM      9  H   UNL     1       8.509   4.382  19.956  0.00  0.00    +0.000 HD
ENDROOT
BRANCH   4  10
ATOM     10  C   UNL     1       7.975   9.507  17.558  0.00  0.00    +0.000 C 
BRANCH  10  11
ATOM     11  C   UNL     1       9.034  10.171  18.408  0.00  0.00    +0.000 A 
ATOM     12  C   UNL     1      10.134  10.805  17.812  0.00  0.00    +0.000 A 
ATOM     13  C   UNL     1      11.064  11.496  18.592  0.00  0.00    +0.000 A 
ATOM     14  C   UNL     1      10.904  11.561  19.974  0.00  0.00    +0.000 A 
ATOM     15  C   UNL     1       9.821  10.929  20.580  0.00  0.00    +0.000 A 
ATOM     16  C   UNL     1       8.891  10.237  19.801  0.00  0.00    +0.000 A 
ENDBRANCH  10  11
ENDBRANCH   4  10
BRANCH   6  17
ATOM     17  S   UNL     1       6.585   5.010  15.580  0.00  0.00    +0.000 S 
BRANCH  17  18
ATOM     18  C   UNL     1       5.516   3.845  16.498  0.00  0.00    +0.000 C 
BRANCH  18  19
ATOM     19  C   UNL     1       4.103   4.440  16.553  0.00  0.00    +0.000 C 
BRANCH  19  20
ATOM     20  C   UNL     1       3.805   5.170  17.870  0.00  0.00    +0.000 C 
BRANCH  20  21
ATOM     21  C   UNL     1       2.695   4.485  18.636  0.00  0.00    +0.000 A 
ATOM     22  C   UNL     1       2.359   4.901  19.933  0.00  0.00    +0.000 A 
ATOM     23  C   UNL     1       1.362   4.247  20.658  0.00  0.00    +0.000 A 
ATOM     24  C   UNL     1       0.686   3.163  20.101  0.00  0.00    +0.000 A 
ATOM     25  C   UNL     1       1.010   2.736  18.815  0.00  0.00    +0.000 A 
ATOM     26  C   UNL     1       2.007   3.391  18.084  0.00  0.00    +0.000 A 
ENDBRANCH  20  21
ENDBRANCH  19  20
ENDBRANCH  18  19
ENDBRANCH  17  18
ENDBRANCH   6  17
TORSDOF 7
ENDMDL
MODEL 3
REMARK VINA RESULT:      -7.8      1.851      9.212
REMARK  Name = 
REMARK  7 active torsions:
REMARK  status: ('A' for Active; 'I' for Inactive)
REMARK    1  A    between atoms: C_4  and  C_5
REMARK    2  A    between atoms: C_5  and  C_6
REMARK    3  A    between atoms: C_13  and  S_14
REMARK    4  A    between atoms: S_14  and  C_15
REMARK    5  A    between atoms: C_15  and  C_16
REMARK    6  A    between atoms: C_16  and  C_17
REMARK    7  A    between atoms: C_17  and  C_18
REMARK                            x       y       z     vdW  Elec       q    Type
REMARK                         _______ _______ _______ _____ _____    ______ ____
ROOT
ATOM      1  N   UNL     1       8.596   5.505  19.924  0.00  0.00    +0.000 N 
ATOM      2  C   UNL     1       7.993   6.343  18.986  0.00  0.00    +0.000 A 
ATOM      3  C   UNL     1       8.454   7.629  18.808  0.00  0.00    +0.000 A 
ATOM      4  C   UNL     1       7.839   8.376  17.824  0.00  0.00    +0.000 A 
ATOM      5  N   UNL     1       6.792   7.897  17.119  0.00  0.00    +0.000 NA
ATOM      6  C   UNL     1       6.375   6.657  17.419  0.00  0.00    +0.000 A 
ATOM      7  N   UNL     1       6.950   5.843  18.318  0.00  0.00    +0.000 NA
ATOM      8  H   UNL     1       9.603   5.467  19.817  0.00  0.00    +0.000 HD
ATOM      9  H   UNL     1       8.171   4.585  19.827  0.00  0.00    +0.000 HD
ENDROOT
BRANCH   4  10
ATOM     10  C   UNL     1       8.367   9.745  17.453  0.00  0.00    +0.000 C 
BRANCH  10  11
ATOM     11  C   UNL     1       9.281  10.390  18.470  0.00  0.00    +0.000 A 
ATOM     12  C   UNL     1      10.493  10.974  18.071  0.00  0.00    +0.000 A 
ATOM     13  C   UNL     1      11.294  11.650  18.995  0.00  0.00    +0.000 A 
ATOM     14  C   UNL     1      10.892  11.749  20.325  0.00  0.00    +0.000 A 
ATOM     15  C   UNL     1       9.695  11.166  20.736  0.00  0.00    +0.000 A 
ATOM     16  C   UNL     1       8.894  10.489  19.814  0.00  0.00    +0.000 A 
ENDBRANCH  10  11
ENDBRANCH   4  10
BRANCH   6  17
ATOM     17  S   UNL     1       5.002   6.027  16.492  0.00  0.00    +0.000 S 
BRANCH  17  18
ATOM     18  C   UNL     1       4.338   4.820  17.694  0.00  0.00    +0.000 C 
BRANCH  18  19
ATOM     19  C   UNL     1       3.722   3.656  16.907  0.00  0.00    +0.000 C 
BRANCH  19  20
ATOM     20  C   UNL     1       3.566   2.377  17.739  0.00  0.00    +0.000 C 
BRANCH  20  21
ATOM     21  C   UNL     1       2.783   2.641  19.007  0.00  0.00    +0.000 A 
ATOM     22  C   UNL     1       3.395   2.520  20.263  0.00  0.00    +0.000 A 
ATOM     23  C   UNL     1       2.667   2.726  21.436  0.00  0.00    +0.000 A 
ATOM     24  C   UNL     1       1.313   3.051  21.373  0.00  0.00    +0.000 A 
ATOM     25  C   UNL     1       0.691   3.173  20.133  0.00  0.00    +0.000 A 
ATOM     26  C   UNL     1       1.418   2.970  18.955  0.00  0.00    +0.000 A 
ENDBRANCH  20  21
ENDBRANCH  19  20
ENDBRANCH  18  19
ENDBRANCH  17  18
ENDBRANCH   6  17
TORSDOF 7
ENDMDL
MODEL 4
REMARK VINA RESULT:      -7.8      1.884      3.166
REMARK  Name = 
REMARK  7 active torsions:
REMARK  status: ('A' for Active; 'I' for Inactive)
REMARK    1  A    between atoms: C_4  and  C_5
REMARK    2  A    between atoms: C_5  and  C_6
REMARK    3  A    between atoms: C_13  and  S_14
REMARK    4  A    between atoms: S_14  and  C_15
REMARK    5  A    between atoms: C_15  and  C_16
REMARK    6  A    between atoms: C_16  and  C_17
REMARK    7  A    between atoms: C_17  and  C_18
REMARK                            x       y       z     vdW  Elec       q    Type
REMARK                         _______ _______ _______ _____ _____    ______ ____
ROOT
ATOM      1  N   UNL     1       8.549   5.232  20.122  0.00  0.00    +0.000 N 
ATOM      2  C   UNL     1       7.995   5.957  19.068  0.00  0.00    +0.000 A 
ATOM      3  C   UNL     1       7.135   5.345  18.181  0.00  0.00    +0.000 A 
ATOM      4  C   UNL     1       6.588   6.145  17.198  0.00  0.00    +0.000 A 
ATOM      5  N   UNL     1       6.933   7.443  17.066  0.00  0.00    +0.000 NA
ATOM      6  C   UNL     1       7.834   7.924  17.938  0.00  0.00    +0.000 A 
ATOM      7  N   UNL     1       8.370   7.234  18.956  0.00  0.00    +0.000 NA
ATOM      8  H   UNL     1       7.848   4.732  20.658  0.00  0.00    +0.000 HD
ATOM      9  H   UNL     1       9.070   5.887  20.701  0.00  0.00    +0.000 HD
ENDROOT
BRANCH   4  10
ATOM     10  C   UNL     1       5.524   5.603  16.269  0.00  0.00    +0.000 C 
BRANCH  10  11
ATOM     11  C   UNL     1       4.282   5.066  16.940  0.00  0.00    +0.000 A 
ATOM     12  C   UNL     1       3.418   5.926  17.634  0.00  0.00    +0.000 A 
ATOM     13  C   UNL     1       2.223   5.446  18.177  0.00  0.00    +0.000 A 
ATOM     14  C   UNL     1       1.880   4.103  18.031  0.00  0.00    +0.000 A 
ATOM     15  C   UNL     1       2.733   3.237  17.351  0.00  0.00    +0.000 A 
ATOM     16  C   UNL     1       3.928   3.715  16.810  0.00  0.00    +0.000 A 
ENDBRANCH  10  11
ENDBRANCH   4  10
BRANCH   6  17
ATOM     17  S   UNL     1       8.284   9.629  17.765  0.00  0.00    +0.000 S 
BRANCH  17  18
ATOM     18  C   UNL     1       9.448   9.791  19.167  0.00  0.00    +0.000 C 
BRANCH  18  19
ATOM     19  C   UNL     1       9.151  11.117  19.879  0.00  0.00    +0.000 C 
BRANCH  19  20
ATOM     20  C   UNL     1      10.388  11.739  20.541  0.00  0.00    +0.000 C 
BRANCH  20  21
ATOM     21  C   UNL     1      11.040  12.758  19.633  0.00  0.00    +0.000 A 
ATOM     22  C   UNL     1      11.571  12.376  18.392  0.00  0.00    +0.000 A 
ATOM     23  C   UNL     1      12.207  13.305  17.568  0.00  0.00    +0.000 A 
ATOM     24  C   UNL     1      12.327  14.634  17.973  0.00  0.00    +0.000 A 
ATOM     25  C   UNL     1      11.806  15.029  19.203  0.00  0.00    +0.000 A 
ATOM     26  C   UNL     1      11.166  14.101  20.030  0.00  0.00    +0.000 A 
ENDBRANCH  20  21
ENDBRANCH  19  20
ENDBRANCH  18  19
ENDBRANCH  17  18
ENDBRANCH   6  17
TORSDOF 7
ENDMDL
MODEL 5
REMARK VINA RESULT:      -7.8      4.767      7.394
REMARK  Name = 
REMARK  7 active torsions:
REMARK  status: ('A' for Active; 'I' for Inactive)
REMARK    1  A    between atoms: C_4  and  C_5
REMARK    2  A    between atoms: C_5  and  C_6
REMARK    3  A    between atoms: C_13  and  S_14
REMARK    4  A    between atoms: S_14  and  C_15
REMARK    5  A    between atoms: C_15  and  C_16
REMARK    6  A    between atoms: C_16  and  C_17
REMARK    7  A    between atoms: C_17  and  C_18
REMARK                            x       y       z     vdW  Elec       q    Type
REMARK                         _______ _______ _______ _____ _____    ______ ____
ROOT
ATOM      1  N   UNL     1       7.616   5.159  19.518  0.00  0.00    +0.000 N 
ATOM      2  C   UNL     1       6.522   4.938  18.683  0.00  0.00    +0.000 A 
ATOM      3  C   UNL     1       6.430   5.591  17.472  0.00  0.00    +0.000 A 
ATOM      4  C   UNL     1       5.343   5.277  16.681  0.00  0.00    +0.000 A 
ATOM      5  N   UNL     1       4.381   4.429  17.101  0.00  0.00    +0.000 NA
ATOM      6  C   UNL     1       4.529   3.901  18.327  0.00  0.00    +0.000 A 
ATOM      7  N   UNL     1       5.580   4.106  19.136  0.00  0.00    +0.000 NA
ATOM      8  H   UNL     1       8.500   5.050  19.033  0.00  0.00    +0.000 HD
ATOM      9  H   UNL     1       7.535   4.517  20.303  0.00  0.00    +0.000 HD
ENDROOT
BRANCH   4  10
ATOM     10  C   UNL     1       5.229   5.829  15.277  0.00  0.00    +0.000 C 
BRANCH  10  11
ATOM     11  C   UNL     1       5.852   4.984  14.190  0.00  0.00    +0.000 A 
ATOM     12  C   UNL     1       5.107   3.984  13.547  0.00  0.00    +0.000 A 
ATOM     13  C   UNL     1       5.654   3.264  12.481  0.00  0.00    +0.000 A 
ATOM     14  C   UNL     1       6.949   3.537  12.047  0.00  0.00    +0.000 A 
ATOM     15  C   UNL     1       7.702   4.522  12.682  0.00  0.00    +0.000 A 
ATOM     16  C   UNL     1       7.158   5.241  13.748  0.00  0.00    +0.000 A 
ENDBRANCH  10  11
ENDBRANCH   4  10
BRANCH   6  17
ATOM     17  S   UNL     1       3.267   2.786  18.877  0.00  0.00    +0.000 S 
BRANCH  17  18
ATOM     18  C   UNL     1       1.796   3.854  18.679  0.00  0.00    +0.000 C 
BRANCH  18  19
ATOM     19  C   UNL     1       1.489   4.496  20.037  0.00  0.00    +0.000 C 
BRANCH  19  20
ATOM     20  C   UNL     1       2.508   5.570  20.443  0.00  0.00    +0.000 C 
BRANCH  20  21
ATOM     21  C   UNL     1       2.195   6.897  19.787  0.00  0.00    +0.000 A 
ATOM     22  C   UNL     1       1.486   7.889  20.482  0.00  0.00    +0.000 A 
ATOM     23  C   UNL     1       1.162   9.099  19.869  0.00  0.00    +0.000 A 
ATOM     24  C   UNL     1       1.538   9.339  18.548  0.00  0.00    +0.000 A 
ATOM     25  C   UNL     1       2.241   8.364  17.844  0.00  0.00    +0.000 A 
ATOM     26  C   UNL     1       2.570   7.150  18.456  0.00  0.00    +0.000 A 
ENDBRANCH  20  21
ENDBRANCH  19  20
ENDBRANCH  18  19
ENDBRANCH  17  18
ENDBRANCH   6  17
TORSDOF 7
ENDMDL
MODEL 6
REMARK VINA RESULT:      -7.7      2.328      3.432
REMARK  Name = 
REMARK  7 active torsions:
REMARK  status: ('A' for Active; 'I' for Inactive)
REMARK    1  A    between atoms: C_4  and  C_5
REMARK    2  A    between atoms: C_5  and  C_6
REMARK    3  A    between atoms: C_13  and  S_14
REMARK    4  A    between atoms: S_14  and  C_15
REMARK    5  A    between atoms: C_15  and  C_16
REMARK    6  A    between atoms: C_16  and  C_17
REMARK    7  A    between atoms: C_17  and  C_18
REMARK                            x       y       z     vdW  Elec       q    Type
REMARK                         _______ _______ _______ _____ _____    ______ ____
ROOT
ATOM      1  N   UNL     1       8.365   5.248  20.132  0.00  0.00    +0.000 N 
ATOM      2  C   UNL     1       7.844   5.947  19.045  0.00  0.00    +0.000 A 
ATOM      3  C   UNL     1       6.975   5.327  18.173  0.00  0.00    +0.000 A 
ATOM      4  C   UNL     1       6.462   6.103  17.153  0.00  0.00    +0.000 A 
ATOM      5  N   UNL     1       6.847   7.385  16.974  0.00  0.00    +0.000 NA
ATOM      6  C   UNL     1       7.754   7.872  17.837  0.00  0.00    +0.000 A 
ATOM      7  N   UNL     1       8.258   7.207  18.888  0.00  0.00    +0.000 NA
ATOM      8  H   UNL     1       7.644   4.790  20.679  0.00  0.00    +0.000 HD
ATOM      9  H   UNL     1       8.899   5.909  20.692  0.00  0.00    +0.000 HD
ENDROOT
BRANCH   4  10
ATOM     10  C   UNL     1       5.392   5.557  16.233  0.00  0.00    +0.000 C 
BRANCH  10  11
ATOM     11  C   UNL     1       4.161   5.008  16.917  0.00  0.00    +0.000 A 
ATOM     12  C   UNL     1       3.872   3.636  16.872  0.00  0.00    +0.000 A 
ATOM     13  C   UNL     1       2.785   3.115  17.579  0.00  0.00    +0.000 A 
ATOM     14  C   UNL     1       1.978   3.960  18.337  0.00  0.00    +0.000 A 
ATOM     15  C   UNL     1       2.249   5.325  18.384  0.00  0.00    +0.000 A 
ATOM     16  C   UNL     1       3.334   5.847  17.676  0.00  0.00    +0.000 A 
ENDBRANCH  10  11
ENDBRANCH   4  10
BRANCH   6  17
ATOM     17  S   UNL     1       8.257   9.555  17.603  0.00  0.00    +0.000 S 
BRANCH  17  18
ATOM     18  C   UNL     1       9.267   9.794  19.109  0.00  0.00    +0.000 C 
BRANCH  18  19
ATOM     19  C   UNL     1       9.350  11.299  19.392  0.00  0.00    +0.000 C 
BRANCH  19  20
ATOM     20  C   UNL     1      10.434  11.665  20.414  0.00  0.00    +0.000 C 
BRANCH  20  21
ATOM     21  C   UNL     1       9.983  12.801  21.307  0.00  0.00    +0.000 A 
ATOM     22  C   UNL     1       9.057  12.577  22.336  0.00  0.00    +0.000 A 
ATOM     23  C   UNL     1       8.611  13.628  23.138  0.00  0.00    +0.000 A 
ATOM     24  C   UNL     1       9.079  14.923  22.920  0.00  0.00    +0.000 A 
ATOM     25  C   UNL     1       9.998  15.162  21.901  0.00  0.00    +0.000 A 
ATOM     26  C   UNL     1      10.450  14.110  21.097  0.00  0.00    +0.000 A 
ENDBRANCH  20  21
ENDBRANCH  19  20
ENDBRANCH  18  19
ENDBRANCH  17  18
ENDBRANCH   6  17
TORSDOF 7
ENDMDL
MODEL 7
REMARK VINA RESULT:      -7.6      1.300      1.918
REMARK  Name = 
REMARK  7 active torsions:
REMARK  status: ('A' for Active; 'I' for Inactive)
REMARK    1  A    between atoms: C_4  and  C_5
REMARK    2  A    between atoms: C_5  and  C_6
REMARK    3  A    between atoms: C_13  and  S_14
REMARK    4  A    between atoms: S_14  and  C_15
REMARK    5  A    between atoms: C_15  and  C_16
REMARK    6  A    between atoms: C_16  and  C_17
REMARK    7  A    between atoms: C_17  and  C_18
REMARK                            x       y       z     vdW  Elec       q    Type
REMARK                         _______ _______ _______ _____ _____    ______ ____
ROOT
ATOM      1  N   UNL     1       6.631   4.929  14.174  0.00  0.00    +0.000 N 
ATOM      2  C   UNL     1       6.228   5.401  15.422  0.00  0.00    +0.000 A 
ATOM      3  C   UNL     1       4.903   5.334  15.794  0.00  0.00    +0.000 A 
ATOM      4  C   UNL     1       4.594   5.773  17.066  0.00  0.00    +0.000 A 
ATOM      5  N   UNL     1       5.530   6.307  17.879  0.00  0.00    +0.000 NA
ATOM      6  C   UNL     1       6.779   6.392  17.393  0.00  0.00    +0.000 A 
ATOM      7  N   UNL     1       7.176   5.938  16.194  0.00  0.00    +0.000 NA
ATOM      8  H   UNL     1       6.300   3.988  13.990  0.00  0.00    +0.000 HD
ATOM      9  H   UNL     1       7.647   4.984  14.141  0.00  0.00    +0.000 HD
ENDROOT
BRANCH   4  10
ATOM     10  C   UNL     1       3.196   5.606  17.619  0.00  0.00    +0.000 C 
BRANCH  10  11
ATOM     11  C   UNL     1       2.817   4.201  18.027  0.00  0.00    +0.000 A 
ATOM     12  C   UNL     1       1.474   3.858  18.242  0.00  0.00    +0.000 A 
ATOM     13  C   UNL     1       1.117   2.538  18.531  0.00  0.00    +0.000 A 
ATOM     14  C   UNL     1       2.095   1.550  18.606  0.00  0.00    +0.000 A 
ATOM     15  C   UNL     1       3.433   1.880  18.402  0.00  0.00    +0.000 A 
ATOM     16  C   UNL     1       3.793   3.198  18.115  0.00  0.00    +0.000 A 
ENDBRANCH  10  11
ENDBRANCH   4  10
BRANCH   6  17
ATOM     17  S   UNL     1       8.008   7.091  18.462  0.00  0.00    +0.000 S 
BRANCH  17  18
ATOM     18  C   UNL     1       8.150   8.760  17.728  0.00  0.00    +0.000 C 
BRANCH  18  19
ATOM     19  C   UNL     1       8.884   9.659  18.731  0.00  0.00    +0.000 C 
BRANCH  19  20
ATOM     20  C   UNL     1       8.706  11.156  18.447  0.00  0.00    +0.000 C 
BRANCH  20  21
ATOM     21  C   UNL     1       9.955  11.933  18.801  0.00  0.00    +0.000 A 
ATOM     22  C   UNL     1      11.170  11.671  18.149  0.00  0.00    +0.000 A 
ATOM     23  C   UNL     1      12.332  12.359  18.499  0.00  0.00    +0.000 A 
ATOM     24  C   UNL     1      12.303  13.317  19.510  0.00  0.00    +0.000 A 
ATOM     25  C   UNL     1      11.104  13.588  20.168  0.00  0.00    +0.000 A 
ATOM     26  C   UNL     1       9.936  12.903  19.818  0.00  0.00    +0.000 A 
ENDBRANCH  20  21
ENDBRANCH  19  20
ENDBRANCH  18  19
ENDBRANCH  17  18
ENDBRANCH   6  17
TORSDOF 7
ENDMDL
MODEL 8
REMARK VINA RESULT:      -7.5      4.571      8.455
REMARK  Name = 
REMARK  7 active torsions:
REMARK  status: ('A' for Active; 'I' for Inactive)
REMARK    1  A    between atoms: C_4  and  C_5
REMARK    2  A    between atoms: C_5  and  C_6
REMARK    3  A    between atoms: C_13  and  S_14
REMARK    4  A    between atoms: S_14  and  C_15
REMARK    5  A    between atoms: C_15  and  C_16
REMARK    6  A    between atoms: C_16  and  C_17
REMARK    7  A    between atoms: C_17  and  C_18
REMARK                            x       y       z     vdW  Elec       q    Type
REMARK                         _______ _______ _______ _____ _____    ______ ____
ROOT
ATOM      1  N   UNL     1       0.579   2.879  20.277  0.00  0.00    +0.000 N 
ATOM      2  C   UNL     1       1.601   3.801  20.056  0.00  0.00    +0.000 A 
ATOM      3  C   UNL     1       2.884   3.366  19.802  0.00  0.00    +0.000 A 
ATOM      4  C   UNL     1       3.827   4.340  19.543  0.00  0.00    +0.000 A 
ATOM      5  N   UNL     1       3.526   5.654  19.605  0.00  0.00    +0.000 NA
ATOM      6  C   UNL     1       2.263   5.973  19.932  0.00  0.00    +0.000 A 
ATOM      7  N   UNL     1       1.273   5.093  20.142  0.00  0.00    +0.000 NA
ATOM      8  H   UNL     1       0.533   2.172  19.551  0.00  0.00    +0.000 HD
ATOM      9  H   UNL     1      -0.292   3.401  20.348  0.00  0.00    +0.000 HD
ENDROOT
BRANCH   4  10
ATOM     10  C   UNL     1       5.227   3.960  19.110  0.00  0.00    +0.000 C 
BRANCH  10  11
ATOM     11  C   UNL     1       6.051   5.075  18.510  0.00  0.00    +0.000 A 
ATOM     12  C   UNL     1       5.650   5.697  17.319  0.00  0.00    +0.000 A 
ATOM     13  C   UNL     1       6.362   6.788  16.813  0.00  0.00    +0.000 A 
ATOM     14  C   UNL     1       7.480   7.267  17.492  0.00  0.00    +0.000 A 
ATOM     15  C   UNL     1       7.893   6.653  18.672  0.00  0.00    +0.000 A 
ATOM     16  C   UNL     1       7.184   5.562  19.178  0.00  0.00    +0.000 A 
ENDBRANCH  10  11
ENDBRANCH   4  10
BRANCH   6  17
ATOM     17  S   UNL     1       1.868   7.699  20.012  0.00  0.00    +0.000 S 
BRANCH  17  18
ATOM     18  C   UNL     1       2.297   8.198  18.305  0.00  0.00    +0.000 C 
BRANCH  18  19
ATOM     19  C   UNL     1       1.400   9.381  17.918  0.00  0.00    +0.000 C 
BRANCH  19  20
ATOM     20  C   UNL     1       0.629   9.971  19.106  0.00  0.00    +0.000 C 
BRANCH  20  21
ATOM     21  C   UNL     1      -0.737  10.464  18.682  0.00  0.00    +0.000 A 
ATOM     22  C   UNL     1      -1.362   9.944  17.539  0.00  0.00    +0.000 A 
ATOM     23  C   UNL     1      -2.605  10.422  17.122  0.00  0.00    +0.000 A 
ATOM     24  C   UNL     1      -3.243  11.433  17.839  0.00  0.00    +0.000 A 
ATOM     25  C   UNL     1      -2.634  11.962  18.975  0.00  0.00    +0.000 A 
ATOM     26  C   UNL     1      -1.390  11.483  19.397  0.00  0.00    +0.000 A 
ENDBRANCH  20  21
ENDBRANCH  19  20
ENDBRANCH  18  19
ENDBRANCH  17  18
ENDBRANCH   6  17
TORSDOF 7
ENDMDL
MODEL 9
REMARK VINA RESULT:      -7.5      7.037     10.361
REMARK  Name = 
REMARK  7 active torsions:
REMARK  status: ('A' for Active; 'I' for Inactive)
REMARK    1  A    between atoms: C_4  and  C_5
REMARK    2  A    between atoms: C_5  and  C_6
REMARK    3  A    between atoms: C_13  and  S_14
REMARK    4  A    between atoms: S_14  and  C_15
REMARK    5  A    between atoms: C_15  and  C_16
REMARK    6  A    between atoms: C_16  and  C_17
REMARK    7  A    between atoms: C_17  and  C_18
REMARK                            x       y       z     vdW  Elec       q    Type
REMARK                         _______ _______ _______ _____ _____    ______ ____
ROOT
ATOM      1  N   UNL     1       1.449  10.358  17.701  0.00  0.00    +0.000 N 
ATOM      2  C   UNL     1       1.508   9.422  18.733  0.00  0.00    +0.000 A 
ATOM      3  C   UNL     1       2.153   8.219  18.543  0.00  0.00    +0.000 A 
ATOM      4  C   UNL     1       2.213   7.370  19.629  0.00  0.00    +0.000 A 
ATOM      5  N   UNL     1       1.609   7.670  20.799  0.00  0.00    +0.000 NA
ATOM      6  C   UNL     1       0.945   8.837  20.857  0.00  0.00    +0.000 A 
ATOM      7  N   UNL     1       0.886   9.744  19.870  0.00  0.00    +0.000 NA
ATOM      8  H   UNL     1       2.361  10.549  17.300  0.00  0.00    +0.000 HD
ATOM      9  H   UNL     1       1.018  11.200  18.078  0.00  0.00    +0.000 HD
ENDROOT
BRANCH   4  10
ATOM     10  C   UNL     1       3.022   6.093  19.565  0.00  0.00    +0.000 C 
BRANCH  10  11
ATOM     11  C   UNL     1       2.223   4.811  19.590  0.00  0.00    +0.000 A 
ATOM     12  C   UNL     1       1.786   4.219  18.396  0.00  0.00    +0.000 A 
ATOM     13  C   UNL     1       1.126   2.987  18.414  0.00  0.00    +0.000 A 
ATOM     14  C   UNL     1       0.899   2.335  19.624  0.00  0.00    +0.000 A 
ATOM     15  C   UNL     1       1.321   2.916  20.817  0.00  0.00    +0.000 A 
ATOM     16  C   UNL     1       1.979   4.148  20.801  0.00  0.00    +0.000 A 
ENDBRANCH  10  11
ENDBRANCH   4  10
BRANCH   6  17
ATOM     17  S   UNL     1       0.155   9.232  22.393  0.00  0.00    +0.000 S 
BRANCH  17  18
ATOM     18  C   UNL     1      -0.306  10.972  22.072  0.00  0.00    +0.000 C 
BRANCH  18  19
ATOM     19  C   UNL     1      -1.476  11.331  22.996  0.00  0.00    +0.000 C 
BRANCH  19  20
ATOM     20  C   UNL     1      -2.114  12.687  22.666  0.00  0.00    +0.000 C 
BRANCH  20  21
ATOM     21  C   UNL     1      -3.589  12.695  23.005  0.00  0.00    +0.000 A 
ATOM     22  C   UNL     1      -4.548  12.970  22.018  0.00  0.00    +0.000 A 
ATOM     23  C   UNL     1      -5.906  13.015  22.333  0.00  0.00    +0.000 A 
ATOM     24  C   UNL     1      -6.330  12.792  23.643  0.00  0.00    +0.000 A 
ATOM     25  C   UNL     1      -5.390  12.519  24.634  0.00  0.00    +0.000 A 
ATOM     26  C   UNL     1      -4.027  12.470  24.321  0.00  0.00    +0.000 A 
ENDBRANCH  20  21
ENDBRANCH  19  20
ENDBRANCH  18  19
ENDBRANCH  17  18
ENDBRANCH   6  17
TORSDOF 7
ENDMDL
