MODEL 1
REMARK VINA RESULT:      -8.2      0.000      0.000
REMARK  Name = 
REMARK  9 active torsions:
REMARK  status: ('A' for Active; 'I' for Inactive)
REMARK    1  A    between atoms: C_1  and  C_2
REMARK    2  A    between atoms: C_2  and  O_3
REMARK    3  A    between atoms: O_3  and  C_4
REMARK    4  A    between atoms: C_4  and  C_6
REMARK    5  A    between atoms: N_15  and  C_16
REMARK    6  A    between atoms: C_16  and  C_17
REMARK    7  A    between atoms: C_19  and  C_20
REMARK    8  A    between atoms: C_20  and  N_21
REMARK    9  A    between atoms: C_26  and  O_27
REMARK                            x       y       z     vdW  Elec       q    Type
REMARK                         _______ _______ _______ _____ _____    ______ ____
ROOT
ATOM      1  C   UNL     1       1.641   9.177  18.686  0.00  0.00    +0.000 A 
ATOM      2  C   UNL     1       1.009  10.206  18.029  0.00  0.00    +0.000 A 
ATOM      3  C   UNL     1       0.582  11.217  18.835  0.00  0.00    +0.000 A 
ATOM      4  C   UNL     1      -0.472  10.648  19.487  0.00  0.00    +0.000 A 
ATOM      5  C   UNL     1      -0.139   9.682  20.383  0.00  0.00    +0.000 A 
ATOM      6  N   UNL     1      -0.940   9.696  21.462  0.00  0.00    +0.000 NA
ATOM      7  C   UNL     1      -0.343   9.522  22.646  0.00  0.00    +0.000 A 
ATOM      8  C   UNL     1       0.984   9.148  22.711  0.00  0.00    +0.000 A 
ATOM      9  C   UNL     1       1.682   8.819  21.492  0.00  0.00    +0.000 A 
ATOM     10  C   UNL     1       1.140   9.070  20.154  0.00  0.00    +0.000 A 
ENDROOT
BRANCH   4  11
ATOM     11  O   UNL     1      -1.758  10.719  19.024  0.00  0.00    +0.000 OA
ATOM     12  H   UNL     1      -2.253  10.053  19.547  0.00  0.00    +0.000 HD
ENDBRANCH   4  11
BRANCH   1  13
ATOM     13  C   UNL     1       2.323   8.190  17.668  0.00  0.00    +0.000 C 
BRANCH  13  23
ATOM     14  C   UNL     1       4.092   6.225  17.446  0.00  0.00    +0.000 A 
ATOM     15  C   UNL     1       4.140   4.870  17.747  0.00  0.00    +0.000 A 
ATOM     16  C   UNL     1       3.237   4.586  18.768  0.00  0.00    +0.000 A 
ATOM     17  C   UNL     1       3.040   3.394  19.510  0.00  0.00    +0.000 A 
ATOM     18  C   UNL     1       2.235   3.410  20.635  0.00  0.00    +0.000 A 
ATOM     19  F   UNL     1       2.054   2.292  21.350  0.00  0.00    +0.000 F 
ATOM     20  C   UNL     1       1.668   4.590  21.047  0.00  0.00    +0.000 A 
ATOM     21  C   UNL     1       1.858   5.775  20.308  0.00  0.00    +0.000 A 
ATOM     22  C   UNL     1       2.595   5.803  19.093  0.00  0.00    +0.000 A 
ATOM     23  N   UNL     1       2.927   6.769  18.078  0.00  0.00    +0.000 N 
BRANCH  14  24
ATOM     24  C   UNL     1       5.190   6.766  16.659  0.00  0.00    +0.000 C 
ATOM     25  O   UNL     1       5.307   6.561  15.453  0.00  0.00    +0.000 OA
BRANCH  24  26
ATOM     26  O   UNL     1       6.155   7.358  17.410  0.00  0.00    +0.000 OA
BRANCH  26  28
ATOM     27  C   UNL     1       7.760   6.138  18.798  0.00  0.00    +0.000 C 
ATOM     28  C   UNL     1       7.396   6.616  17.398  0.00  0.00    +0.000 C 
ENDBRANCH  26  28
ENDBRANCH  24  26
ENDBRANCH  14  24
ENDBRANCH  13  23
ENDBRANCH   1  13
BRANCH   3  29
ATOM     29  C   UNL     1       1.699  11.867  19.776  0.00  0.00    +0.000 C 
BRANCH  29  30
ATOM     30  N   UNL     1       2.120  13.230  19.560  0.00  0.00    +0.000 NA
ATOM     31  C   UNL     1       2.315  13.690  18.211  0.00  0.00    +0.000 C 
ATOM     32  C   UNL     1       3.719  14.248  18.248  0.00  0.00    +0.000 C 
ATOM     33  C   UNL     1       3.825  14.838  19.646  0.00  0.00    +0.000 C 
ATOM     34  C   UNL     1       2.974  13.917  20.506  0.00  0.00    +0.000 C 
ENDBRANCH  29  30
ENDBRANCH   3  29
TORSDOF 8
ENDMDL
MODEL 2
REMARK VINA RESULT:      -7.9      0.913      1.280
REMARK  Name = 
REMARK  9 active torsions:
REMARK  status: ('A' for Active; 'I' for Inactive)
REMARK    1  A    between atoms: C_1  and  C_2
REMARK    2  A    between atoms: C_2  and  O_3
REMARK    3  A    between atoms: O_3  and  C_4
REMARK    4  A    between atoms: C_4  and  C_6
REMARK    5  A    between atoms: N_15  and  C_16
REMARK    6  A    between atoms: C_16  and  C_17
REMARK    7  A    between atoms: C_19  and  C_20
REMARK    8  A    between atoms: C_20  and  N_21
REMARK    9  A    between atoms: C_26  and  O_27
REMARK                            x       y       z     vdW  Elec       q    Type
REMARK                         _______ _______ _______ _____ _____    ______ ____
ROOT
ATOM      1  C   UNL     1       1.814   9.125  18.654  0.00  0.00    +0.000 A 
ATOM      2  C   UNL     1       1.038   9.992  17.922  0.00  0.00    +0.000 A 
ATOM      3  C   UNL     1       0.404  10.945  18.658  0.00  0.00    +0.000 A 
ATOM      4  C   UNL     1      -0.559  10.227  19.304  0.00  0.00    +0.000 A 
ATOM      5  C   UNL     1      -0.097   9.380  20.261  0.00  0.00    +0.000 A 
ATOM      6  N   UNL     1      -0.934   9.298  21.310  0.00  0.00    +0.000 NA
ATOM      7  C   UNL     1      -0.366   9.290  22.521  0.00  0.00    +0.000 A 
ATOM      8  C   UNL     1       1.003   9.164  22.650  0.00  0.00    +0.000 A 
ATOM      9  C   UNL     1       1.799   8.910  21.475  0.00  0.00    +0.000 A 
ATOM     10  C   UNL     1       1.279   8.998  20.107  0.00  0.00    +0.000 A 
ENDROOT
BRANCH   4  11
ATOM     11  O   UNL     1      -1.816  10.044  18.795  0.00  0.00    +0.000 OA
ATOM     12  H   UNL     1      -2.345  10.789  19.153  0.00  0.00    +0.000 HD
ENDBRANCH   4  11
BRANCH   1  13
ATOM     13  C   UNL     1       2.704   8.231  17.713  0.00  0.00    +0.000 C 
BRANCH  13  23
ATOM     14  C   UNL     1       4.183   6.049  17.404  0.00  0.00    +0.000 A 
ATOM     15  C   UNL     1       4.016   4.682  17.583  0.00  0.00    +0.000 A 
ATOM     16  C   UNL     1       3.018   4.453  18.526  0.00  0.00    +0.000 A 
ATOM     17  C   UNL     1       2.604   3.246  19.145  0.00  0.00    +0.000 A 
ATOM     18  C   UNL     1       1.739   3.289  20.223  0.00  0.00    +0.000 A 
ATOM     19  F   UNL     1       1.354   2.155  20.824  0.00  0.00    +0.000 F 
ATOM     20  C   UNL     1       1.322   4.502  20.711  0.00  0.00    +0.000 A 
ATOM     21  C   UNL     1       1.728   5.702  20.094  0.00  0.00    +0.000 A 
ATOM     22  C   UNL     1       2.538   5.721  18.927  0.00  0.00    +0.000 A 
ATOM     23  N   UNL     1       3.070   6.707  18.022  0.00  0.00    +0.000 N 
BRANCH  14  24
ATOM     24  C   UNL     1       5.396   6.485  16.728  0.00  0.00    +0.000 C 
ATOM     25  O   UNL     1       6.221   7.227  17.256  0.00  0.00    +0.000 OA
BRANCH  24  26
ATOM     26  O   UNL     1       5.436   6.143  15.413  0.00  0.00    +0.000 OA
BRANCH  26  28
ATOM     27  C   UNL     1       5.967   4.081  14.206  0.00  0.00    +0.000 C 
ATOM     28  C   UNL     1       6.479   5.184  15.125  0.00  0.00    +0.000 C 
ENDBRANCH  26  28
ENDBRANCH  24  26
ENDBRANCH  14  24
ENDBRANCH  13  23
ENDBRANCH   1  13
BRANCH   3  29
ATOM     29  C   UNL     1       1.346  11.829  19.601  0.00  0.00    +0.000 C 
BRANCH  29  30
ATOM     30  N   UNL     1       1.673  13.184  19.227  0.00  0.00    +0.000 NA
ATOM     31  C   UNL     1       2.484  13.406  18.061  0.00  0.00    +0.000 C 
ATOM     32  C   UNL     1       3.601  14.274  18.590  0.00  0.00    +0.000 C 
ATOM     33  C   UNL     1       2.912  15.133  19.638  0.00  0.00    +0.000 C 
ATOM     34  C   UNL     1       1.842  14.223  20.222  0.00  0.00    +0.000 C 
ENDBRANCH  29  30
ENDBRANCH   3  29
TORSDOF 8
ENDMDL
MODEL 3
REMARK VINA RESULT:      -7.9      1.965      3.559
REMARK  Name = 
REMARK  9 active torsions:
REMARK  status: ('A' for Active; 'I' for Inactive)
REMARK    1  A    between atoms: C_1  and  C_2
REMARK    2  A    between atoms: C_2  and  O_3
REMARK    3  A    between atoms: O_3  and  C_4
REMARK    4  A    between atoms: C_4  and  C_6
REMARK    5  A    between atoms: N_15  and  C_16
REMARK    6  A    between atoms: C_16  and  C_17
REMARK    7  A    between atoms: C_19  and  C_20
REMARK    8  A    between atoms: C_20  and  N_21
REMARK    9  A    between atoms: C_26  and  O_27
REMARK                            x       y       z     vdW  Elec       q    Type
REMARK                         _______ _______ _______ _____ _____    ______ ____
ROOT
ATOM      1  C   UNL     1       1.727   9.866  18.311  0.00  0.00    +0.000 A 
ATOM      2  C   UNL     1       0.699   9.106  18.815  0.00  0.00    +0.000 A 
ATOM      3  C   UNL     1      -0.375   9.820  19.250  0.00  0.00    +0.000 A 
ATOM      4  C   UNL     1       0.098  10.397  20.392  0.00  0.00    +0.000 A 
ATOM      5  C   UNL     1       1.033  11.364  20.202  0.00  0.00    +0.000 A 
ATOM      6  N   UNL     1       0.918  12.362  21.095  0.00  0.00    +0.000 NA
ATOM      7  C   UNL     1       1.064  13.603  20.619  0.00  0.00    +0.000 A 
ATOM      8  C   UNL     1       1.509  13.809  19.329  0.00  0.00    +0.000 A 
ATOM      9  C   UNL     1       1.941  12.677  18.546  0.00  0.00    +0.000 A 
ATOM     10  C   UNL     1       1.729  11.284  18.947  0.00  0.00    +0.000 A 
ENDROOT
BRANCH   4  11
ATOM     11  O   UNL     1      -0.023   9.813  21.624  0.00  0.00    +0.000 OA
ATOM     12  H   UNL     1      -0.957   9.515  21.672  0.00  0.00    +0.000 HD
ENDBRANCH   4  11
BRANCH   1  13
ATOM     13  C   UNL     1       2.803   8.963  17.602  0.00  0.00    +0.000 C 
BRANCH  13  23
ATOM     14  C   UNL     1       3.987   6.616  17.243  0.00  0.00    +0.000 A 
ATOM     15  C   UNL     1       3.700   5.287  17.524  0.00  0.00    +0.000 A 
ATOM     16  C   UNL     1       2.817   5.216  18.598  0.00  0.00    +0.000 A 
ATOM     17  C   UNL     1       2.362   4.094  19.336  0.00  0.00    +0.000 A 
ATOM     18  C   UNL     1       1.657   4.286  20.511  0.00  0.00    +0.000 A 
ATOM     19  F   UNL     1       1.235   3.232  21.223  0.00  0.00    +0.000 F 
ATOM     20  C   UNL     1       1.440   5.560  20.972  0.00  0.00    +0.000 A 
ATOM     21  C   UNL     1       1.886   6.676  20.237  0.00  0.00    +0.000 A 
ATOM     22  C   UNL     1       2.532   6.548  18.978  0.00  0.00    +0.000 A 
ATOM     23  N   UNL     1       3.042   7.424  17.955  0.00  0.00    +0.000 N 
BRANCH  14  24
ATOM     24  C   UNL     1       5.140   6.878  16.393  0.00  0.00    +0.000 C 
ATOM     25  O   UNL     1       5.200   6.509  15.223  0.00  0.00    +0.000 OA
BRANCH  24  26
ATOM     26  O   UNL     1       6.199   7.402  17.064  0.00  0.00    +0.000 OA
BRANCH  26  28
ATOM     27  C   UNL     1       7.450   5.892  18.529  0.00  0.00    +0.000 C 
ATOM     28  C   UNL     1       7.315   6.485  17.132  0.00  0.00    +0.000 C 
ENDBRANCH  26  28
ENDBRANCH  24  26
ENDBRANCH  14  24
ENDBRANCH  13  23
ENDBRANCH   1  13
BRANCH   3  29
ATOM     29  C   UNL     1      -1.009  10.831  18.185  0.00  0.00    +0.000 C 
BRANCH  29  30
ATOM     30  N   UNL     1      -2.299  10.550  17.603  0.00  0.00    +0.000 NA
ATOM     31  C   UNL     1      -2.355   9.904  16.320  0.00  0.00    +0.000 C 
ATOM     32  C   UNL     1      -3.237  10.832  15.517  0.00  0.00    +0.000 C 
ATOM     33  C   UNL     1      -4.235  11.343  16.544  0.00  0.00    +0.000 C 
ATOM     34  C   UNL     1      -3.438  11.413  17.837  0.00  0.00    +0.000 C 
ENDBRANCH  29  30
ENDBRANCH   3  29
TORSDOF 8
ENDMDL
MODEL 4
REMARK VINA RESULT:      -7.9      1.419      2.059
REMARK  Name = 
REMARK  9 active torsions:
REMARK  status: ('A' for Active; 'I' for Inactive)
REMARK    1  A    between atoms: C_1  and  C_2
REMARK    2  A    between atoms: C_2  and  O_3
REMARK    3  A    between atoms: O_3  and  C_4
REMARK    4  A    between atoms: C_4  and  C_6
REMARK    5  A    between atoms: N_15  and  C_16
REMARK    6  A    between atoms: C_16  and  C_17
REMARK    7  A    between atoms: C_19  and  C_20
REMARK    8  A    between atoms: C_20  and  N_21
REMARK    9  A    between atoms: C_26  and  O_27
REMARK                            x       y       z     vdW  Elec       q    Type
REMARK                         _______ _______ _______ _____ _____    ______ ____
ROOT
ATOM      1  C   UNL     1       1.788   9.121  18.640  0.00  0.00    +0.000 A 
ATOM      2  C   UNL     1       0.996   9.951  17.882  0.00  0.00    +0.000 A 
ATOM      3  C   UNL     1       0.336  10.908  18.588  0.00  0.00    +0.000 A 
ATOM      4  C   UNL     1      -0.614  10.185  19.249  0.00  0.00    +0.000 A 
ATOM      5  C   UNL     1      -0.138   9.375  20.230  0.00  0.00    +0.000 A 
ATOM      6  N   UNL     1      -0.978   9.303  21.278  0.00  0.00    +0.000 NA
ATOM      7  C   UNL     1      -0.417   9.340  22.491  0.00  0.00    +0.000 A 
ATOM      8  C   UNL     1       0.954   9.250  22.630  0.00  0.00    +0.000 A 
ATOM      9  C   UNL     1       1.762   8.983  21.466  0.00  0.00    +0.000 A 
ATOM     10  C   UNL     1       1.247   9.021  20.094  0.00  0.00    +0.000 A 
ENDROOT
BRANCH   4  11
ATOM     11  O   UNL     1      -1.864   9.960  18.738  0.00  0.00    +0.000 OA
ATOM     12  H   UNL     1      -1.766  10.076  17.770  0.00  0.00    +0.000 HD
ENDBRANCH   4  11
BRANCH   1  13
ATOM     13  C   UNL     1       2.703   8.224  17.729  0.00  0.00    +0.000 C 
BRANCH  13  23
ATOM     14  C   UNL     1       4.178   6.036  17.450  0.00  0.00    +0.000 A 
ATOM     15  C   UNL     1       4.008   4.671  17.646  0.00  0.00    +0.000 A 
ATOM     16  C   UNL     1       3.007   4.455  18.589  0.00  0.00    +0.000 A 
ATOM     17  C   UNL     1       2.589   3.257  19.222  0.00  0.00    +0.000 A 
ATOM     18  C   UNL     1       1.722   3.315  20.297  0.00  0.00    +0.000 A 
ATOM     19  F   UNL     1       1.333   2.189  20.911  0.00  0.00    +0.000 F 
ATOM     20  C   UNL     1       1.306   4.535  20.769  0.00  0.00    +0.000 A 
ATOM     21  C   UNL     1       1.716   5.727  20.138  0.00  0.00    +0.000 A 
ATOM     22  C   UNL     1       2.528   5.729  18.973  0.00  0.00    +0.000 A 
ATOM     23  N   UNL     1       3.065   6.703  18.058  0.00  0.00    +0.000 N 
BRANCH  14  24
ATOM     24  C   UNL     1       5.394   6.460  16.772  0.00  0.00    +0.000 C 
ATOM     25  O   UNL     1       6.290   7.079  17.341  0.00  0.00    +0.000 OA
BRANCH  24  26
ATOM     26  O   UNL     1       5.360   6.267  15.427  0.00  0.00    +0.000 OA
BRANCH  26  28
ATOM     27  C   UNL     1       5.807   4.076  14.431  0.00  0.00    +0.000 C 
ATOM     28  C   UNL     1       6.400   5.371  14.973  0.00  0.00    +0.000 C 
ENDBRANCH  26  28
ENDBRANCH  24  26
ENDBRANCH  14  24
ENDBRANCH  13  23
ENDBRANCH   1  13
BRANCH   3  29
ATOM     29  C   UNL     1       1.252  11.839  19.511  0.00  0.00    +0.000 C 
BRANCH  29  30
ATOM     30  N   UNL     1       0.683  12.996  20.158  0.00  0.00    +0.000 NA
ATOM     31  C   UNL     1       0.295  12.898  21.540  0.00  0.00    +0.000 C 
ATOM     32  C   UNL     1      -1.142  13.365  21.517  0.00  0.00    +0.000 C 
ATOM     33  C   UNL     1      -1.145  14.438  20.440  0.00  0.00    +0.000 C 
ATOM     34  C   UNL     1      -0.120  13.953  19.427  0.00  0.00    +0.000 C 
ENDBRANCH  29  30
ENDBRANCH   3  29
TORSDOF 8
ENDMDL
MODEL 5
REMARK VINA RESULT:      -7.8      0.904      1.262
REMARK  Name = 
REMARK  9 active torsions:
REMARK  status: ('A' for Active; 'I' for Inactive)
REMARK    1  A    between atoms: C_1  and  C_2
REMARK    2  A    between atoms: C_2  and  O_3
REMARK    3  A    between atoms: O_3  and  C_4
REMARK    4  A    between atoms: C_4  and  C_6
REMARK    5  A    between atoms: N_15  and  C_16
REMARK    6  A    between atoms: C_16  and  C_17
REMARK    7  A    between atoms: C_19  and  C_20
REMARK    8  A    between atoms: C_20  and  N_21
REMARK    9  A    between atoms: C_26  and  O_27
REMARK                            x       y       z     vdW  Elec       q    Type
REMARK                         _______ _______ _______ _____ _____    ______ ____
ROOT
ATOM      1  C   UNL     1       1.821   9.030  18.627  0.00  0.00    +0.000 A 
ATOM      2  C   UNL     1       1.070   9.919  17.896  0.00  0.00    +0.000 A 
ATOM      3  C   UNL     1       0.470  10.895  18.631  0.00  0.00    +0.000 A 
ATOM      4  C   UNL     1      -0.512  10.210  19.284  0.00  0.00    +0.000 A 
ATOM      5  C   UNL     1      -0.074   9.352  20.241  0.00  0.00    +0.000 A 
ATOM      6  N   UNL     1      -0.907   9.302  21.295  0.00  0.00    +0.000 NA
ATOM      7  C   UNL     1      -0.335   9.280  22.503  0.00  0.00    +0.000 A 
ATOM      8  C   UNL     1       1.030   9.111  22.627  0.00  0.00    +0.000 A 
ATOM      9  C   UNL     1       1.812   8.827  21.449  0.00  0.00    +0.000 A 
ATOM     10  C   UNL     1       1.289   8.926  20.083  0.00  0.00    +0.000 A 
ENDROOT
BRANCH   4  11
ATOM     11  O   UNL     1      -1.777  10.066  18.780  0.00  0.00    +0.000 OA
ATOM     12  H   UNL     1      -1.800  10.642  17.986  0.00  0.00    +0.000 HD
ENDBRANCH   4  11
BRANCH   1  13
ATOM     13  C   UNL     1       2.677   8.104  17.686  0.00  0.00    +0.000 C 
BRANCH  13  23
ATOM     14  C   UNL     1       4.059   5.867  17.328  0.00  0.00    +0.000 A 
ATOM     15  C   UNL     1       3.868   4.513  17.568  0.00  0.00    +0.000 A 
ATOM     16  C   UNL     1       2.949   4.346  18.600  0.00  0.00    +0.000 A 
ATOM     17  C   UNL     1       2.555   3.174  19.294  0.00  0.00    +0.000 A 
ATOM     18  C   UNL     1       1.788   3.280  20.441  0.00  0.00    +0.000 A 
ATOM     19  F   UNL     1       1.423   2.179  21.111  0.00  0.00    +0.000 F 
ATOM     20  C   UNL     1       1.451   4.521  20.920  0.00  0.00    +0.000 A 
ATOM     21  C   UNL     1       1.837   5.687  20.229  0.00  0.00    +0.000 A 
ATOM     22  C   UNL     1       2.543   5.642  18.996  0.00  0.00    +0.000 A 
ATOM     23  N   UNL     1       3.024   6.580  18.016  0.00  0.00    +0.000 N 
BRANCH  14  24
ATOM     24  C   UNL     1       5.221   6.241  16.535  0.00  0.00    +0.000 C 
ATOM     25  O   UNL     1       5.134   6.886  15.493  0.00  0.00    +0.000 OA
BRANCH  24  26
ATOM     26  O   UNL     1       6.375   5.660  16.957  0.00  0.00    +0.000 OA
BRANCH  26  28
ATOM     27  C   UNL     1       7.762   6.018  18.943  0.00  0.00    +0.000 C 
ATOM     28  C   UNL     1       7.248   6.596  17.630  0.00  0.00    +0.000 C 
ENDBRANCH  26  28
ENDBRANCH  24  26
ENDBRANCH  14  24
ENDBRANCH  13  23
ENDBRANCH   1  13
BRANCH   3  29
ATOM     29  C   UNL     1       1.445  11.752  19.565  0.00  0.00    +0.000 C 
BRANCH  29  30
ATOM     30  N   UNL     1       1.440  13.192  19.484  0.00  0.00    +0.000 NA
ATOM     31  C   UNL     1       1.911  13.952  20.610  0.00  0.00    +0.000 C 
ATOM     32  C   UNL     1       0.762  14.897  20.879  0.00  0.00    +0.000 C 
ATOM     33  C   UNL     1       0.220  15.195  19.491  0.00  0.00    +0.000 C 
ATOM     34  C   UNL     1       0.436  13.903  18.719  0.00  0.00    +0.000 C 
ENDBRANCH  29  30
ENDBRANCH   3  29
TORSDOF 8
ENDMDL
MODEL 6
REMARK VINA RESULT:      -7.7      3.869      6.664
REMARK  Name = 
REMARK  9 active torsions:
REMARK  status: ('A' for Active; 'I' for Inactive)
REMARK    1  A    between atoms: C_1  and  C_2
REMARK    2  A    between atoms: C_2  and  O_3
REMARK    3  A    between atoms: O_3  and  C_4
REMARK    4  A    between atoms: C_4  and  C_6
REMARK    5  A    between atoms: N_15  and  C_16
REMARK    6  A    between atoms: C_16  and  C_17
REMARK    7  A    between atoms: C_19  and  C_20
REMARK    8  A    between atoms: C_20  and  N_21
REMARK    9  A    between atoms: C_26  and  O_27
REMARK                            x       y       z     vdW  Elec       q    Type
REMARK                         _______ _______ _______ _____ _____    ______ ____
ROOT
ATOM      1  C   UNL     1       3.999   3.410  17.654  0.00  0.00    +0.000 A 
ATOM      2  C   UNL     1       3.160   4.263  16.976  0.00  0.00    +0.000 A 
ATOM      3  C   UNL     1       2.324   4.986  17.770  0.00  0.00    +0.000 A 
ATOM      4  C   UNL     1       1.435   4.042  18.198  0.00  0.00    +0.000 A 
ATOM      5  C   UNL     1       1.943   3.129  19.065  0.00  0.00    +0.000 A 
ATOM      6  N   UNL     1       1.045   2.762  19.996  0.00  0.00    +0.000 NA
ATOM      7  C   UNL     1       1.502   2.642  21.246  0.00  0.00    +0.000 A 
ATOM      8  C   UNL     1       2.858   2.695  21.503  0.00  0.00    +0.000 A 
ATOM      9  C   UNL     1       3.781   2.748  20.395  0.00  0.00    +0.000 A 
ATOM     10  C   UNL     1       3.370   2.977  19.007  0.00  0.00    +0.000 A 
ENDROOT
BRANCH   4  11
ATOM     11  O   UNL     1       0.270   3.766  17.535  0.00  0.00    +0.000 OA
ATOM     12  H   UNL     1       0.445   4.014  16.602  0.00  0.00    +0.000 HD
ENDBRANCH   4  11
BRANCH   1  13
ATOM     13  C   UNL     1       5.095   2.815  16.695  0.00  0.00    +0.000 C 
BRANCH  13  23
ATOM     14  C   UNL     1       7.034   4.603  16.410  0.00  0.00    +0.000 A 
ATOM     15  C   UNL     1       7.467   5.475  15.420  0.00  0.00    +0.000 A 
ATOM     16  C   UNL     1       7.069   5.000  14.173  0.00  0.00    +0.000 A 
ATOM     17  C   UNL     1       7.402   5.455  12.872  0.00  0.00    +0.000 A 
ATOM     18  C   UNL     1       7.069   4.688  11.770  0.00  0.00    +0.000 A 
ATOM     19  F   UNL     1       7.392   5.102  10.538  0.00  0.00    +0.000 F 
ATOM     20  C   UNL     1       6.455   3.473  11.949  0.00  0.00    +0.000 A 
ATOM     21  C   UNL     1       6.117   3.023  13.241  0.00  0.00    +0.000 A 
ATOM     22  C   UNL     1       6.348   3.806  14.404  0.00  0.00    +0.000 A 
ATOM     23  N   UNL     1       6.086   3.707  15.817  0.00  0.00    +0.000 N 
BRANCH  14  24
ATOM     24  C   UNL     1       7.640   4.745  17.727  0.00  0.00    +0.000 C 
ATOM     25  O   UNL     1       8.482   3.959  18.157  0.00  0.00    +0.000 OA
BRANCH  24  26
ATOM     26  O   UNL     1       7.061   5.708  18.490  0.00  0.00    +0.000 OA
BRANCH  26  28
ATOM     27  C   UNL     1       7.843   7.940  17.860  0.00  0.00    +0.000 C 
ATOM     28  C   UNL     1       7.981   6.771  18.827  0.00  0.00    +0.000 C 
ENDBRANCH  26  28
ENDBRANCH  24  26
ENDBRANCH  14  24
ENDBRANCH  13  23
ENDBRANCH   1  13
BRANCH   3  29
ATOM     29  C   UNL     1       3.031   5.833  18.927  0.00  0.00    +0.000 C 
BRANCH  29  30
ATOM     30  N   UNL     1       2.916   7.272  18.940  0.00  0.00    +0.000 NA
ATOM     31  C   UNL     1       2.039   7.889  19.898  0.00  0.00    +0.000 C 
ATOM     32  C   UNL     1       1.159   8.760  19.033  0.00  0.00    +0.000 C 
ATOM     33  C   UNL     1       2.099   9.226  17.933  0.00  0.00    +0.000 C 
ATOM     34  C   UNL     1       3.043   8.051  17.726  0.00  0.00    +0.000 C 
ENDBRANCH  29  30
ENDBRANCH   3  29
TORSDOF 8
ENDMDL
MODEL 7
REMARK VINA RESULT:      -7.7      2.139      3.549
REMARK  Name = 
REMARK  9 active torsions:
REMARK  status: ('A' for Active; 'I' for Inactive)
REMARK    1  A    between atoms: C_1  and  C_2
REMARK    2  A    between atoms: C_2  and  O_3
REMARK    3  A    between atoms: O_3  and  C_4
REMARK    4  A    between atoms: C_4  and  C_6
REMARK    5  A    between atoms: N_15  and  C_16
REMARK    6  A    between atoms: C_16  and  C_17
REMARK    7  A    between atoms: C_19  and  C_20
REMARK    8  A    between atoms: C_20  and  N_21
REMARK    9  A    between atoms: C_26  and  O_27
REMARK                            x       y       z     vdW  Elec       q    Type
REMARK                         _______ _______ _______ _____ _____    ______ ____
ROOT
ATOM      1  C   UNL     1       1.564   8.722  18.600  0.00  0.00    +0.000 A 
ATOM      2  C   UNL     1       0.994   9.720  17.845  0.00  0.00    +0.000 A 
ATOM      3  C   UNL     1       0.689  10.851  18.537  0.00  0.00    +0.000 A 
ATOM      4  C   UNL     1      -0.381  10.459  19.287  0.00  0.00    +0.000 A 
ATOM      5  C   UNL     1      -0.093   9.579  20.281  0.00  0.00    +0.000 A 
ATOM      6  N   UNL     1      -0.844   9.790  21.376  0.00  0.00    +0.000 NA
ATOM      7  C   UNL     1      -0.214   9.703  22.552  0.00  0.00    +0.000 A 
ATOM      8  C   UNL     1       1.079   9.222  22.619  0.00  0.00    +0.000 A 
ATOM      9  C   UNL     1       1.694   8.692  21.426  0.00  0.00    +0.000 A 
ATOM     10  C   UNL     1       1.119   8.833  20.085  0.00  0.00    +0.000 A 
ENDROOT
BRANCH   4  11
ATOM     11  O   UNL     1      -1.675  10.590  18.859  0.00  0.00    +0.000 OA
ATOM     12  H   UNL     1      -1.736  11.507  18.516  0.00  0.00    +0.000 HD
ENDBRANCH   4  11
BRANCH   1  13
ATOM     13  C   UNL     1       2.116   7.566  17.687  0.00  0.00    +0.000 C 
BRANCH  13  23
ATOM     14  C   UNL     1       2.813   5.218  18.707  0.00  0.00    +0.000 A 
ATOM     15  C   UNL     1       3.920   4.687  19.356  0.00  0.00    +0.000 A 
ATOM     16  C   UNL     1       5.056   5.415  19.013  0.00  0.00    +0.000 A 
ATOM     17  C   UNL     1       6.423   5.164  19.296  0.00  0.00    +0.000 A 
ATOM     18  C   UNL     1       7.402   5.905  18.660  0.00  0.00    +0.000 A 
ATOM     19  F   UNL     1       8.697   5.666  18.909  0.00  0.00    +0.000 F 
ATOM     20  C   UNL     1       7.043   6.848  17.729  0.00  0.00    +0.000 A 
ATOM     21  C   UNL     1       5.685   7.103  17.451  0.00  0.00    +0.000 A 
ATOM     22  C   UNL     1       4.632   6.443  18.139  0.00  0.00    +0.000 A 
ATOM     23  N   UNL     1       3.193   6.491  18.170  0.00  0.00    +0.000 N 
BRANCH  14  24
ATOM     24  C   UNL     1       1.612   4.396  18.668  0.00  0.00    +0.000 C 
ATOM     25  O   UNL     1       1.131   3.974  17.619  0.00  0.00    +0.000 OA
BRANCH  24  26
ATOM     26  O   UNL     1       0.984   4.295  19.868  0.00  0.00    +0.000 OA
BRANCH  26  28
ATOM     27  C   UNL     1       1.699   2.739  21.618  0.00  0.00    +0.000 C 
ATOM     28  C   UNL     1       0.902   2.928  20.334  0.00  0.00    +0.000 C 
ENDBRANCH  26  28
ENDBRANCH  24  26
ENDBRANCH  14  24
ENDBRANCH  13  23
ENDBRANCH   1  13
BRANCH   3  29
ATOM     29  C   UNL     1       1.896  11.506  19.357  0.00  0.00    +0.000 C 
BRANCH  29  30
ATOM     30  N   UNL     1       2.103  12.933  19.320  0.00  0.00    +0.000 NA
ATOM     31  C   UNL     1       2.444  13.552  18.067  0.00  0.00    +0.000 C 
ATOM     32  C   UNL     1       3.701  14.320  18.404  0.00  0.00    +0.000 C 
ATOM     33  C   UNL     1       3.461  14.775  19.835  0.00  0.00    +0.000 C 
ATOM     34  C   UNL     1       2.649  13.648  20.454  0.00  0.00    +0.000 C 
ENDBRANCH  29  30
ENDBRANCH   3  29
TORSDOF 8
ENDMDL
MODEL 8
REMARK VINA RESULT:      -7.7      2.063      3.700
REMARK  Name = 
REMARK  9 active torsions:
REMARK  status: ('A' for Active; 'I' for Inactive)
REMARK    1  A    between atoms: C_1  and  C_2
REMARK    2  A    between atoms: C_2  and  O_3
REMARK    3  A    between atoms: O_3  and  C_4
REMARK    4  A    between atoms: C_4  and  C_6
REMARK    5  A    between atoms: N_15  and  C_16
REMARK    6  A    between atoms: C_16  and  C_17
REMARK    7  A    between atoms: C_19  and  C_20
REMARK    8  A    between atoms: C_20  and  N_21
REMARK    9  A    between atoms: C_26  and  O_27
REMARK                            x       y       z     vdW  Elec       q    Type
REMARK                         _______ _______ _______ _____ _____    ______ ____
ROOT
ATOM      1  C   UNL     1       1.818   9.647  18.193  0.00  0.00    +0.000 A 
ATOM      2  C   UNL     1       0.767   8.934  18.719  0.00  0.00    +0.000 A 
ATOM      3  C   UNL     1      -0.264   9.696  19.177  0.00  0.00    +0.000 A 
ATOM      4  C   UNL     1       0.259  10.249  20.310  0.00  0.00    +0.000 A 
ATOM      5  C   UNL     1       1.233  11.172  20.100  0.00  0.00    +0.000 A 
ATOM      6  N   UNL     1       1.183  12.173  20.996  0.00  0.00    +0.000 NA
ATOM      7  C   UNL     1       1.376  13.406  20.519  0.00  0.00    +0.000 A 
ATOM      8  C   UNL     1       1.803  13.594  19.219  0.00  0.00    +0.000 A 
ATOM      9  C   UNL     1       2.165  12.445  18.426  0.00  0.00    +0.000 A 
ATOM     10  C   UNL     1       1.898  11.062  18.831  0.00  0.00    +0.000 A 
ENDROOT
BRANCH   4  11
ATOM     11  O   UNL     1       0.137   9.668  21.543  0.00  0.00    +0.000 OA
ATOM     12  H   UNL     1       0.912   9.072  21.619  0.00  0.00    +0.000 HD
ENDBRANCH   4  11
BRANCH   1  13
ATOM     13  C   UNL     1       2.836   8.698  17.461  0.00  0.00    +0.000 C 
BRANCH  13  23
ATOM     14  C   UNL     1       4.202   6.426  17.339  0.00  0.00    +0.000 A 
ATOM     15  C   UNL     1       3.996   5.102  17.704  0.00  0.00    +0.000 A 
ATOM     16  C   UNL     1       3.059   5.042  18.732  0.00  0.00    +0.000 A 
ATOM     17  C   UNL     1       2.644   3.944  19.528  0.00  0.00    +0.000 A 
ATOM     18  C   UNL     1       1.862   4.164  20.647  0.00  0.00    +0.000 A 
ATOM     19  F   UNL     1       1.476   3.135  21.413  0.00  0.00    +0.000 F 
ATOM     20  C   UNL     1       1.528   5.447  21.001  0.00  0.00    +0.000 A 
ATOM     21  C   UNL     1       1.936   6.539  20.208  0.00  0.00    +0.000 A 
ATOM     22  C   UNL     1       2.659   6.372  18.997  0.00  0.00    +0.000 A 
ATOM     23  N   UNL     1       3.163   7.209  17.940  0.00  0.00    +0.000 N 
BRANCH  14  24
ATOM     24  C   UNL     1       5.380   6.714  16.533  0.00  0.00    +0.000 C 
ATOM     25  O   UNL     1       6.291   7.439  16.925  0.00  0.00    +0.000 OA
BRANCH  24  26
ATOM     26  O   UNL     1       5.289   6.257  15.257  0.00  0.00    +0.000 OA
BRANCH  26  28
ATOM     27  C   UNL     1       5.855   3.982  14.551  0.00  0.00    +0.000 C 
ATOM     28  C   UNL     1       6.376   5.368  14.911  0.00  0.00    +0.000 C 
ENDBRANCH  26  28
ENDBRANCH  24  26
ENDBRANCH  14  24
ENDBRANCH  13  23
ENDBRANCH   1  13
BRANCH   3  29
ATOM     29  C   UNL     1      -0.873  10.737  18.126  0.00  0.00    +0.000 C 
BRANCH  29  30
ATOM     30  N   UNL     1      -2.194  10.527  17.587  0.00  0.00    +0.000 NA
ATOM     31  C   UNL     1      -2.330   9.837  16.332  0.00  0.00    +0.000 C 
ATOM     32  C   UNL     1      -3.165  10.794  15.513  0.00  0.00    +0.000 C 
ATOM     33  C   UNL     1      -4.096  11.415  16.542  0.00  0.00    +0.000 C 
ATOM     34  C   UNL     1      -3.262  11.478  17.812  0.00  0.00    +0.000 C 
ENDBRANCH  29  30
ENDBRANCH   3  29
TORSDOF 8
ENDMDL
MODEL 9
REMARK VINA RESULT:      -7.7      2.652      3.922
REMARK  Name = 
REMARK  9 active torsions:
REMARK  status: ('A' for Active; 'I' for Inactive)
REMARK    1  A    between atoms: C_1  and  C_2
REMARK    2  A    between atoms: C_2  and  O_3
REMARK    3  A    between atoms: O_3  and  C_4
REMARK    4  A    between atoms: C_4  and  C_6
REMARK    5  A    between atoms: N_15  and  C_16
REMARK    6  A    between atoms: C_16  and  C_17
REMARK    7  A    between atoms: C_19  and  C_20
REMARK    8  A    between atoms: C_20  and  N_21
REMARK    9  A    between atoms: C_26  and  O_27
REMARK                            x       y       z     vdW  Elec       q    Type
REMARK                         _______ _______ _______ _____ _____    ______ ____
ROOT
ATOM      1  C   UNL     1       1.835   8.176  19.583  0.00  0.00    +0.000 A 
ATOM      2  C   UNL     1       1.847   8.477  18.241  0.00  0.00    +0.000 A 
ATOM      3  C   UNL     1       1.572   9.777  17.948  0.00  0.00    +0.000 A 
ATOM      4  C   UNL     1       0.237   9.864  18.216  0.00  0.00    +0.000 A 
ATOM      5  C   UNL     1      -0.090   9.786  19.533  0.00  0.00    +0.000 A 
ATOM      6  N   UNL     1      -1.131  10.578  19.842  0.00  0.00    +0.000 NA
ATOM      7  C   UNL     1      -1.038  11.258  20.989  0.00  0.00    +0.000 A 
ATOM      8  C   UNL     1      -0.019  10.989  21.881  0.00  0.00    +0.000 A 
ATOM      9  C   UNL     1       0.864   9.877  21.624  0.00  0.00    +0.000 A 
ATOM     10  C   UNL     1       0.895   9.142  20.356  0.00  0.00    +0.000 A 
ENDROOT
BRANCH   4  11
ATOM     11  O   UNL     1      -0.727   9.638  17.270  0.00  0.00    +0.000 OA
ATOM     12  H   UNL     1      -0.665  10.403  16.659  0.00  0.00    +0.000 HD
ENDBRANCH   4  11
BRANCH   1  13
ATOM     13  C   UNL     1       2.410   6.735  19.845  0.00  0.00    +0.000 C 
BRANCH  13  23
ATOM     14  C   UNL     1       2.387   4.426  18.538  0.00  0.00    +0.000 A 
ATOM     15  C   UNL     1       3.254   3.726  17.709  0.00  0.00    +0.000 A 
ATOM     16  C   UNL     1       4.131   4.614  17.093  0.00  0.00    +0.000 A 
ATOM     17  C   UNL     1       5.079   4.396  16.061  0.00  0.00    +0.000 A 
ATOM     18  C   UNL     1       5.685   5.477  15.446  0.00  0.00    +0.000 A 
ATOM     19  F   UNL     1       6.571   5.282  14.461  0.00  0.00    +0.000 F 
ATOM     20  C   UNL     1       5.331   6.752  15.812  0.00  0.00    +0.000 A 
ATOM     21  C   UNL     1       4.394   6.970  16.841  0.00  0.00    +0.000 A 
ATOM     22  C   UNL     1       3.808   5.904  17.575  0.00  0.00    +0.000 A 
ATOM     23  N   UNL     1       2.906   5.754  18.687  0.00  0.00    +0.000 N 
BRANCH  14  24
ATOM     24  C   UNL     1       1.196   3.724  18.993  0.00  0.00    +0.000 C 
ATOM     25  O   UNL     1       0.471   3.086  18.233  0.00  0.00    +0.000 OA
BRANCH  24  26
ATOM     26  O   UNL     1       0.869   3.990  20.285  0.00  0.00    +0.000 OA
BRANCH  26  28
ATOM     27  C   UNL     1       2.566   2.818  21.604  0.00  0.00    +0.000 C 
ATOM     28  C   UNL     1       1.111   2.862  21.157  0.00  0.00    +0.000 C 
ENDBRANCH  26  28
ENDBRANCH  24  26
ENDBRANCH  14  24
ENDBRANCH  13  23
ENDBRANCH   1  13
BRANCH   3  29
ATOM     29  C   UNL     1       2.489  10.859  18.686  0.00  0.00    +0.000 C 
BRANCH  29  30
ATOM     30  N   UNL     1       2.119  12.254  18.664  0.00  0.00    +0.000 NA
ATOM     31  C   UNL     1       2.583  13.078  17.581  0.00  0.00    +0.000 C 
ATOM     32  C   UNL     1       3.248  14.229  18.299  0.00  0.00    +0.000 C 
ATOM     33  C   UNL     1       2.389  14.412  19.540  0.00  0.00    +0.000 C 
ATOM     34  C   UNL     1       1.930  13.005  19.888  0.00  0.00    +0.000 C 
ENDBRANCH  29  30
ENDBRANCH   3  29
TORSDOF 8
ENDMDL
