MODEL 1
REMARK VINA RESULT:      -8.6      0.000      0.000
REMARK  Name = 
REMARK  9 active torsions:
REMARK  status: ('A' for Active; 'I' for Inactive)
REMARK    1  A    between atoms: C_1  and  N_2
REMARK    2  A    between atoms: N_5  and  C_6
REMARK    3  A    between atoms: C_9  and  C_10
REMARK    4  A    between atoms: C_12  and  C_13
REMARK    5  A    between atoms: C_13  and  S_14
REMARK    6  A    between atoms: S_14  and  C_15
REMARK    7  A    between atoms: C_19  and  N_20
REMARK    8  A    between atoms: C_25  and  C_26
REMARK    9  A    between atoms: C_29  and  C_30
REMARK                            x       y       z     vdW  Elec       q    Type
REMARK                         _______ _______ _______ _____ _____    ______ ____
ROOT
ATOM      1  C   UNL     1       3.263   6.394  19.046  0.00  0.00    +0.000 A 
ATOM      2  N   UNL     1       2.999   5.445  19.969  0.00  0.00    +0.000 NA
ATOM      3  C   UNL     1       3.676   4.284  19.871  0.00  0.00    +0.000 A 
ATOM      4  C   UNL     1       4.628   4.093  18.887  0.00  0.00    +0.000 A 
ATOM      5  C   UNL     1       4.876   5.122  17.993  0.00  0.00    +0.000 A 
ATOM      6  N   UNL     1       4.189   6.274  18.076  0.00  0.00    +0.000 NA
ENDROOT
BRANCH   1  10
ATOM      7  C   UNL     1       0.695   9.876  19.040  0.00  0.00    +0.000 A 
ATOM      8  C   UNL     1       1.317   9.450  17.863  0.00  0.00    +0.000 A 
ATOM      9  C   UNL     1       2.159   8.331  17.865  0.00  0.00    +0.000 A 
ATOM     10  C   UNL     1       2.398   7.596  19.039  0.00  0.00    +0.000 A 
ATOM     11  C   UNL     1       1.741   8.032  20.207  0.00  0.00    +0.000 A 
ATOM     12  C   UNL     1       0.899   9.160  20.229  0.00  0.00    +0.000 A 
ATOM     13  C   UNL     1       0.183   9.512  21.502  0.00  0.00    +0.000 C 
BRANCH   7  18
ATOM     14  C   UNL     1      -0.261  14.641  19.051  0.00  0.00    +0.000 C 
ATOM     15  N   UNL     1      -0.610  13.244  19.090  0.00  0.00    +0.000 N 
ATOM     16  C   UNL     1       0.404  12.307  19.104  0.00  0.00    +0.000 C 
ATOM     17  O   UNL     1       1.591  12.606  19.106  0.00  0.00    +0.000 OA
ATOM     18  N   UNL     1      -0.115  11.031  19.044  0.00  0.00    +0.000 N 
ATOM     19  H   UNL     1      -1.422  12.985  19.632  0.00  0.00    +0.000 HD
ATOM     20  H   UNL     1      -0.979  10.989  18.525  0.00  0.00    +0.000 HD
ENDBRANCH   7  18
ENDBRANCH   1  10
BRANCH   5  21
ATOM     21  N   UNL     1       5.690   4.864  16.883  0.00  0.00    +0.000 N 
ATOM     22  C   UNL     1       4.921   4.327  15.731  0.00  0.00    +0.000 C 
ATOM     23  C   UNL     1       5.905   3.694  14.739  0.00  0.00    +0.000 C 
ATOM     24  O   UNL     1       6.856   4.663  14.267  0.00  0.00    +0.000 OA
ATOM     25  C   UNL     1       7.591   5.220  15.370  0.00  0.00    +0.000 C 
ATOM     26  C   UNL     1       6.658   5.901  16.413  0.00  0.00    +0.000 C 
ATOM     27  C   UNL     1       7.526   6.524  17.500  0.00  0.00    +0.000 C 
ENDBRANCH   5  21
BRANCH   3  28
ATOM     28  C   UNL     1       3.205   3.159  20.742  0.00  0.00    +0.000 C 
BRANCH  28  29
ATOM     29  S   UNL     1       1.434   3.087  20.831  0.00  0.00    +0.000 S 
ATOM     30  C   UNL     1       0.935   2.108  19.432  0.00  0.00    +0.000 C 
ATOM     31  O   UNL     1       1.096   2.322  22.016  0.00  0.00    +0.000 OA
ATOM     32  O   UNL     1       0.893   4.423  20.660  0.00  0.00    +0.000 OA
ENDBRANCH  28  29
ENDBRANCH   3  28
TORSDOF 5
ENDMDL
MODEL 2
REMARK VINA RESULT:      -8.5      1.270      1.277
REMARK  Name = 
REMARK  9 active torsions:
REMARK  status: ('A' for Active; 'I' for Inactive)
REMARK    1  A    between atoms: C_1  and  N_2
REMARK    2  A    between atoms: N_5  and  C_6
REMARK    3  A    between atoms: C_9  and  C_10
REMARK    4  A    between atoms: C_12  and  C_13
REMARK    5  A    between atoms: C_13  and  S_14
REMARK    6  A    between atoms: S_14  and  C_15
REMARK    7  A    between atoms: C_19  and  N_20
REMARK    8  A    between atoms: C_25  and  C_26
REMARK    9  A    between atoms: C_29  and  C_30
REMARK                            x       y       z     vdW  Elec       q    Type
REMARK                         _______ _______ _______ _____ _____    ______ ____
ROOT
ATOM      1  C   UNL     1       3.276   6.329  19.060  0.00  0.00    +0.000 A 
ATOM      2  N   UNL     1       3.044   5.366  19.977  0.00  0.00    +0.000 NA
ATOM      3  C   UNL     1       3.748   4.223  19.862  0.00  0.00    +0.000 A 
ATOM      4  C   UNL     1       4.696   4.064  18.868  0.00  0.00    +0.000 A 
ATOM      5  C   UNL     1       4.910   5.107  17.981  0.00  0.00    +0.000 A 
ATOM      6  N   UNL     1       4.196   6.241  18.081  0.00  0.00    +0.000 NA
ENDROOT
BRANCH   1  10
ATOM      7  C   UNL     1       0.623   9.747  19.109  0.00  0.00    +0.000 A 
ATOM      8  C   UNL     1       1.266   9.363  17.929  0.00  0.00    +0.000 A 
ATOM      9  C   UNL     1       2.135   8.266  17.914  0.00  0.00    +0.000 A 
ATOM     10  C   UNL     1       2.382   7.510  19.072  0.00  0.00    +0.000 A 
ATOM     11  C   UNL     1       1.703   7.902  20.244  0.00  0.00    +0.000 A 
ATOM     12  C   UNL     1       0.833   9.008  20.283  0.00  0.00    +0.000 A 
ATOM     13  C   UNL     1       0.097   9.313  21.557  0.00  0.00    +0.000 C 
BRANCH   7  18
ATOM     14  C   UNL     1      -3.523  12.229  18.584  0.00  0.00    +0.000 C 
ATOM     15  N   UNL     1      -2.116  12.089  18.863  0.00  0.00    +0.000 N 
ATOM     16  C   UNL     1      -1.535  10.843  18.733  0.00  0.00    +0.000 C 
ATOM     17  O   UNL     1      -2.153   9.851  18.371  0.00  0.00    +0.000 OA
ATOM     18  N   UNL     1      -0.215  10.881  19.132  0.00  0.00    +0.000 N 
ATOM     19  H   UNL     1      -1.514  12.858  18.602  0.00  0.00    +0.000 HD
ATOM     20  H   UNL     1      -0.051  11.560  19.860  0.00  0.00    +0.000 HD
ENDBRANCH   7  18
ENDBRANCH   1  10
BRANCH   5  21
ATOM     21  N   UNL     1       5.719   4.879  16.861  0.00  0.00    +0.000 N 
ATOM     22  C   UNL     1       4.953   4.330  15.713  0.00  0.00    +0.000 C 
ATOM     23  C   UNL     1       5.944   3.731  14.706  0.00  0.00    +0.000 C 
ATOM     24  O   UNL     1       6.864   4.728  14.232  0.00  0.00    +0.000 OA
ATOM     25  C   UNL     1       7.594   5.297  15.332  0.00  0.00    +0.000 C 
ATOM     26  C   UNL     1       6.654   5.945  16.389  0.00  0.00    +0.000 C 
ATOM     27  C   UNL     1       7.516   6.584  17.472  0.00  0.00    +0.000 C 
ENDBRANCH   5  21
BRANCH   3  28
ATOM     28  C   UNL     1       3.314   3.079  20.727  0.00  0.00    +0.000 C 
BRANCH  28  29
ATOM     29  S   UNL     1       1.548   3.003  20.886  0.00  0.00    +0.000 S 
ATOM     30  C   UNL     1       0.993   2.053  19.488  0.00  0.00    +0.000 C 
ATOM     31  O   UNL     1       1.259   2.213  22.068  0.00  0.00    +0.000 OA
ATOM     32  O   UNL     1       0.999   4.341  20.766  0.00  0.00    +0.000 OA
ENDBRANCH  28  29
ENDBRANCH   3  28
TORSDOF 5
ENDMDL
MODEL 3
REMARK VINA RESULT:      -8.4      1.633      2.108
REMARK  Name = 
REMARK  9 active torsions:
REMARK  status: ('A' for Active; 'I' for Inactive)
REMARK    1  A    between atoms: C_1  and  N_2
REMARK    2  A    between atoms: N_5  and  C_6
REMARK    3  A    between atoms: C_9  and  C_10
REMARK    4  A    between atoms: C_12  and  C_13
REMARK    5  A    between atoms: C_13  and  S_14
REMARK    6  A    between atoms: S_14  and  C_15
REMARK    7  A    between atoms: C_19  and  N_20
REMARK    8  A    between atoms: C_25  and  C_26
REMARK    9  A    between atoms: C_29  and  C_30
REMARK                            x       y       z     vdW  Elec       q    Type
REMARK                         _______ _______ _______ _____ _____    ______ ____
ROOT
ATOM      1  C   UNL     1       2.513   7.000  19.429  0.00  0.00    +0.000 A 
ATOM      2  N   UNL     1       1.777   5.965  19.885  0.00  0.00    +0.000 NA
ATOM      3  C   UNL     1       2.360   4.750  19.893  0.00  0.00    +0.000 A 
ATOM      4  C   UNL     1       3.671   4.584  19.485  0.00  0.00    +0.000 A 
ATOM      5  C   UNL     1       4.382   5.695  19.062  0.00  0.00    +0.000 A 
ATOM      6  N   UNL     1       3.798   6.905  19.035  0.00  0.00    +0.000 NA
ENDROOT
BRANCH   1  10
ATOM      7  C   UNL     1       0.453  10.769  18.913  0.00  0.00    +0.000 A 
ATOM      8  C   UNL     1       1.173  10.203  17.858  0.00  0.00    +0.000 A 
ATOM      9  C   UNL     1       1.852   8.990  18.026  0.00  0.00    +0.000 A 
ATOM     10  C   UNL     1       1.824   8.298  19.249  0.00  0.00    +0.000 A 
ATOM     11  C   UNL     1       1.072   8.877  20.291  0.00  0.00    +0.000 A 
ATOM     12  C   UNL     1       0.391  10.101  20.146  0.00  0.00    +0.000 A 
ATOM     13  C   UNL     1      -0.446  10.611  21.286  0.00  0.00    +0.000 C 
BRANCH   7  18
ATOM     14  C   UNL     1       0.103  15.616  18.798  0.00  0.00    +0.000 C 
ATOM     15  N   UNL     1      -0.412  14.272  18.729  0.00  0.00    +0.000 N 
ATOM     16  C   UNL     1       0.451  13.218  18.957  0.00  0.00    +0.000 C 
ATOM     17  O   UNL     1       1.633  13.369  19.235  0.00  0.00    +0.000 OA
ATOM     18  N   UNL     1      -0.191  12.014  18.755  0.00  0.00    +0.000 N 
ATOM     19  H   UNL     1      -1.352  14.119  19.066  0.00  0.00    +0.000 HD
ATOM     20  H   UNL     1      -0.911  12.074  18.051  0.00  0.00    +0.000 HD
ENDBRANCH   7  18
ENDBRANCH   1  10
BRANCH   5  21
ATOM     21  N   UNL     1       5.634   5.503  18.465  0.00  0.00    +0.000 N 
ATOM     22  C   UNL     1       6.724   5.374  19.466  0.00  0.00    +0.000 C 
ATOM     23  C   UNL     1       8.067   5.586  18.756  0.00  0.00    +0.000 C 
ATOM     24  O   UNL     1       8.259   4.613  17.715  0.00  0.00    +0.000 OA
ATOM     25  C   UNL     1       7.196   4.697  16.750  0.00  0.00    +0.000 C 
ATOM     26  C   UNL     1       5.798   4.473  17.396  0.00  0.00    +0.000 C 
ATOM     27  C   UNL     1       4.749   4.504  16.290  0.00  0.00    +0.000 C 
ENDBRANCH   5  21
BRANCH   3  28
ATOM     28  C   UNL     1       1.465   3.580  20.167  0.00  0.00    +0.000 C 
BRANCH  28  29
ATOM     29  S   UNL     1       1.163   2.620  18.705  0.00  0.00    +0.000 S 
ATOM     30  C   UNL     1       2.586   1.566  18.536  0.00  0.00    +0.000 C 
ATOM     31  O   UNL     1       0.034   1.754  18.988  0.00  0.00    +0.000 OA
ATOM     32  O   UNL     1       1.119   3.504  17.555  0.00  0.00    +0.000 OA
ENDBRANCH  28  29
ENDBRANCH   3  28
TORSDOF 5
ENDMDL
MODEL 4
REMARK VINA RESULT:      -8.4      2.306      4.868
REMARK  Name = 
REMARK  9 active torsions:
REMARK  status: ('A' for Active; 'I' for Inactive)
REMARK    1  A    between atoms: C_1  and  N_2
REMARK    2  A    between atoms: N_5  and  C_6
REMARK    3  A    between atoms: C_9  and  C_10
REMARK    4  A    between atoms: C_12  and  C_13
REMARK    5  A    between atoms: C_13  and  S_14
REMARK    6  A    between atoms: S_14  and  C_15
REMARK    7  A    between atoms: C_19  and  N_20
REMARK    8  A    between atoms: C_25  and  C_26
REMARK    9  A    between atoms: C_29  and  C_30
REMARK                            x       y       z     vdW  Elec       q    Type
REMARK                         _______ _______ _______ _____ _____    ______ ____
ROOT
ATOM      1  C   UNL     1       2.459   7.669  18.468  0.00  0.00    +0.000 A 
ATOM      2  N   UNL     1       3.405   7.731  17.507  0.00  0.00    +0.000 NA
ATOM      3  C   UNL     1       4.053   6.589  17.206  0.00  0.00    +0.000 A 
ATOM      4  C   UNL     1       3.730   5.397  17.829  0.00  0.00    +0.000 A 
ATOM      5  C   UNL     1       2.723   5.396  18.780  0.00  0.00    +0.000 A 
ATOM      6  N   UNL     1       2.088   6.538  19.098  0.00  0.00    +0.000 NA
ENDROOT
BRANCH   1  10
ATOM      7  C   UNL     1       0.698  11.383  19.817  0.00  0.00    +0.000 A 
ATOM      8  C   UNL     1       1.373  11.319  18.595  0.00  0.00    +0.000 A 
ATOM      9  C   UNL     1       1.955  10.121  18.162  0.00  0.00    +0.000 A 
ATOM     10  C   UNL     1       1.873   8.947  18.930  0.00  0.00    +0.000 A 
ATOM     11  C   UNL     1       1.167   9.032  20.147  0.00  0.00    +0.000 A 
ATOM     12  C   UNL     1       0.583  10.229  20.605  0.00  0.00    +0.000 A 
ATOM     13  C   UNL     1      -0.212  10.212  21.881  0.00  0.00    +0.000 C 
BRANCH   7  18
ATOM     14  C   UNL     1       0.690  15.685  22.078  0.00  0.00    +0.000 C 
ATOM     15  N   UNL     1       0.090  14.598  21.348  0.00  0.00    +0.000 N 
ATOM     16  C   UNL     1       0.861  13.492  21.053  0.00  0.00    +0.000 C 
ATOM     17  O   UNL     1       2.029  13.378  21.400  0.00  0.00    +0.000 OA
ATOM     18  N   UNL     1       0.153  12.602  20.271  0.00  0.00    +0.000 N 
ATOM     19  H   UNL     1      -0.879  14.389  21.543  0.00  0.00    +0.000 HD
ATOM     20  H   UNL     1      -0.512  13.062  19.669  0.00  0.00    +0.000 HD
ENDBRANCH   7  18
ENDBRANCH   1  10
BRANCH   5  21
ATOM     21  N   UNL     1       2.530   4.243  19.551  0.00  0.00    +0.000 N 
ATOM     22  C   UNL     1       2.016   4.552  20.910  0.00  0.00    +0.000 C 
ATOM     23  C   UNL     1       2.227   3.321  21.803  0.00  0.00    +0.000 C 
ATOM     24  O   UNL     1       1.531   2.179  21.278  0.00  0.00    +0.000 OA
ATOM     25  C   UNL     1       1.990   1.881  19.948  0.00  0.00    +0.000 C 
ATOM     26  C   UNL     1       1.790   3.080  18.976  0.00  0.00    +0.000 C 
ATOM     27  C   UNL     1       2.232   2.647  17.583  0.00  0.00    +0.000 C 
ENDBRANCH   5  21
BRANCH   3  28
ATOM     28  C   UNL     1       5.257   6.715  16.322  0.00  0.00    +0.000 C 
BRANCH  28  29
ATOM     29  S   UNL     1       6.744   6.224  17.157  0.00  0.00    +0.000 S 
ATOM     30  C   UNL     1       7.077   4.573  16.585  0.00  0.00    +0.000 C 
ATOM     31  O   UNL     1       7.814   7.064  16.653  0.00  0.00    +0.000 OA
ATOM     32  O   UNL     1       6.493   6.162  18.585  0.00  0.00    +0.000 OA
ENDBRANCH  28  29
ENDBRANCH   3  28
TORSDOF 5
ENDMDL
MODEL 5
REMARK VINA RESULT:      -8.3      3.523      9.337
REMARK  Name = 
REMARK  9 active torsions:
REMARK  status: ('A' for Active; 'I' for Inactive)
REMARK    1  A    between atoms: C_1  and  N_2
REMARK    2  A    between atoms: N_5  and  C_6
REMARK    3  A    between atoms: C_9  and  C_10
REMARK    4  A    between atoms: C_12  and  C_13
REMARK    5  A    between atoms: C_13  and  S_14
REMARK    6  A    between atoms: S_14  and  C_15
REMARK    7  A    between atoms: C_19  and  N_20
REMARK    8  A    between atoms: C_25  and  C_26
REMARK    9  A    between atoms: C_29  and  C_30
REMARK                            x       y       z     vdW  Elec       q    Type
REMARK                         _______ _______ _______ _____ _____    ______ ____
ROOT
ATOM      1  C   UNL     1       0.579  10.127  19.353  0.00  0.00    +0.000 A 
ATOM      2  N   UNL     1       1.147  11.226  19.893  0.00  0.00    +0.000 NA
ATOM      3  C   UNL     1       0.522  12.403  19.695  0.00  0.00    +0.000 A 
ATOM      4  C   UNL     1      -0.671  12.471  19.001  0.00  0.00    +0.000 A 
ATOM      5  C   UNL     1      -1.219  11.300  18.504  0.00  0.00    +0.000 A 
ATOM      6  N   UNL     1      -0.589  10.126  18.683  0.00  0.00    +0.000 NA
ENDROOT
BRANCH   1  10
ATOM      7  C   UNL     1       2.806   6.420  19.479  0.00  0.00    +0.000 A 
ATOM      8  C   UNL     1       1.941   6.765  20.521  0.00  0.00    +0.000 A 
ATOM      9  C   UNL     1       1.229   7.970  20.488  0.00  0.00    +0.000 A 
ATOM     10  C   UNL     1       1.350   8.864  19.411  0.00  0.00    +0.000 A 
ATOM     11  C   UNL     1       2.211   8.483  18.362  0.00  0.00    +0.000 A 
ATOM     12  C   UNL     1       2.943   7.280  18.380  0.00  0.00    +0.000 A 
ATOM     13  C   UNL     1       3.784   6.920  17.187  0.00  0.00    +0.000 C 
BRANCH   7  18
ATOM     14  C   UNL     1       3.699   1.686  18.833  0.00  0.00    +0.000 C 
ATOM     15  N   UNL     1       4.004   3.017  19.293  0.00  0.00    +0.000 N 
ATOM     16  C   UNL     1       3.057   4.008  19.130  0.00  0.00    +0.000 C 
ATOM     17  O   UNL     1       1.958   3.808  18.631  0.00  0.00    +0.000 OA
ATOM     18  N   UNL     1       3.557   5.227  19.537  0.00  0.00    +0.000 N 
ATOM     19  H   UNL     1       4.552   3.100  20.137  0.00  0.00    +0.000 HD
ATOM     20  H   UNL     1       4.553   5.303  19.394  0.00  0.00    +0.000 HD
ENDBRANCH   7  18
ENDBRANCH   1  10
BRANCH   5  21
ATOM     21  N   UNL     1      -2.315  11.387  17.637  0.00  0.00    +0.000 N 
ATOM     22  C   UNL     1      -2.187  10.475  16.471  0.00  0.00    +0.000 C 
ATOM     23  C   UNL     1      -3.182  10.921  15.392  0.00  0.00    +0.000 C 
ATOM     24  O   UNL     1      -4.531  10.878  15.884  0.00  0.00    +0.000 OA
ATOM     25  C   UNL     1      -4.671  11.729  17.035  0.00  0.00    +0.000 C 
ATOM     26  C   UNL     1      -3.704  11.325  18.185  0.00  0.00    +0.000 C 
ATOM     27  C   UNL     1      -3.976  12.230  19.381  0.00  0.00    +0.000 C 
ENDBRANCH   5  21
BRANCH   3  28
ATOM     28  C   UNL     1       1.279  13.637  20.084  0.00  0.00    +0.000 C 
BRANCH  28  29
ATOM     29  S   UNL     1       0.778  14.248  21.673  0.00  0.00    +0.000 S 
ATOM     30  C   UNL     1      -0.368  15.564  21.326  0.00  0.00    +0.000 C 
ATOM     31  O   UNL     1       0.018  13.193  22.317  0.00  0.00    +0.000 OA
ATOM     32  O   UNL     1       1.927  14.821  22.349  0.00  0.00    +0.000 OA
ENDBRANCH  28  29
ENDBRANCH   3  28
TORSDOF 5
ENDMDL
MODEL 6
REMARK VINA RESULT:      -8.3      2.158      4.903
REMARK  Name = 
REMARK  9 active torsions:
REMARK  status: ('A' for Active; 'I' for Inactive)
REMARK    1  A    between atoms: C_1  and  N_2
REMARK    2  A    between atoms: N_5  and  C_6
REMARK    3  A    between atoms: C_9  and  C_10
REMARK    4  A    between atoms: C_12  and  C_13
REMARK    5  A    between atoms: C_13  and  S_14
REMARK    6  A    between atoms: S_14  and  C_15
REMARK    7  A    between atoms: C_19  and  N_20
REMARK    8  A    between atoms: C_25  and  C_26
REMARK    9  A    between atoms: C_29  and  C_30
REMARK                            x       y       z     vdW  Elec       q    Type
REMARK                         _______ _______ _______ _____ _____    ______ ____
ROOT
ATOM      1  C   UNL     1       2.777   7.706  17.990  0.00  0.00    +0.000 A 
ATOM      2  N   UNL     1       3.989   7.762  17.397  0.00  0.00    +0.000 NA
ATOM      3  C   UNL     1       4.757   6.657  17.460  0.00  0.00    +0.000 A 
ATOM      4  C   UNL     1       4.303   5.504  18.073  0.00  0.00    +0.000 A 
ATOM      5  C   UNL     1       3.034   5.502  18.629  0.00  0.00    +0.000 A 
ATOM      6  N   UNL     1       2.272   6.609  18.586  0.00  0.00    +0.000 NA
ENDROOT
BRANCH   1  10
ATOM      7  C   UNL     1       0.500  11.378  18.210  0.00  0.00    +0.000 A 
ATOM      8  C   UNL     1       1.897  11.408  18.189  0.00  0.00    +0.000 A 
ATOM      9  C   UNL     1       2.636  10.220  18.131  0.00  0.00    +0.000 A 
ATOM     10  C   UNL     1       2.005   8.966  18.082  0.00  0.00    +0.000 A 
ATOM     11  C   UNL     1       0.596   8.963  18.081  0.00  0.00    +0.000 A 
ATOM     12  C   UNL     1      -0.166  10.145  18.149  0.00  0.00    +0.000 A 
ATOM     13  C   UNL     1      -1.664  10.053  18.072  0.00  0.00    +0.000 C 
BRANCH   7  18
ATOM     14  C   UNL     1      -1.512  15.182  20.470  0.00  0.00    +0.000 C 
ATOM     15  N   UNL     1      -1.231  14.343  19.333  0.00  0.00    +0.000 N 
ATOM     16  C   UNL     1      -0.490  13.194  19.523  0.00  0.00    +0.000 C 
ATOM     17  O   UNL     1      -0.073  12.839  20.617  0.00  0.00    +0.000 OA
ATOM     18  N   UNL     1      -0.241  12.573  18.316  0.00  0.00    +0.000 N 
ATOM     19  H   UNL     1      -1.952  14.261  18.630  0.00  0.00    +0.000 HD
ATOM     20  H   UNL     1      -0.169  13.228  17.552  0.00  0.00    +0.000 HD
ENDBRANCH   7  18
ENDBRANCH   1  10
BRANCH   5  21
ATOM     21  N   UNL     1       2.649   4.411  19.419  0.00  0.00    +0.000 N 
ATOM     22  C   UNL     1       2.105   4.831  20.735  0.00  0.00    +0.000 C 
ATOM     23  C   UNL     1       2.103   3.615  21.672  0.00  0.00    +0.000 C 
ATOM     24  O   UNL     1       1.294   2.554  21.138  0.00  0.00    +0.000 OA
ATOM     25  C   UNL     1       1.784   2.154  19.847  0.00  0.00    +0.000 C 
ATOM     26  C   UNL     1       1.797   3.334  18.832  0.00  0.00    +0.000 C 
ATOM     27  C   UNL     1       2.256   2.799  17.481  0.00  0.00    +0.000 C 
ENDBRANCH   5  21
BRANCH   3  28
ATOM     28  C   UNL     1       6.182   6.806  17.019  0.00  0.00    +0.000 C 
BRANCH  28  29
ATOM     29  S   UNL     1       6.774   5.353  16.190  0.00  0.00    +0.000 S 
ATOM     30  C   UNL     1       5.361   4.699  15.328  0.00  0.00    +0.000 C 
ATOM     31  O   UNL     1       7.714   5.792  15.176  0.00  0.00    +0.000 OA
ATOM     32  O   UNL     1       7.188   4.375  17.178  0.00  0.00    +0.000 OA
ENDBRANCH  28  29
ENDBRANCH   3  28
TORSDOF 5
ENDMDL
MODEL 7
REMARK VINA RESULT:      -8.2      2.333      4.784
REMARK  Name = 
REMARK  9 active torsions:
REMARK  status: ('A' for Active; 'I' for Inactive)
REMARK    1  A    between atoms: C_1  and  N_2
REMARK    2  A    between atoms: N_5  and  C_6
REMARK    3  A    between atoms: C_9  and  C_10
REMARK    4  A    between atoms: C_12  and  C_13
REMARK    5  A    between atoms: C_13  and  S_14
REMARK    6  A    between atoms: S_14  and  C_15
REMARK    7  A    between atoms: C_19  and  N_20
REMARK    8  A    between atoms: C_25  and  C_26
REMARK    9  A    between atoms: C_29  and  C_30
REMARK                            x       y       z     vdW  Elec       q    Type
REMARK                         _______ _______ _______ _____ _____    ______ ____
ROOT
ATOM      1  C   UNL     1       2.568   7.303  18.612  0.00  0.00    +0.000 A 
ATOM      2  N   UNL     1       3.459   7.481  17.613  0.00  0.00    +0.000 NA
ATOM      3  C   UNL     1       4.229   6.427  17.279  0.00  0.00    +0.000 A 
ATOM      4  C   UNL     1       4.083   5.206  17.911  0.00  0.00    +0.000 A 
ATOM      5  C   UNL     1       3.125   5.081  18.903  0.00  0.00    +0.000 A 
ATOM      6  N   UNL     1       2.367   6.135  19.252  0.00  0.00    +0.000 NA
ENDROOT
BRANCH   1  10
ATOM      7  C   UNL     1       0.421  10.770  20.055  0.00  0.00    +0.000 A 
ATOM      8  C   UNL     1       0.928  10.740  18.753  0.00  0.00    +0.000 A 
ATOM      9  C   UNL     1       1.635   9.624  18.289  0.00  0.00    +0.000 A 
ATOM     10  C   UNL     1       1.848   8.500  19.104  0.00  0.00    +0.000 A 
ATOM     11  C   UNL     1       1.307   8.545  20.405  0.00  0.00    +0.000 A 
ATOM     12  C   UNL     1       0.602   9.661  20.895  0.00  0.00    +0.000 A 
ATOM     13  C   UNL     1      -0.002   9.597  22.270  0.00  0.00    +0.000 C 
BRANCH   7  18
ATOM     14  C   UNL     1       0.014  15.149  22.125  0.00  0.00    +0.000 C 
ATOM     15  N   UNL     1      -0.493  13.938  21.532  0.00  0.00    +0.000 N 
ATOM     16  C   UNL     1       0.403  12.951  21.171  0.00  0.00    +0.000 C 
ATOM     17  O   UNL     1       1.610  13.044  21.350  0.00  0.00    +0.000 OA
ATOM     18  N   UNL     1      -0.249  11.915  20.536  0.00  0.00    +0.000 N 
ATOM     19  H   UNL     1      -1.378  13.592  21.873  0.00  0.00    +0.000 HD
ATOM     20  H   UNL     1      -1.057  12.226  20.019  0.00  0.00    +0.000 HD
ENDBRANCH   7  18
ENDBRANCH   1  10
BRANCH   5  21
ATOM     21  N   UNL     1       3.108   3.913  19.676  0.00  0.00    +0.000 N 
ATOM     22  C   UNL     1       4.473   3.458  20.042  0.00  0.00    +0.000 C 
ATOM     23  C   UNL     1       4.393   1.998  20.507  0.00  0.00    +0.000 C 
ATOM     24  O   UNL     1       3.526   1.867  21.646  0.00  0.00    +0.000 OA
ATOM     25  C   UNL     1       2.205   2.334  21.325  0.00  0.00    +0.000 C 
ATOM     26  C   UNL     1       2.203   3.819  20.861  0.00  0.00    +0.000 C 
ATOM     27  C   UNL     1       0.759   4.244  20.617  0.00  0.00    +0.000 C 
ENDBRANCH   5  21
BRANCH   3  28
ATOM     28  C   UNL     1       5.370   6.701  16.347  0.00  0.00    +0.000 C 
BRANCH  28  29
ATOM     29  S   UNL     1       6.931   6.255  17.063  0.00  0.00    +0.000 S 
ATOM     30  C   UNL     1       7.292   4.635  16.423  0.00  0.00    +0.000 C 
ATOM     31  O   UNL     1       7.928   7.152  16.510  0.00  0.00    +0.000 OA
ATOM     32  O   UNL     1       6.783   6.146  18.502  0.00  0.00    +0.000 OA
ENDBRANCH  28  29
ENDBRANCH   3  28
TORSDOF 5
ENDMDL
MODEL 8
REMARK VINA RESULT:      -8.2      2.340      4.870
REMARK  Name = 
REMARK  9 active torsions:
REMARK  status: ('A' for Active; 'I' for Inactive)
REMARK    1  A    between atoms: C_1  and  N_2
REMARK    2  A    between atoms: N_5  and  C_6
REMARK    3  A    between atoms: C_9  and  C_10
REMARK    4  A    between atoms: C_12  and  C_13
REMARK    5  A    between atoms: C_13  and  S_14
REMARK    6  A    between atoms: S_14  and  C_15
REMARK    7  A    between atoms: C_19  and  N_20
REMARK    8  A    between atoms: C_25  and  C_26
REMARK    9  A    between atoms: C_29  and  C_30
REMARK                            x       y       z     vdW  Elec       q    Type
REMARK                         _______ _______ _______ _____ _____    ______ ____
ROOT
ATOM      1  C   UNL     1       2.420   7.649  18.522  0.00  0.00    +0.000 A 
ATOM      2  N   UNL     1       3.367   7.739  17.564  0.00  0.00    +0.000 NA
ATOM      3  C   UNL     1       4.032   6.611  17.246  0.00  0.00    +0.000 A 
ATOM      4  C   UNL     1       3.726   5.406  17.852  0.00  0.00    +0.000 A 
ATOM      5  C   UNL     1       2.718   5.376  18.801  0.00  0.00    +0.000 A 
ATOM      6  N   UNL     1       2.065   6.503  19.134  0.00  0.00    +0.000 NA
ENDROOT
BRANCH   1  10
ATOM      7  C   UNL     1       0.602  11.314  19.927  0.00  0.00    +0.000 A 
ATOM      8  C   UNL     1       1.153  11.241  18.645  0.00  0.00    +0.000 A 
ATOM      9  C   UNL     1       1.754  10.059  18.193  0.00  0.00    +0.000 A 
ATOM     10  C   UNL     1       1.814   8.912  19.001  0.00  0.00    +0.000 A 
ATOM     11  C   UNL     1       1.230   9.004  20.281  0.00  0.00    +0.000 A 
ATOM     12  C   UNL     1       0.630  10.185  20.759  0.00  0.00    +0.000 A 
ATOM     13  C   UNL     1      -0.030  10.174  22.109  0.00  0.00    +0.000 C 
BRANCH   7  18
ATOM     14  C   UNL     1      -2.938  14.521  20.829  0.00  0.00    +0.000 C 
ATOM     15  N   UNL     1      -1.572  14.064  20.802  0.00  0.00    +0.000 N 
ATOM     16  C   UNL     1      -1.296  12.829  20.248  0.00  0.00    +0.000 C 
ATOM     17  O   UNL     1      -2.155  12.108  19.758  0.00  0.00    +0.000 OA
ATOM     18  N   UNL     1       0.040  12.520  20.397  0.00  0.00    +0.000 N 
ATOM     19  H   UNL     1      -0.855  14.758  20.647  0.00  0.00    +0.000 HD
ATOM     20  H   UNL     1       0.437  12.917  21.234  0.00  0.00    +0.000 HD
ENDBRANCH   7  18
ENDBRANCH   1  10
BRANCH   5  21
ATOM     21  N   UNL     1       2.540   4.209  19.554  0.00  0.00    +0.000 N 
ATOM     22  C   UNL     1       2.018   4.490  20.917  0.00  0.00    +0.000 C 
ATOM     23  C   UNL     1       2.246   3.250  21.791  0.00  0.00    +0.000 C 
ATOM     24  O   UNL     1       1.569   2.104  21.248  0.00  0.00    +0.000 OA
ATOM     25  C   UNL     1       2.036   1.834  19.915  0.00  0.00    +0.000 C 
ATOM     26  C   UNL     1       1.820   3.043  18.961  0.00  0.00    +0.000 C 
ATOM     27  C   UNL     1       2.272   2.638  17.562  0.00  0.00    +0.000 C 
ENDBRANCH   5  21
BRANCH   3  28
ATOM     28  C   UNL     1       5.236   6.769  16.368  0.00  0.00    +0.000 C 
BRANCH  28  29
ATOM     29  S   UNL     1       6.725   6.260  17.187  0.00  0.00    +0.000 S 
ATOM     30  C   UNL     1       7.057   4.622  16.578  0.00  0.00    +0.000 C 
ATOM     31  O   UNL     1       7.794   7.111  16.700  0.00  0.00    +0.000 OA
ATOM     32  O   UNL     1       6.477   6.166  18.614  0.00  0.00    +0.000 OA
ENDBRANCH  28  29
ENDBRANCH   3  28
TORSDOF 5
ENDMDL
MODEL 9
REMARK VINA RESULT:      -8.2      2.149      4.973
REMARK  Name = 
REMARK  9 active torsions:
REMARK  status: ('A' for Active; 'I' for Inactive)
REMARK    1  A    between atoms: C_1  and  N_2
REMARK    2  A    between atoms: N_5  and  C_6
REMARK    3  A    between atoms: C_9  and  C_10
REMARK    4  A    between atoms: C_12  and  C_13
REMARK    5  A    between atoms: C_13  and  S_14
REMARK    6  A    between atoms: S_14  and  C_15
REMARK    7  A    between atoms: C_19  and  N_20
REMARK    8  A    between atoms: C_25  and  C_26
REMARK    9  A    between atoms: C_29  and  C_30
REMARK                            x       y       z     vdW  Elec       q    Type
REMARK                         _______ _______ _______ _____ _____    ______ ____
ROOT
ATOM      1  C   UNL     1       2.722   7.719  18.001  0.00  0.00    +0.000 A 
ATOM      2  N   UNL     1       3.928   7.783  17.397  0.00  0.00    +0.000 NA
ATOM      3  C   UNL     1       4.704   6.683  17.451  0.00  0.00    +0.000 A 
ATOM      4  C   UNL     1       4.263   5.527  18.067  0.00  0.00    +0.000 A 
ATOM      5  C   UNL     1       3.000   5.516  18.636  0.00  0.00    +0.000 A 
ATOM      6  N   UNL     1       2.230   6.618  18.601  0.00  0.00    +0.000 NA
ENDROOT
BRANCH   1  10
ATOM      7  C   UNL     1       0.474  11.399  18.340  0.00  0.00    +0.000 A 
ATOM      8  C   UNL     1      -0.172  10.162  18.418  0.00  0.00    +0.000 A 
ATOM      9  C   UNL     1       0.552   8.970  18.296  0.00  0.00    +0.000 A 
ATOM     10  C   UNL     1       1.943   8.974  18.102  0.00  0.00    +0.000 A 
ATOM     11  C   UNL     1       2.575  10.233  18.050  0.00  0.00    +0.000 A 
ATOM     12  C   UNL     1       1.864  11.444  18.161  0.00  0.00    +0.000 A 
ATOM     13  C   UNL     1       2.626  12.739  18.165  0.00  0.00    +0.000 C 
BRANCH   7  18
ATOM     14  C   UNL     1      -1.695  15.159  20.528  0.00  0.00    +0.000 C 
ATOM     15  N   UNL     1      -1.325  14.349  19.395  0.00  0.00    +0.000 N 
ATOM     16  C   UNL     1      -0.611  13.188  19.615  0.00  0.00    +0.000 C 
ATOM     17  O   UNL     1      -0.292  12.799  20.730  0.00  0.00    +0.000 OA
ATOM     18  N   UNL     1      -0.265  12.599  18.417  0.00  0.00    +0.000 N 
ATOM     19  H   UNL     1      -1.984  14.294  18.631  0.00  0.00    +0.000 HD
ATOM     20  H   UNL     1      -0.123  13.274  17.681  0.00  0.00    +0.000 HD
ENDBRANCH   7  18
ENDBRANCH   1  10
BRANCH   5  21
ATOM     21  N   UNL     1       2.630   4.422  19.427  0.00  0.00    +0.000 N 
ATOM     22  C   UNL     1       2.086   4.836  20.746  0.00  0.00    +0.000 C 
ATOM     23  C   UNL     1       2.101   3.622  21.684  0.00  0.00    +0.000 C 
ATOM     24  O   UNL     1       1.302   2.552  21.154  0.00  0.00    +0.000 OA
ATOM     25  C   UNL     1       1.791   2.156  19.861  0.00  0.00    +0.000 C 
ATOM     26  C   UNL     1       1.787   3.335  18.845  0.00  0.00    +0.000 C 
ATOM     27  C   UNL     1       2.246   2.804  17.492  0.00  0.00    +0.000 C 
ENDBRANCH   5  21
BRANCH   3  28
ATOM     28  C   UNL     1       6.123   6.842  16.995  0.00  0.00    +0.000 C 
BRANCH  28  29
ATOM     29  S   UNL     1       6.719   5.390  16.167  0.00  0.00    +0.000 S 
ATOM     30  C   UNL     1       5.342   4.804  15.204  0.00  0.00    +0.000 C 
ATOM     31  O   UNL     1       7.733   5.822  15.224  0.00  0.00    +0.000 OA
ATOM     32  O   UNL     1       7.041   4.376  17.154  0.00  0.00    +0.000 OA
ENDBRANCH  28  29
ENDBRANCH   3  28
TORSDOF 5
ENDMDL
