MODEL 1
REMARK VINA RESULT:      -7.5      0.000      0.000
REMARK  Name = 
REMARK  3 active torsions:
REMARK  status: ('A' for Active; 'I' for Inactive)
REMARK    1  A    between atoms: C_3  and  C_4
REMARK    2  A    between atoms: C_13  and  C_14
REMARK    3  A    between atoms: N_25  and  C_26
REMARK                            x       y       z     vdW  Elec       q    Type
REMARK                         _______ _______ _______ _____ _____    ______ ____
ROOT
ATOM      1  O   UNL     1       2.175  13.336  17.992  0.00  0.00    +0.000 OA
ATOM      2  C   UNL     1       1.758  13.371  19.139  0.00  0.00    +0.000 C 
ATOM      3  C   UNL     1       0.750  12.422  19.658  0.00  0.00    +0.000 C 
ATOM      4  C   UNL     1       0.500  12.752  20.924  0.00  0.00    +0.000 C 
ATOM      5  C   UNL     1       1.374  13.887  21.280  0.00  0.00    +0.000 C 
ATOM      6  O   UNL     1       1.343  14.438  22.369  0.00  0.00    +0.000 OA
ATOM      7  N   UNL     1       2.109  14.205  20.167  0.00  0.00    +0.000 N 
ENDROOT
BRANCH   3   8
ATOM      8  C   UNL     1       0.201  11.377  18.875  0.00  0.00    +0.000 A 
ATOM      9  C   UNL     1       0.927  10.309  18.399  0.00  0.00    +0.000 A 
ATOM     10  N   UNL     1       0.081   9.534  17.650  0.00  0.00    +0.000 N 
ATOM     11  C   UNL     1      -1.180  10.088  17.629  0.00  0.00    +0.000 A 
ATOM     12  C   UNL     1      -2.342   9.656  16.979  0.00  0.00    +0.000 A 
ATOM     13  C   UNL     1      -3.492  10.436  17.124  0.00  0.00    +0.000 A 
ATOM     14  C   UNL     1      -3.482  11.596  17.894  0.00  0.00    +0.000 A 
ATOM     15  C   UNL     1      -2.313  12.015  18.540  0.00  0.00    +0.000 A 
ATOM     16  C   UNL     1      -1.135  11.251  18.403  0.00  0.00    +0.000 A 
ATOM     17  H   UNL     1       0.342   8.688  17.164  0.00  0.00    +0.000 HD
ENDBRANCH   3   8
BRANCH   4  18
ATOM     18  C   UNL     1      -0.416  12.179  21.841  0.00  0.00    +0.000 A 
ATOM     19  N   UNL     1      -0.155  11.073  22.558  0.00  0.00    +0.000 NA
ATOM     20  N   UNL     1      -1.260  10.916  23.316  0.00  0.00    +0.000 N 
ATOM     21  C   UNL     1      -2.227  11.851  23.090  0.00  0.00    +0.000 A 
ATOM     22  N   UNL     1      -3.425  11.920  23.700  0.00  0.00    +0.000 NA
ATOM     23  C   UNL     1      -4.170  12.962  23.265  0.00  0.00    +0.000 A 
ATOM     24  C   UNL     1      -3.788  13.884  22.297  0.00  0.00    +0.000 A 
ATOM     25  C   UNL     1      -2.530  13.764  21.699  0.00  0.00    +0.000 A 
ATOM     26  C   UNL     1      -1.716  12.698  22.120  0.00  0.00    +0.000 A 
ATOM     27  H   UNL     1      -1.305  10.151  23.976  0.00  0.00    +0.000 HD
ENDBRANCH   4  18
BRANCH   7  28
ATOM     28  C   UNL     1       3.082  15.238  20.089  0.00  0.00    +0.000 A 
ATOM     29  C   UNL     1       4.452  14.942  20.016  0.00  0.00    +0.000 A 
ATOM     30  C   UNL     1       5.413  15.957  19.961  0.00  0.00    +0.000 A 
ATOM     31  C   UNL     1       5.022  17.291  19.995  0.00  0.00    +0.000 A 
ATOM     32  C   UNL     1       3.670  17.608  20.066  0.00  0.00    +0.000 A 
ATOM     33  C   UNL     1       2.708  16.590  20.100  0.00  0.00    +0.000 A 
ENDBRANCH   7  28
TORSDOF 3
ENDMDL
MODEL 2
REMARK VINA RESULT:      -7.1      5.574      8.871
REMARK  Name = 
REMARK  3 active torsions:
REMARK  status: ('A' for Active; 'I' for Inactive)
REMARK    1  A    between atoms: C_3  and  C_4
REMARK    2  A    between atoms: C_13  and  C_14
REMARK    3  A    between atoms: N_25  and  C_26
REMARK                            x       y       z     vdW  Elec       q    Type
REMARK                         _______ _______ _______ _____ _____    ______ ____
ROOT
ATOM      1  O   UNL     1       0.597   7.527  20.879  0.00  0.00    +0.000 OA
ATOM      2  C   UNL     1       1.323   7.836  19.947  0.00  0.00    +0.000 C 
ATOM      3  C   UNL     1       2.273   6.891  19.320  0.00  0.00    +0.000 C 
ATOM      4  C   UNL     1       2.921   7.550  18.360  0.00  0.00    +0.000 C 
ATOM      5  C   UNL     1       2.376   8.920  18.299  0.00  0.00    +0.000 C 
ATOM      6  O   UNL     1       2.802   9.775  17.539  0.00  0.00    +0.000 OA
ATOM      7  N   UNL     1       1.416   9.024  19.273  0.00  0.00    +0.000 N 
ENDROOT
BRANCH   3   8
ATOM      8  C   UNL     1       2.403   5.543  19.733  0.00  0.00    +0.000 A 
ATOM      9  C   UNL     1       2.546   5.149  21.044  0.00  0.00    +0.000 A 
ATOM     10  N   UNL     1       2.690   3.786  21.053  0.00  0.00    +0.000 N 
ATOM     11  C   UNL     1       2.649   3.293  19.767  0.00  0.00    +0.000 A 
ATOM     12  C   UNL     1       2.776   1.979  19.304  0.00  0.00    +0.000 A 
ATOM     13  C   UNL     1       2.708   1.771  17.924  0.00  0.00    +0.000 A 
ATOM     14  C   UNL     1       2.513   2.833  17.045  0.00  0.00    +0.000 A 
ATOM     15  C   UNL     1       2.386   4.142  17.524  0.00  0.00    +0.000 A 
ATOM     16  C   UNL     1       2.460   4.382  18.912  0.00  0.00    +0.000 A 
ATOM     17  H   UNL     1       2.827   3.221  21.879  0.00  0.00    +0.000 HD
ENDBRANCH   3   8
BRANCH   4  18
ATOM     18  C   UNL     1       3.957   7.102  17.501  0.00  0.00    +0.000 A 
ATOM     19  N   UNL     1       3.955   7.298  16.173  0.00  0.00    +0.000 NA
ATOM     20  N   UNL     1       5.126   6.763  15.770  0.00  0.00    +0.000 N 
ATOM     21  C   UNL     1       5.857   6.204  16.776  0.00  0.00    +0.000 A 
ATOM     22  N   UNL     1       7.052   5.596  16.649  0.00  0.00    +0.000 NA
ATOM     23  C   UNL     1       7.532   5.141  17.830  0.00  0.00    +0.000 A 
ATOM     24  C   UNL     1       6.898   5.261  19.062  0.00  0.00    +0.000 A 
ATOM     25  C   UNL     1       5.660   5.904  19.134  0.00  0.00    +0.000 A 
ATOM     26  C   UNL     1       5.120   6.398  17.934  0.00  0.00    +0.000 A 
ATOM     27  H   UNL     1       5.382   6.805  14.792  0.00  0.00    +0.000 HD
ENDBRANCH   4  18
BRANCH   7  28
ATOM     28  C   UNL     1       0.638  10.182  19.542  0.00  0.00    +0.000 A 
ATOM     29  C   UNL     1       0.987  11.070  20.571  0.00  0.00    +0.000 A 
ATOM     30  C   UNL     1       0.211  12.199  20.852  0.00  0.00    +0.000 A 
ATOM     31  C   UNL     1      -0.943  12.453  20.118  0.00  0.00    +0.000 A 
ATOM     32  C   UNL     1      -1.308  11.588  19.094  0.00  0.00    +0.000 A 
ATOM     33  C   UNL     1      -0.518  10.469  18.800  0.00  0.00    +0.000 A 
ENDBRANCH   7  28
TORSDOF 3
ENDMDL
MODEL 3
REMARK VINA RESULT:      -7.0      5.631      8.629
REMARK  Name = 
REMARK  3 active torsions:
REMARK  status: ('A' for Active; 'I' for Inactive)
REMARK    1  A    between atoms: C_3  and  C_4
REMARK    2  A    between atoms: C_13  and  C_14
REMARK    3  A    between atoms: N_25  and  C_26
REMARK                            x       y       z     vdW  Elec       q    Type
REMARK                         _______ _______ _______ _____ _____    ______ ____
ROOT
ATOM      1  O   UNL     1       2.731   9.656  17.519  0.00  0.00    +0.000 OA
ATOM      2  C   UNL     1       2.366   8.821  18.332  0.00  0.00    +0.000 C 
ATOM      3  C   UNL     1       2.957   7.468  18.416  0.00  0.00    +0.000 C 
ATOM      4  C   UNL     1       2.319   6.809  19.382  0.00  0.00    +0.000 C 
ATOM      5  C   UNL     1       1.336   7.729  19.988  0.00  0.00    +0.000 C 
ATOM      6  O   UNL     1       0.570   7.394  20.878  0.00  0.00    +0.000 OA
ATOM      7  N   UNL     1       1.420   8.921  19.317  0.00  0.00    +0.000 N 
ENDROOT
BRANCH   3   8
ATOM      8  C   UNL     1       4.012   7.035  17.576  0.00  0.00    +0.000 A 
ATOM      9  C   UNL     1       4.029   7.208  16.210  0.00  0.00    +0.000 A 
ATOM     10  N   UNL     1       5.175   6.625  15.734  0.00  0.00    +0.000 N 
ATOM     11  C   UNL     1       5.895   6.073  16.771  0.00  0.00    +0.000 A 
ATOM     12  C   UNL     1       7.103   5.367  16.750  0.00  0.00    +0.000 A 
ATOM     13  C   UNL     1       7.602   4.904  17.969  0.00  0.00    +0.000 A 
ATOM     14  C   UNL     1       6.924   5.144  19.162  0.00  0.00    +0.000 A 
ATOM     15  C   UNL     1       5.718   5.854  19.167  0.00  0.00    +0.000 A 
ATOM     16  C   UNL     1       5.187   6.325  17.949  0.00  0.00    +0.000 A 
ATOM     17  H   UNL     1       5.447   6.586  14.762  0.00  0.00    +0.000 HD
ENDBRANCH   3   8
BRANCH   4  18
ATOM     18  C   UNL     1       2.484   5.472  19.822  0.00  0.00    +0.000 A 
ATOM     19  N   UNL     1       2.650   5.129  21.110  0.00  0.00    +0.000 NA
ATOM     20  N   UNL     1       2.719   3.782  21.075  0.00  0.00    +0.000 N 
ATOM     21  C   UNL     1       2.639   3.253  19.821  0.00  0.00    +0.000 A 
ATOM     22  N   UNL     1       2.691   1.945  19.504  0.00  0.00    +0.000 NA
ATOM     23  C   UNL     1       2.583   1.729  18.173  0.00  0.00    +0.000 A 
ATOM     24  C   UNL     1       2.437   2.713  17.201  0.00  0.00    +0.000 A 
ATOM     25  C   UNL     1       2.387   4.055  17.590  0.00  0.00    +0.000 A 
ATOM     26  C   UNL     1       2.491   4.332  18.964  0.00  0.00    +0.000 A 
ATOM     27  H   UNL     1       2.821   3.268  21.940  0.00  0.00    +0.000 HD
ENDBRANCH   4  18
BRANCH   7  28
ATOM     28  C   UNL     1       0.648  10.081  19.597  0.00  0.00    +0.000 A 
ATOM     29  C   UNL     1       0.996  10.952  20.641  0.00  0.00    +0.000 A 
ATOM     30  C   UNL     1       0.226  12.082  20.932  0.00  0.00    +0.000 A 
ATOM     31  C   UNL     1      -0.921  12.354  20.195  0.00  0.00    +0.000 A 
ATOM     32  C   UNL     1      -1.285  11.506  19.156  0.00  0.00    +0.000 A 
ATOM     33  C   UNL     1      -0.501  10.386  18.851  0.00  0.00    +0.000 A 
ENDBRANCH   7  28
TORSDOF 3
ENDMDL
MODEL 4
REMARK VINA RESULT:      -7.0      6.499      9.919
REMARK  Name = 
REMARK  3 active torsions:
REMARK  status: ('A' for Active; 'I' for Inactive)
REMARK    1  A    between atoms: C_3  and  C_4
REMARK    2  A    between atoms: C_13  and  C_14
REMARK    3  A    between atoms: N_25  and  C_26
REMARK                            x       y       z     vdW  Elec       q    Type
REMARK                         _______ _______ _______ _____ _____    ______ ____
ROOT
ATOM      1  O   UNL     1       1.679   6.216  20.122  0.00  0.00    +0.000 OA
ATOM      2  C   UNL     1       2.427   6.747  19.317  0.00  0.00    +0.000 C 
ATOM      3  C   UNL     1       3.601   6.061  18.737  0.00  0.00    +0.000 C 
ATOM      4  C   UNL     1       4.210   6.923  17.924  0.00  0.00    +0.000 C 
ATOM      5  C   UNL     1       3.422   8.171  17.910  0.00  0.00    +0.000 C 
ATOM      6  O   UNL     1       3.756   9.164  17.283  0.00  0.00    +0.000 OA
ATOM      7  N   UNL     1       2.362   7.997  18.762  0.00  0.00    +0.000 N 
ENDROOT
BRANCH   3   8
ATOM      8  C   UNL     1       3.943   4.722  19.048  0.00  0.00    +0.000 A 
ATOM      9  C   UNL     1       5.191   4.324  19.471  0.00  0.00    +0.000 A 
ATOM     10  N   UNL     1       5.160   2.963  19.628  0.00  0.00    +0.000 N 
ATOM     11  C   UNL     1       3.913   2.474  19.307  0.00  0.00    +0.000 A 
ATOM     12  C   UNL     1       3.437   1.158  19.301  0.00  0.00    +0.000 A 
ATOM     13  C   UNL     1       2.112   0.951  18.912  0.00  0.00    +0.000 A 
ATOM     14  C   UNL     1       1.293   2.019  18.552  0.00  0.00    +0.000 A 
ATOM     15  C   UNL     1       1.782   3.330  18.565  0.00  0.00    +0.000 A 
ATOM     16  C   UNL     1       3.120   3.566  18.945  0.00  0.00    +0.000 A 
ATOM     17  H   UNL     1       5.942   2.392  19.917  0.00  0.00    +0.000 HD
ENDBRANCH   3   8
BRANCH   4  18
ATOM     18  C   UNL     1       5.398   6.763  17.166  0.00  0.00    +0.000 A 
ATOM     19  N   UNL     1       6.506   7.497  17.359  0.00  0.00    +0.000 NA
ATOM     20  N   UNL     1       7.385   6.989  16.471  0.00  0.00    +0.000 N 
ATOM     21  C   UNL     1       6.877   5.988  15.697  0.00  0.00    +0.000 A 
ATOM     22  N   UNL     1       7.533   5.317  14.731  0.00  0.00    +0.000 NA
ATOM     23  C   UNL     1       6.763   4.376  14.137  0.00  0.00    +0.000 A 
ATOM     24  C   UNL     1       5.438   4.097  14.451  0.00  0.00    +0.000 A 
ATOM     25  C   UNL     1       4.808   4.824  15.465  0.00  0.00    +0.000 A 
ATOM     26  C   UNL     1       5.567   5.812  16.116  0.00  0.00    +0.000 A 
ATOM     27  H   UNL     1       8.325   7.361  16.433  0.00  0.00    +0.000 HD
ENDBRANCH   4  18
BRANCH   7  28
ATOM     28  C   UNL     1       1.352   8.960  19.028  0.00  0.00    +0.000 A 
ATOM     29  C   UNL     1       1.098   9.406  20.334  0.00  0.00    +0.000 A 
ATOM     30  C   UNL     1       0.091  10.339  20.601  0.00  0.00    +0.000 A 
ATOM     31  C   UNL     1      -0.696  10.831  19.567  0.00  0.00    +0.000 A 
ATOM     32  C   UNL     1      -0.463  10.405  18.265  0.00  0.00    +0.000 A 
ATOM     33  C   UNL     1       0.560   9.487  17.996  0.00  0.00    +0.000 A 
ENDBRANCH   7  28
TORSDOF 3
ENDMDL
MODEL 5
REMARK VINA RESULT:      -7.0      3.839      5.437
REMARK  Name = 
REMARK  3 active torsions:
REMARK  status: ('A' for Active; 'I' for Inactive)
REMARK    1  A    between atoms: C_3  and  C_4
REMARK    2  A    between atoms: C_13  and  C_14
REMARK    3  A    between atoms: N_25  and  C_26
REMARK                            x       y       z     vdW  Elec       q    Type
REMARK                         _______ _______ _______ _____ _____    ______ ____
ROOT
ATOM      1  O   UNL     1       0.136  14.699  23.108  0.00  0.00    +0.000 OA
ATOM      2  C   UNL     1      -1.052  14.646  23.383  0.00  0.00    +0.000 C 
ATOM      3  C   UNL     1      -1.990  13.713  22.722  0.00  0.00    +0.000 C 
ATOM      4  C   UNL     1      -3.201  13.931  23.232  0.00  0.00    +0.000 C 
ATOM      5  C   UNL     1      -3.076  14.969  24.274  0.00  0.00    +0.000 C 
ATOM      6  O   UNL     1      -4.031  15.410  24.894  0.00  0.00    +0.000 OA
ATOM      7  N   UNL     1      -1.760  15.350  24.319  0.00  0.00    +0.000 N 
ENDROOT
BRANCH   3   8
ATOM      8  C   UNL     1      -1.584  12.787  21.730  0.00  0.00    +0.000 A 
ATOM      9  C   UNL     1      -1.661  13.024  20.376  0.00  0.00    +0.000 A 
ATOM     10  N   UNL     1      -1.228  11.894  19.733  0.00  0.00    +0.000 N 
ATOM     11  C   UNL     1      -0.878  10.928  20.650  0.00  0.00    +0.000 A 
ATOM     12  C   UNL     1      -0.409   9.625  20.449  0.00  0.00    +0.000 A 
ATOM     13  C   UNL     1      -0.144   8.850  21.581  0.00  0.00    +0.000 A 
ATOM     14  C   UNL     1      -0.334   9.361  22.863  0.00  0.00    +0.000 A 
ATOM     15  C   UNL     1      -0.802  10.667  23.048  0.00  0.00    +0.000 A 
ATOM     16  C   UNL     1      -1.085  11.468  21.922  0.00  0.00    +0.000 A 
ATOM     17  H   UNL     1      -1.188  11.774  18.731  0.00  0.00    +0.000 HD
ENDBRANCH   3   8
BRANCH   4  18
ATOM     18  C   UNL     1      -4.441  13.327  22.903  0.00  0.00    +0.000 A 
ATOM     19  N   UNL     1      -5.063  12.434  23.689  0.00  0.00    +0.000 NA
ATOM     20  N   UNL     1      -6.205  12.163  23.023  0.00  0.00    +0.000 N 
ATOM     21  C   UNL     1      -6.322  12.817  21.832  0.00  0.00    +0.000 A 
ATOM     22  N   UNL     1      -7.351  12.720  20.969  0.00  0.00    +0.000 NA
ATOM     23  C   UNL     1      -7.182  13.493  19.871  0.00  0.00    +0.000 A 
ATOM     24  C   UNL     1      -6.086  14.308  19.614  0.00  0.00    +0.000 A 
ATOM     25  C   UNL     1      -5.048  14.370  20.548  0.00  0.00    +0.000 A 
ATOM     26  C   UNL     1      -5.178  13.589  21.709  0.00  0.00    +0.000 A 
ATOM     27  H   UNL     1      -6.876  11.523  23.427  0.00  0.00    +0.000 HD
ENDBRANCH   4  18
BRANCH   7  28
ATOM     28  C   UNL     1      -1.214  16.324  25.198  0.00  0.00    +0.000 A 
ATOM     29  C   UNL     1      -0.808  15.984  26.498  0.00  0.00    +0.000 A 
ATOM     30  C   UNL     1      -0.290  16.945  27.372  0.00  0.00    +0.000 A 
ATOM     31  C   UNL     1      -0.184  18.271  26.969  0.00  0.00    +0.000 A 
ATOM     32  C   UNL     1      -0.579  18.631  25.686  0.00  0.00    +0.000 A 
ATOM     33  C   UNL     1      -1.078  17.664  24.804  0.00  0.00    +0.000 A 
ENDBRANCH   7  28
TORSDOF 3
ENDMDL
MODEL 6
REMARK VINA RESULT:      -6.9      2.375      4.178
REMARK  Name = 
REMARK  3 active torsions:
REMARK  status: ('A' for Active; 'I' for Inactive)
REMARK    1  A    between atoms: C_3  and  C_4
REMARK    2  A    between atoms: C_13  and  C_14
REMARK    3  A    between atoms: N_25  and  C_26
REMARK                            x       y       z     vdW  Elec       q    Type
REMARK                         _______ _______ _______ _____ _____    ______ ____
ROOT
ATOM      1  O   UNL     1       2.409  12.527  21.081  0.00  0.00    +0.000 OA
ATOM      2  C   UNL     1       1.455  12.653  20.329  0.00  0.00    +0.000 C 
ATOM      3  C   UNL     1       0.569  11.529  19.960  0.00  0.00    +0.000 C 
ATOM      4  C   UNL     1      -0.346  11.999  19.112  0.00  0.00    +0.000 C 
ATOM      5  C   UNL     1      -0.114  13.447  18.950  0.00  0.00    +0.000 C 
ATOM      6  O   UNL     1      -0.774  14.148  18.198  0.00  0.00    +0.000 OA
ATOM      7  N   UNL     1       0.976  13.777  19.712  0.00  0.00    +0.000 N 
ENDROOT
BRANCH   3   8
ATOM      8  C   UNL     1       0.738  10.216  20.465  0.00  0.00    +0.000 A 
ATOM      9  C   UNL     1       0.392   9.832  21.741  0.00  0.00    +0.000 A 
ATOM     10  N   UNL     1       0.741   8.515  21.885  0.00  0.00    +0.000 N 
ATOM     11  C   UNL     1       1.313   8.043  20.724  0.00  0.00    +0.000 A 
ATOM     12  C   UNL     1       1.833   6.778  20.428  0.00  0.00    +0.000 A 
ATOM     13  C   UNL     1       2.373   6.583  19.154  0.00  0.00    +0.000 A 
ATOM     14  C   UNL     1       2.385   7.610  18.213  0.00  0.00    +0.000 A 
ATOM     15  C   UNL     1       1.859   8.870  18.524  0.00  0.00    +0.000 A 
ATOM     16  C   UNL     1       1.316   9.096  19.805  0.00  0.00    +0.000 A 
ATOM     17  H   UNL     1       0.618   7.968  22.726  0.00  0.00    +0.000 HD
ENDBRANCH   3   8
BRANCH   4  18
ATOM     18  C   UNL     1      -1.390  11.313  18.441  0.00  0.00    +0.000 A 
ATOM     19  N   UNL     1      -1.179  10.393  17.486  0.00  0.00    +0.000 NA
ATOM     20  N   UNL     1      -2.422   9.977  17.165  0.00  0.00    +0.000 N 
ATOM     21  C   UNL     1      -3.415  10.614  17.847  0.00  0.00    +0.000 A 
ATOM     22  N   UNL     1      -4.738  10.399  17.712  0.00  0.00    +0.000 NA
ATOM     23  C   UNL     1      -5.478  11.186  18.528  0.00  0.00    +0.000 A 
ATOM     24  C   UNL     1      -4.976  12.128  19.419  0.00  0.00    +0.000 A 
ATOM     25  C   UNL     1      -3.593  12.306  19.518  0.00  0.00    +0.000 A 
ATOM     26  C   UNL     1      -2.780  11.509  18.693  0.00  0.00    +0.000 A 
ATOM     27  H   UNL     1      -2.538   9.250  16.471  0.00  0.00    +0.000 HD
ENDBRANCH   4  18
BRANCH   7  28
ATOM     28  C   UNL     1       1.526  15.081  19.843  0.00  0.00    +0.000 A 
ATOM     29  C   UNL     1       1.212  15.896  20.941  0.00  0.00    +0.000 A 
ATOM     30  C   UNL     1       1.736  17.188  21.061  0.00  0.00    +0.000 A 
ATOM     31  C   UNL     1       2.571  17.697  20.073  0.00  0.00    +0.000 A 
ATOM     32  C   UNL     1       2.897  16.908  18.977  0.00  0.00    +0.000 A 
ATOM     33  C   UNL     1       2.389  15.607  18.868  0.00  0.00    +0.000 A 
ENDBRANCH   7  28
TORSDOF 3
ENDMDL
MODEL 7
REMARK VINA RESULT:      -6.9      2.817      5.815
REMARK  Name = 
REMARK  3 active torsions:
REMARK  status: ('A' for Active; 'I' for Inactive)
REMARK    1  A    between atoms: C_3  and  C_4
REMARK    2  A    between atoms: C_13  and  C_14
REMARK    3  A    between atoms: N_25  and  C_26
REMARK                            x       y       z     vdW  Elec       q    Type
REMARK                         _______ _______ _______ _____ _____    ______ ____
ROOT
ATOM      1  O   UNL     1      -1.756   9.918  19.525  0.00  0.00    +0.000 OA
ATOM      2  C   UNL     1      -0.940  10.751  19.888  0.00  0.00    +0.000 C 
ATOM      3  C   UNL     1      -1.326  12.044  20.491  0.00  0.00    +0.000 C 
ATOM      4  C   UNL     1      -0.206  12.720  20.745  0.00  0.00    +0.000 C 
ATOM      5  C   UNL     1       0.937  11.867  20.365  0.00  0.00    +0.000 C 
ATOM      6  O   UNL     1       2.099  12.233  20.445  0.00  0.00    +0.000 OA
ATOM      7  N   UNL     1       0.427  10.697  19.864  0.00  0.00    +0.000 N 
ENDROOT
BRANCH   3   8
ATOM      8  C   UNL     1      -2.673  12.416  20.721  0.00  0.00    +0.000 A 
ATOM      9  C   UNL     1      -3.547  12.800  19.729  0.00  0.00    +0.000 A 
ATOM     10  N   UNL     1      -4.734  13.128  20.328  0.00  0.00    +0.000 N 
ATOM     11  C   UNL     1      -4.641  12.969  21.693  0.00  0.00    +0.000 A 
ATOM     12  C   UNL     1      -5.591  13.205  22.693  0.00  0.00    +0.000 A 
ATOM     13  C   UNL     1      -5.210  12.966  24.016  0.00  0.00    +0.000 A 
ATOM     14  C   UNL     1      -3.933  12.503  24.325  0.00  0.00    +0.000 A 
ATOM     15  C   UNL     1      -2.995  12.269  23.313  0.00  0.00    +0.000 A 
ATOM     16  C   UNL     1      -3.350  12.511  21.970  0.00  0.00    +0.000 A 
ATOM     17  H   UNL     1      -5.558  13.460  19.845  0.00  0.00    +0.000 HD
ENDBRANCH   3   8
BRANCH   4  18
ATOM     18  C   UNL     1      -0.040  14.022  21.281  0.00  0.00    +0.000 A 
ATOM     19  N   UNL     1       0.283  14.261  22.562  0.00  0.00    +0.000 NA
ATOM     20  N   UNL     1       0.380  15.605  22.622  0.00  0.00    +0.000 N 
ATOM     21  C   UNL     1       0.099  16.235  21.446  0.00  0.00    +0.000 A 
ATOM     22  N   UNL     1       0.110  17.565  21.232  0.00  0.00    +0.000 NA
ATOM     23  C   UNL     1      -0.211  17.889  19.958  0.00  0.00    +0.000 A 
ATOM     24  C   UNL     1      -0.529  16.988  18.948  0.00  0.00    +0.000 A 
ATOM     25  C   UNL     1      -0.523  15.619  19.228  0.00  0.00    +0.000 A 
ATOM     26  C   UNL     1      -0.191  15.230  20.537  0.00  0.00    +0.000 A 
ATOM     27  H   UNL     1       0.643  16.047  23.493  0.00  0.00    +0.000 HD
ENDBRANCH   4  18
BRANCH   7  28
ATOM     28  C   UNL     1       1.196   9.598  19.394  0.00  0.00    +0.000 A 
ATOM     29  C   UNL     1       1.698   9.569  18.084  0.00  0.00    +0.000 A 
ATOM     30  C   UNL     1       2.438   8.479  17.613  0.00  0.00    +0.000 A 
ATOM     31  C   UNL     1       2.674   7.386  18.439  0.00  0.00    +0.000 A 
ATOM     32  C   UNL     1       2.187   7.393  19.741  0.00  0.00    +0.000 A 
ATOM     33  C   UNL     1       1.466   8.494  20.218  0.00  0.00    +0.000 A 
ENDBRANCH   7  28
TORSDOF 3
ENDMDL
MODEL 8
REMARK VINA RESULT:      -6.9      0.674      4.212
REMARK  Name = 
REMARK  3 active torsions:
REMARK  status: ('A' for Active; 'I' for Inactive)
REMARK    1  A    between atoms: C_3  and  C_4
REMARK    2  A    between atoms: C_13  and  C_14
REMARK    3  A    between atoms: N_25  and  C_26
REMARK                            x       y       z     vdW  Elec       q    Type
REMARK                         _______ _______ _______ _____ _____    ______ ____
ROOT
ATOM      1  O   UNL     1       1.526  14.438  22.354  0.00  0.00    +0.000 OA
ATOM      2  C   UNL     1       1.478  13.925  21.247  0.00  0.00    +0.000 C 
ATOM      3  C   UNL     1       0.534  12.839  20.905  0.00  0.00    +0.000 C 
ATOM      4  C   UNL     1       0.760  12.494  19.638  0.00  0.00    +0.000 C 
ATOM      5  C   UNL     1       1.815  13.379  19.106  0.00  0.00    +0.000 C 
ATOM      6  O   UNL     1       2.266  13.275  17.976  0.00  0.00    +0.000 OA
ATOM      7  N   UNL     1       2.197  14.218  20.120  0.00  0.00    +0.000 N 
ENDROOT
BRANCH   3   8
ATOM      8  C   UNL     1      -0.408  12.319  21.825  0.00  0.00    +0.000 A 
ATOM      9  C   UNL     1      -0.318  11.070  22.397  0.00  0.00    +0.000 A 
ATOM     10  N   UNL     1      -1.423  10.897  23.189  0.00  0.00    +0.000 N 
ATOM     11  C   UNL     1      -2.228  12.013  23.134  0.00  0.00    +0.000 A 
ATOM     12  C   UNL     1      -3.454  12.268  23.759  0.00  0.00    +0.000 A 
ATOM     13  C   UNL     1      -4.064  13.500  23.507  0.00  0.00    +0.000 A 
ATOM     14  C   UNL     1      -3.468  14.440  22.671  0.00  0.00    +0.000 A 
ATOM     15  C   UNL     1      -2.240  14.171  22.055  0.00  0.00    +0.000 A 
ATOM     16  C   UNL     1      -1.607  12.932  22.285  0.00  0.00    +0.000 A 
ATOM     17  H   UNL     1      -1.631  10.066  23.724  0.00  0.00    +0.000 HD
ENDBRANCH   3   8
BRANCH   4  18
ATOM     18  C   UNL     1       0.150  11.480  18.857  0.00  0.00    +0.000 A 
ATOM     19  N   UNL     1       0.828  10.463  18.301  0.00  0.00    +0.000 NA
ATOM     20  N   UNL     1      -0.132   9.729  17.701  0.00  0.00    +0.000 N 
ATOM     21  C   UNL     1      -1.386  10.251  17.820  0.00  0.00    +0.000 A 
ATOM     22  N   UNL     1      -2.517   9.729  17.309  0.00  0.00    +0.000 NA
ATOM     23  C   UNL     1      -3.609  10.475  17.596  0.00  0.00    +0.000 A 
ATOM     24  C   UNL     1      -3.614  11.658  18.327  0.00  0.00    +0.000 A 
ATOM     25  C   UNL     1      -2.409  12.151  18.835  0.00  0.00    +0.000 A 
ATOM     26  C   UNL     1      -1.245  11.410  18.568  0.00  0.00    +0.000 A 
ATOM     27  H   UNL     1       0.122   8.875  17.222  0.00  0.00    +0.000 HD
ENDBRANCH   4  18
BRANCH   7  28
ATOM     28  C   UNL     1       3.185  15.235  20.020  0.00  0.00    +0.000 A 
ATOM     29  C   UNL     1       4.541  14.917  19.845  0.00  0.00    +0.000 A 
ATOM     30  C   UNL     1       5.518  15.915  19.767  0.00  0.00    +0.000 A 
ATOM     31  C   UNL     1       5.158  17.254  19.881  0.00  0.00    +0.000 A 
ATOM     32  C   UNL     1       3.822  17.592  20.055  0.00  0.00    +0.000 A 
ATOM     33  C   UNL     1       2.842  16.593  20.111  0.00  0.00    +0.000 A 
ENDBRANCH   7  28
TORSDOF 3
ENDMDL
MODEL 9
REMARK VINA RESULT:      -6.8      3.631      6.307
REMARK  Name = 
REMARK  3 active torsions:
REMARK  status: ('A' for Active; 'I' for Inactive)
REMARK    1  A    between atoms: C_3  and  C_4
REMARK    2  A    between atoms: C_13  and  C_14
REMARK    3  A    between atoms: N_25  and  C_26
REMARK                            x       y       z     vdW  Elec       q    Type
REMARK                         _______ _______ _______ _____ _____    ______ ____
ROOT
ATOM      1  O   UNL     1       0.155  11.752  20.956  0.00  0.00    +0.000 OA
ATOM      2  C   UNL     1      -0.644  11.404  20.101  0.00  0.00    +0.000 C 
ATOM      3  C   UNL     1      -1.921  12.110  19.859  0.00  0.00    +0.000 C 
ATOM      4  C   UNL     1      -2.561  11.463  18.886  0.00  0.00    +0.000 C 
ATOM      5  C   UNL     1      -1.699  10.355  18.433  0.00  0.00    +0.000 C 
ATOM      6  O   UNL     1      -2.036   9.555  17.573  0.00  0.00    +0.000 OA
ATOM      7  N   UNL     1      -0.561  10.379  19.197  0.00  0.00    +0.000 N 
ENDROOT
BRANCH   3   8
ATOM      8  C   UNL     1      -2.313  13.264  20.583  0.00  0.00    +0.000 A 
ATOM      9  C   UNL     1      -2.207  14.548  20.100  0.00  0.00    +0.000 A 
ATOM     10  N   UNL     1      -2.634  15.397  21.087  0.00  0.00    +0.000 N 
ATOM     11  C   UNL     1      -3.008  14.682  22.203  0.00  0.00    +0.000 A 
ATOM     12  C   UNL     1      -3.481  15.130  23.441  0.00  0.00    +0.000 A 
ATOM     13  C   UNL     1      -3.773  14.166  24.409  0.00  0.00    +0.000 A 
ATOM     14  C   UNL     1      -3.606  12.809  24.146  0.00  0.00    +0.000 A 
ATOM     15  C   UNL     1      -3.135  12.376  22.902  0.00  0.00    +0.000 A 
ATOM     16  C   UNL     1      -2.823  13.328  21.909  0.00  0.00    +0.000 A 
ATOM     17  H   UNL     1      -2.654  16.405  21.019  0.00  0.00    +0.000 HD
ENDBRANCH   3   8
BRANCH   4  18
ATOM     18  C   UNL     1      -3.837  11.717  18.322  0.00  0.00    +0.000 A 
ATOM     19  N   UNL     1      -4.058  11.811  17.001  0.00  0.00    +0.000 NA
ATOM     20  N   UNL     1      -5.390  12.008  16.913  0.00  0.00    +0.000 N 
ATOM     21  C   UNL     1      -6.021  12.080  18.119  0.00  0.00    +0.000 A 
ATOM     22  N   UNL     1      -7.338  12.280  18.317  0.00  0.00    +0.000 NA
ATOM     23  C   UNL     1      -7.669  12.301  19.630  0.00  0.00    +0.000 A 
ATOM     24  C   UNL     1      -6.784  12.142  20.691  0.00  0.00    +0.000 A 
ATOM     25  C   UNL     1      -5.428  11.934  20.424  0.00  0.00    +0.000 A 
ATOM     26  C   UNL     1      -5.034  11.901  19.075  0.00  0.00    +0.000 A 
ATOM     27  H   UNL     1      -5.822  12.088  16.002  0.00  0.00    +0.000 HD
ENDBRANCH   4  18
BRANCH   7  28
ATOM     28  C   UNL     1       0.534   9.483  19.073  0.00  0.00    +0.000 A 
ATOM     29  C   UNL     1       1.276   9.400  17.885  0.00  0.00    +0.000 A 
ATOM     30  C   UNL     1       2.341   8.504  17.753  0.00  0.00    +0.000 A 
ATOM     31  C   UNL     1       2.675   7.658  18.805  0.00  0.00    +0.000 A 
ATOM     32  C   UNL     1       1.956   7.722  19.992  0.00  0.00    +0.000 A 
ATOM     33  C   UNL     1       0.903   8.636  20.130  0.00  0.00    +0.000 A 
ENDBRANCH   7  28
TORSDOF 3
ENDMDL
