MODEL 1
REMARK VINA RESULT:      -6.4      0.000      0.000
REMARK  Name = 
REMARK  11 active torsions:
REMARK  status: ('A' for Active; 'I' for Inactive)
REMARK    1  A    between atoms: C_1  and  O_2
REMARK    2  A    between atoms: O_2  and  C_3
REMARK    3  A    between atoms: C_6  and  O_7
REMARK    4  A    between atoms: O_7  and  C_8
REMARK    5  A    between atoms: C_8  and  C_9
REMARK    6  A    between atoms: C_9  and  C_10
REMARK    7  A    between atoms: C_10  and  C_11
REMARK    8  A    between atoms: C_11  and  N_12
REMARK    9  A    between atoms: N_12  and  C_13
REMARK   10  A    between atoms: N_12  and  C_14
REMARK   11  A    between atoms: C_14  and  C_15
REMARK                            x       y       z     vdW  Elec       q    Type
REMARK                         _______ _______ _______ _____ _____    ______ ____
ROOT
ATOM      1  C   UNL     1       2.266   2.456  17.566  0.00  0.00    +0.000 C 
ENDROOT
BRANCH   1   2
ATOM      2  C   UNL     1       3.789   2.433  17.524  0.00  0.00    +0.000 C 
BRANCH   2   3
ATOM      3  O   UNL     1       4.301   3.279  18.552  0.00  0.00    +0.000 OA
BRANCH   3   7
ATOM      4  C   UNL     1       7.115   6.148  17.430  0.00  0.00    +0.000 A 
ATOM      5  C   UNL     1       6.890   5.822  18.770  0.00  0.00    +0.000 A 
ATOM      6  C   UNL     1       5.948   4.847  19.110  0.00  0.00    +0.000 A 
ATOM      7  C   UNL     1       5.199   4.218  18.117  0.00  0.00    +0.000 A 
ATOM      8  C   UNL     1       5.425   4.542  16.779  0.00  0.00    +0.000 A 
ATOM      9  C   UNL     1       6.376   5.507  16.438  0.00  0.00    +0.000 A 
BRANCH   4  11
ATOM     10  C   UNL     1       7.641   8.443  17.546  0.00  0.00    +0.000 C 
ATOM     11  O   UNL     1       8.048   7.122  17.203  0.00  0.00    +0.000 OA
ENDBRANCH   4  11
ENDBRANCH   3   7
ENDBRANCH   2   3
ENDBRANCH   1   2
BRANCH   1  12
ATOM     12  C   UNL     1       1.804   2.318  19.014  0.00  0.00    +0.000 C 
BRANCH  12  13
ATOM     13  C   UNL     1       0.976   3.520  19.465  0.00  0.00    +0.000 C 
BRANCH  13  14
ATOM     14  N   UNL     1       1.281   3.942  20.847  0.00  0.00    +0.000 NA
ATOM     15  C   UNL     1       1.580   2.801  21.715  0.00  0.00    +0.000 C 
BRANCH  14  16
ATOM     16  C   UNL     1       2.419   4.890  20.858  0.00  0.00    +0.000 C 
BRANCH  16  17
ATOM     17  C   UNL     1       2.095   6.190  20.151  0.00  0.00    +0.000 A 
ATOM     18  C   UNL     1       2.509   6.405  18.828  0.00  0.00    +0.000 A 
ATOM     19  C   UNL     1       2.351   7.656  18.233  0.00  0.00    +0.000 A 
ATOM     20  C   UNL     1       1.764   8.700  18.951  0.00  0.00    +0.000 A 
ATOM     21  C   UNL     1       1.315   8.492  20.249  0.00  0.00    +0.000 A 
ATOM     22  C   UNL     1       1.475   7.239  20.851  0.00  0.00    +0.000 A 
ENDBRANCH  16  17
ENDBRANCH  14  16
ENDBRANCH  13  14
ENDBRANCH  12  13
ENDBRANCH   1  12
TORSDOF 9
ENDMDL
MODEL 2
REMARK VINA RESULT:      -6.3      3.588      6.442
REMARK  Name = 
REMARK  11 active torsions:
REMARK  status: ('A' for Active; 'I' for Inactive)
REMARK    1  A    between atoms: C_1  and  O_2
REMARK    2  A    between atoms: O_2  and  C_3
REMARK    3  A    between atoms: C_6  and  O_7
REMARK    4  A    between atoms: O_7  and  C_8
REMARK    5  A    between atoms: C_8  and  C_9
REMARK    6  A    between atoms: C_9  and  C_10
REMARK    7  A    between atoms: C_10  and  C_11
REMARK    8  A    between atoms: C_11  and  N_12
REMARK    9  A    between atoms: N_12  and  C_13
REMARK   10  A    between atoms: N_12  and  C_14
REMARK   11  A    between atoms: C_14  and  C_15
REMARK                            x       y       z     vdW  Elec       q    Type
REMARK                         _______ _______ _______ _____ _____    ______ ____
ROOT
ATOM      1  C   UNL     1       7.849   7.738  17.162  0.00  0.00    +0.000 C 
ENDROOT
BRANCH   1   2
ATOM      2  C   UNL     1       7.840   9.076  17.890  0.00  0.00    +0.000 C 
BRANCH   2   3
ATOM      3  O   UNL     1       8.858   9.076  18.888  0.00  0.00    +0.000 OA
BRANCH   3   7
ATOM      4  C   UNL     1      10.407  12.892  19.552  0.00  0.00    +0.000 A 
ATOM      5  C   UNL     1      10.260  12.372  18.264  0.00  0.00    +0.000 A 
ATOM      6  C   UNL     1       9.726  11.094  18.077  0.00  0.00    +0.000 A 
ATOM      7  C   UNL     1       9.370  10.314  19.176  0.00  0.00    +0.000 A 
ATOM      8  C   UNL     1       9.517  10.834  20.462  0.00  0.00    +0.000 A 
ATOM      9  C   UNL     1      10.038  12.116  20.649  0.00  0.00    +0.000 A 
BRANCH   4  11
ATOM     10  C   UNL     1      11.072  14.831  18.386  0.00  0.00    +0.000 C 
ATOM     11  O   UNL     1      10.949  14.146  19.630  0.00  0.00    +0.000 OA
ENDBRANCH   4  11
ENDBRANCH   3   7
ENDBRANCH   2   3
ENDBRANCH   1   2
BRANCH   1  12
ATOM     12  C   UNL     1       6.986   6.743  17.934  0.00  0.00    +0.000 C 
BRANCH  12  13
ATOM     13  C   UNL     1       5.588   6.613  17.331  0.00  0.00    +0.000 C 
BRANCH  13  14
ATOM     14  N   UNL     1       4.750   5.620  18.034  0.00  0.00    +0.000 NA
ATOM     15  C   UNL     1       5.403   5.106  19.240  0.00  0.00    +0.000 C 
BRANCH  14  16
ATOM     16  C   UNL     1       3.439   6.210  18.389  0.00  0.00    +0.000 C 
BRANCH  16  17
ATOM     17  C   UNL     1       2.433   5.162  18.821  0.00  0.00    +0.000 A 
ATOM     18  C   UNL     1       1.956   5.132  20.140  0.00  0.00    +0.000 A 
ATOM     19  C   UNL     1       1.156   4.077  20.578  0.00  0.00    +0.000 A 
ATOM     20  C   UNL     1       0.813   3.050  19.695  0.00  0.00    +0.000 A 
ATOM     21  C   UNL     1       1.247   3.085  18.376  0.00  0.00    +0.000 A 
ATOM     22  C   UNL     1       2.053   4.140  17.934  0.00  0.00    +0.000 A 
ENDBRANCH  16  17
ENDBRANCH  14  16
ENDBRANCH  13  14
ENDBRANCH  12  13
ENDBRANCH   1  12
TORSDOF 9
ENDMDL
MODEL 3
REMARK VINA RESULT:      -6.2      3.818      6.905
REMARK  Name = 
REMARK  11 active torsions:
REMARK  status: ('A' for Active; 'I' for Inactive)
REMARK    1  A    between atoms: C_1  and  O_2
REMARK    2  A    between atoms: O_2  and  C_3
REMARK    3  A    between atoms: C_6  and  O_7
REMARK    4  A    between atoms: O_7  and  C_8
REMARK    5  A    between atoms: C_8  and  C_9
REMARK    6  A    between atoms: C_9  and  C_10
REMARK    7  A    between atoms: C_10  and  C_11
REMARK    8  A    between atoms: C_11  and  N_12
REMARK    9  A    between atoms: N_12  and  C_13
REMARK   10  A    between atoms: N_12  and  C_14
REMARK   11  A    between atoms: C_14  and  C_15
REMARK                            x       y       z     vdW  Elec       q    Type
REMARK                         _______ _______ _______ _____ _____    ______ ____
ROOT
ATOM      1  C   UNL     1       8.075   7.590  18.336  0.00  0.00    +0.000 C 
ENDROOT
BRANCH   1   2
ATOM      2  C   UNL     1       8.234   9.045  17.914  0.00  0.00    +0.000 C 
BRANCH   2   3
ATOM      3  O   UNL     1       8.925   9.759  18.937  0.00  0.00    +0.000 OA
BRANCH   3   7
ATOM      4  C   UNL     1      10.913  13.210  17.692  0.00  0.00    +0.000 A 
ATOM      5  C   UNL     1      11.587  12.156  18.313  0.00  0.00    +0.000 A 
ATOM      6  C   UNL     1      10.892  11.009  18.707  0.00  0.00    +0.000 A 
ATOM      7  C   UNL     1       9.515  10.922  18.515  0.00  0.00    +0.000 A 
ATOM      8  C   UNL     1       8.841  11.974  17.894  0.00  0.00    +0.000 A 
ATOM      9  C   UNL     1       9.538  13.115  17.488  0.00  0.00    +0.000 A 
BRANCH   4  11
ATOM     10  C   UNL     1      10.953  15.481  17.060  0.00  0.00    +0.000 C 
ATOM     11  O   UNL     1      11.679  14.291  17.355  0.00  0.00    +0.000 OA
ENDBRANCH   4  11
ENDBRANCH   3   7
ENDBRANCH   2   3
ENDBRANCH   1   2
BRANCH   1  12
ATOM     12  C   UNL     1       7.427   6.807  17.198  0.00  0.00    +0.000 C 
BRANCH  12  13
ATOM     13  C   UNL     1       5.920   7.046  17.128  0.00  0.00    +0.000 C 
BRANCH  13  14
ATOM     14  N   UNL     1       5.177   5.881  16.604  0.00  0.00    +0.000 NA
ATOM     15  C   UNL     1       5.620   5.507  15.259  0.00  0.00    +0.000 C 
BRANCH  14  16
ATOM     16  C   UNL     1       5.321   4.724  17.518  0.00  0.00    +0.000 C 
BRANCH  16  17
ATOM     17  C   UNL     1       3.986   4.105  17.880  0.00  0.00    +0.000 A 
ATOM     18  C   UNL     1       3.764   2.732  17.699  0.00  0.00    +0.000 A 
ATOM     19  C   UNL     1       2.491   2.192  17.881  0.00  0.00    +0.000 A 
ATOM     20  C   UNL     1       1.431   3.020  18.261  0.00  0.00    +0.000 A 
ATOM     21  C   UNL     1       1.644   4.375  18.479  0.00  0.00    +0.000 A 
ATOM     22  C   UNL     1       2.919   4.920  18.294  0.00  0.00    +0.000 A 
ENDBRANCH  16  17
ENDBRANCH  14  16
ENDBRANCH  13  14
ENDBRANCH  12  13
ENDBRANCH   1  12
TORSDOF 9
ENDMDL
MODEL 4
REMARK VINA RESULT:      -6.1      3.075      6.508
REMARK  Name = 
REMARK  11 active torsions:
REMARK  status: ('A' for Active; 'I' for Inactive)
REMARK    1  A    between atoms: C_1  and  O_2
REMARK    2  A    between atoms: O_2  and  C_3
REMARK    3  A    between atoms: C_6  and  O_7
REMARK    4  A    between atoms: O_7  and  C_8
REMARK    5  A    between atoms: C_8  and  C_9
REMARK    6  A    between atoms: C_9  and  C_10
REMARK    7  A    between atoms: C_10  and  C_11
REMARK    8  A    between atoms: C_11  and  N_12
REMARK    9  A    between atoms: N_12  and  C_13
REMARK   10  A    between atoms: N_12  and  C_14
REMARK   11  A    between atoms: C_14  and  C_15
REMARK                            x       y       z     vdW  Elec       q    Type
REMARK                         _______ _______ _______ _____ _____    ______ ____
ROOT
ATOM      1  C   UNL     1       3.667   6.914  17.548  0.00  0.00    +0.000 C 
ENDROOT
BRANCH   1   2
ATOM      2  C   UNL     1       2.884   7.254  18.809  0.00  0.00    +0.000 C 
BRANCH   2   3
ATOM      3  O   UNL     1       1.857   8.190  18.489  0.00  0.00    +0.000 OA
BRANCH   3   7
ATOM      4  C   UNL     1       0.364  10.059  21.907  0.00  0.00    +0.000 A 
ATOM      5  C   UNL     1       0.925   8.781  21.953  0.00  0.00    +0.000 A 
ATOM      6  C   UNL     1       1.427   8.189  20.791  0.00  0.00    +0.000 A 
ATOM      7  C   UNL     1       1.339   8.854  19.569  0.00  0.00    +0.000 A 
ATOM      8  C   UNL     1       0.778  10.131  19.523  0.00  0.00    +0.000 A 
ATOM      9  C   UNL     1       0.289  10.728  20.687  0.00  0.00    +0.000 A 
BRANCH   4  11
ATOM     10  C   UNL     1      -1.210  11.443  22.987  0.00  0.00    +0.000 C 
ATOM     11  O   UNL     1      -0.109  10.545  23.094  0.00  0.00    +0.000 OA
ENDBRANCH   4  11
ENDBRANCH   3   7
ENDBRANCH   2   3
ENDBRANCH   1   2
BRANCH   1  12
ATOM     12  C   UNL     1       5.072   6.462  17.938  0.00  0.00    +0.000 C 
BRANCH  12  13
ATOM     13  C   UNL     1       5.144   4.952  18.158  0.00  0.00    +0.000 C 
BRANCH  13  14
ATOM     14  N   UNL     1       4.366   4.189  17.161  0.00  0.00    +0.000 NA
ATOM     15  C   UNL     1       5.141   3.919  15.949  0.00  0.00    +0.000 C 
BRANCH  14  16
ATOM     16  C   UNL     1       3.891   2.913  17.744  0.00  0.00    +0.000 C 
BRANCH  16  17
ATOM     17  C   UNL     1       3.032   3.124  18.975  0.00  0.00    +0.000 A 
ATOM     18  C   UNL     1       3.443   2.636  20.224  0.00  0.00    +0.000 A 
ATOM     19  C   UNL     1       2.584   2.689  21.321  0.00  0.00    +0.000 A 
ATOM     20  C   UNL     1       1.310   3.246  21.182  0.00  0.00    +0.000 A 
ATOM     21  C   UNL     1       0.902   3.766  19.960  0.00  0.00    +0.000 A 
ATOM     22  C   UNL     1       1.761   3.711  18.856  0.00  0.00    +0.000 A 
ENDBRANCH  16  17
ENDBRANCH  14  16
ENDBRANCH  13  14
ENDBRANCH  12  13
ENDBRANCH   1  12
TORSDOF 9
ENDMDL
MODEL 5
REMARK VINA RESULT:      -6.1      2.558      5.551
REMARK  Name = 
REMARK  11 active torsions:
REMARK  status: ('A' for Active; 'I' for Inactive)
REMARK    1  A    between atoms: C_1  and  O_2
REMARK    2  A    between atoms: O_2  and  C_3
REMARK    3  A    between atoms: C_6  and  O_7
REMARK    4  A    between atoms: O_7  and  C_8
REMARK    5  A    between atoms: C_8  and  C_9
REMARK    6  A    between atoms: C_9  and  C_10
REMARK    7  A    between atoms: C_10  and  C_11
REMARK    8  A    between atoms: C_11  and  N_12
REMARK    9  A    between atoms: N_12  and  C_13
REMARK   10  A    between atoms: N_12  and  C_14
REMARK   11  A    between atoms: C_14  and  C_15
REMARK                            x       y       z     vdW  Elec       q    Type
REMARK                         _______ _______ _______ _____ _____    ______ ____
ROOT
ATOM      1  C   UNL     1       1.855   4.143  20.741  0.00  0.00    +0.000 C 
ENDROOT
BRANCH   1   2
ATOM      2  C   UNL     1       1.462   5.609  20.873  0.00  0.00    +0.000 C 
BRANCH   2   3
ATOM      3  O   UNL     1       2.440   6.419  20.224  0.00  0.00    +0.000 OA
BRANCH   3   7
ATOM      4  C   UNL     1       0.960  10.141  19.055  0.00  0.00    +0.000 A 
ATOM      5  C   UNL     1       0.800   9.662  20.358  0.00  0.00    +0.000 A 
ATOM      6  C   UNL     1       1.320   8.415  20.719  0.00  0.00    +0.000 A 
ATOM      7  C   UNL     1       1.969   7.624  19.773  0.00  0.00    +0.000 A 
ATOM      8  C   UNL     1       2.129   8.103  18.472  0.00  0.00    +0.000 A 
ATOM      9  C   UNL     1       1.622   9.355  18.115  0.00  0.00    +0.000 A 
BRANCH   4  11
ATOM     10  C   UNL     1      -0.996  11.355  18.544  0.00  0.00    +0.000 C 
ATOM     11  O   UNL     1       0.406  11.365  18.800  0.00  0.00    +0.000 OA
ENDBRANCH   4  11
ENDBRANCH   3   7
ENDBRANCH   2   3
ENDBRANCH   1   2
BRANCH   1  12
ATOM     12  C   UNL     1       0.893   3.452  19.778  0.00  0.00    +0.000 C 
BRANCH  12  13
ATOM     13  C   UNL     1       1.546   2.264  19.075  0.00  0.00    +0.000 C 
BRANCH  13  14
ATOM     14  N   UNL     1       2.901   2.569  18.571  0.00  0.00    +0.000 NA
ATOM     15  C   UNL     1       3.753   1.378  18.534  0.00  0.00    +0.000 C 
BRANCH  14  16
ATOM     16  C   UNL     1       2.826   3.171  17.220  0.00  0.00    +0.000 C 
BRANCH  16  17
ATOM     17  C   UNL     1       3.990   4.098  16.936  0.00  0.00    +0.000 A 
ATOM     18  C   UNL     1       4.100   5.329  17.598  0.00  0.00    +0.000 A 
ATOM     19  C   UNL     1       5.080   6.249  17.223  0.00  0.00    +0.000 A 
ATOM     20  C   UNL     1       5.968   5.938  16.190  0.00  0.00    +0.000 A 
ATOM     21  C   UNL     1       5.894   4.708  15.549  0.00  0.00    +0.000 A 
ATOM     22  C   UNL     1       4.910   3.785  15.921  0.00  0.00    +0.000 A 
ENDBRANCH  16  17
ENDBRANCH  14  16
ENDBRANCH  13  14
ENDBRANCH  12  13
ENDBRANCH   1  12
TORSDOF 9
ENDMDL
MODEL 6
REMARK VINA RESULT:      -6.1      3.414      6.165
REMARK  Name = 
REMARK  11 active torsions:
REMARK  status: ('A' for Active; 'I' for Inactive)
REMARK    1  A    between atoms: C_1  and  O_2
REMARK    2  A    between atoms: O_2  and  C_3
REMARK    3  A    between atoms: C_6  and  O_7
REMARK    4  A    between atoms: O_7  and  C_8
REMARK    5  A    between atoms: C_8  and  C_9
REMARK    6  A    between atoms: C_9  and  C_10
REMARK    7  A    between atoms: C_10  and  C_11
REMARK    8  A    between atoms: C_11  and  N_12
REMARK    9  A    between atoms: N_12  and  C_13
REMARK   10  A    between atoms: N_12  and  C_14
REMARK   11  A    between atoms: C_14  and  C_15
REMARK                            x       y       z     vdW  Elec       q    Type
REMARK                         _______ _______ _______ _____ _____    ______ ____
ROOT
ATOM      1  C   UNL     1       7.609   6.947  17.885  0.00  0.00    +0.000 C 
ENDROOT
BRANCH   1   2
ATOM      2  C   UNL     1       7.930   8.431  17.765  0.00  0.00    +0.000 C 
BRANCH   2   3
ATOM      3  O   UNL     1       8.748   8.826  18.864  0.00  0.00    +0.000 OA
BRANCH   3   7
ATOM      4  C   UNL     1       9.704  12.875  19.184  0.00  0.00    +0.000 A 
ATOM      5  C   UNL     1       9.942  11.978  20.228  0.00  0.00    +0.000 A 
ATOM      6  C   UNL     1       9.621  10.625  20.083  0.00  0.00    +0.000 A 
ATOM      7  C   UNL     1       9.026  10.167  18.909  0.00  0.00    +0.000 A 
ATOM      8  C   UNL     1       8.789  11.063  17.866  0.00  0.00    +0.000 A 
ATOM      9  C   UNL     1       9.122  12.413  18.006  0.00  0.00    +0.000 A 
BRANCH   4  11
ATOM     10  C   UNL     1      11.323  14.573  18.946  0.00  0.00    +0.000 C 
ATOM     11  O   UNL     1      10.042  14.177  19.430  0.00  0.00    +0.000 OA
ENDBRANCH   4  11
ENDBRANCH   3   7
ENDBRANCH   2   3
ENDBRANCH   1   2
BRANCH   1  12
ATOM     12  C   UNL     1       6.510   6.590  16.888  0.00  0.00    +0.000 C 
BRANCH  12  13
ATOM     13  C   UNL     1       5.150   6.444  17.566  0.00  0.00    +0.000 C 
BRANCH  13  14
ATOM     14  N   UNL     1       4.676   5.045  17.607  0.00  0.00    +0.000 NA
ATOM     15  C   UNL     1       5.390   4.195  16.652  0.00  0.00    +0.000 C 
BRANCH  14  16
ATOM     16  C   UNL     1       4.818   4.491  18.973  0.00  0.00    +0.000 C 
BRANCH  16  17
ATOM     17  C   UNL     1       3.495   4.031  19.551  0.00  0.00    +0.000 A 
ATOM     18  C   UNL     1       3.047   2.717  19.348  0.00  0.00    +0.000 A 
ATOM     19  C   UNL     1       1.763   2.340  19.741  0.00  0.00    +0.000 A 
ATOM     20  C   UNL     1       0.921   3.271  20.354  0.00  0.00    +0.000 A 
ATOM     21  C   UNL     1       1.364   4.565  20.595  0.00  0.00    +0.000 A 
ATOM     22  C   UNL     1       2.651   4.948  20.199  0.00  0.00    +0.000 A 
ENDBRANCH  16  17
ENDBRANCH  14  16
ENDBRANCH  13  14
ENDBRANCH  12  13
ENDBRANCH   1  12
TORSDOF 9
ENDMDL
MODEL 7
REMARK VINA RESULT:      -6.0      3.000      6.446
REMARK  Name = 
REMARK  11 active torsions:
REMARK  status: ('A' for Active; 'I' for Inactive)
REMARK    1  A    between atoms: C_1  and  O_2
REMARK    2  A    between atoms: O_2  and  C_3
REMARK    3  A    between atoms: C_6  and  O_7
REMARK    4  A    between atoms: O_7  and  C_8
REMARK    5  A    between atoms: C_8  and  C_9
REMARK    6  A    between atoms: C_9  and  C_10
REMARK    7  A    between atoms: C_10  and  C_11
REMARK    8  A    between atoms: C_11  and  N_12
REMARK    9  A    between atoms: N_12  and  C_13
REMARK   10  A    between atoms: N_12  and  C_14
REMARK   11  A    between atoms: C_14  and  C_15
REMARK                            x       y       z     vdW  Elec       q    Type
REMARK                         _______ _______ _______ _____ _____    ______ ____
ROOT
ATOM      1  C   UNL     1       3.807   6.723  17.483  0.00  0.00    +0.000 C 
ENDROOT
BRANCH   1   2
ATOM      2  C   UNL     1       2.907   7.795  18.083  0.00  0.00    +0.000 C 
BRANCH   2   3
ATOM      3  O   UNL     1       2.294   7.288  19.266  0.00  0.00    +0.000 OA
BRANCH   3   7
ATOM      4  C   UNL     1       0.104  10.227  21.259  0.00  0.00    +0.000 A 
ATOM      5  C   UNL     1       0.479  10.369  19.921  0.00  0.00    +0.000 A 
ATOM      6  C   UNL     1       1.202   9.359  19.280  0.00  0.00    +0.000 A 
ATOM      7  C   UNL     1       1.587   8.218  19.981  0.00  0.00    +0.000 A 
ATOM      8  C   UNL     1       1.213   8.076  21.318  0.00  0.00    +0.000 A 
ATOM      9  C   UNL     1       0.478   9.079  21.955  0.00  0.00    +0.000 A 
BRANCH   4  11
ATOM     10  C   UNL     1      -1.227  11.004  23.043  0.00  0.00    +0.000 C 
ATOM     11  O   UNL     1      -0.591  11.275  21.798  0.00  0.00    +0.000 OA
ENDBRANCH   4  11
ENDBRANCH   3   7
ENDBRANCH   2   3
ENDBRANCH   1   2
BRANCH   1  12
ATOM     12  C   UNL     1       4.743   6.193  18.565  0.00  0.00    +0.000 C 
BRANCH  12  13
ATOM     13  C   UNL     1       5.288   4.809  18.220  0.00  0.00    +0.000 C 
BRANCH  13  14
ATOM     14  N   UNL     1       4.484   4.114  17.194  0.00  0.00    +0.000 NA
ATOM     15  C   UNL     1       5.270   3.802  15.999  0.00  0.00    +0.000 C 
BRANCH  14  16
ATOM     16  C   UNL     1       3.902   2.870  17.749  0.00  0.00    +0.000 C 
BRANCH  16  17
ATOM     17  C   UNL     1       3.049   3.127  18.974  0.00  0.00    +0.000 A 
ATOM     18  C   UNL     1       3.431   2.626  20.227  0.00  0.00    +0.000 A 
ATOM     19  C   UNL     1       2.571   2.725  21.320  0.00  0.00    +0.000 A 
ATOM     20  C   UNL     1       1.326   3.340  21.173  0.00  0.00    +0.000 A 
ATOM     21  C   UNL     1       0.948   3.874  19.947  0.00  0.00    +0.000 A 
ATOM     22  C   UNL     1       1.808   3.773  18.847  0.00  0.00    +0.000 A 
ENDBRANCH  16  17
ENDBRANCH  14  16
ENDBRANCH  13  14
ENDBRANCH  12  13
ENDBRANCH   1  12
TORSDOF 9
ENDMDL
MODEL 8
REMARK VINA RESULT:      -5.9      3.780      6.752
REMARK  Name = 
REMARK  11 active torsions:
REMARK  status: ('A' for Active; 'I' for Inactive)
REMARK    1  A    between atoms: C_1  and  O_2
REMARK    2  A    between atoms: O_2  and  C_3
REMARK    3  A    between atoms: C_6  and  O_7
REMARK    4  A    between atoms: O_7  and  C_8
REMARK    5  A    between atoms: C_8  and  C_9
REMARK    6  A    between atoms: C_9  and  C_10
REMARK    7  A    between atoms: C_10  and  C_11
REMARK    8  A    between atoms: C_11  and  N_12
REMARK    9  A    between atoms: N_12  and  C_13
REMARK   10  A    between atoms: N_12  and  C_14
REMARK   11  A    between atoms: C_14  and  C_15
REMARK                            x       y       z     vdW  Elec       q    Type
REMARK                         _______ _______ _______ _____ _____    ______ ____
ROOT
ATOM      1  C   UNL     1       7.815   7.393  18.135  0.00  0.00    +0.000 C 
ENDROOT
BRANCH   1   2
ATOM      2  C   UNL     1       8.222   8.846  17.926  0.00  0.00    +0.000 C 
BRANCH   2   3
ATOM      3  O   UNL     1       8.873   9.326  19.100  0.00  0.00    +0.000 OA
BRANCH   3   7
ATOM      4  C   UNL     1      10.512  13.160  18.935  0.00  0.00    +0.000 A 
ATOM      5  C   UNL     1      10.825  12.269  19.965  0.00  0.00    +0.000 A 
ATOM      6  C   UNL     1      10.267  10.988  19.983  0.00  0.00    +0.000 A 
ATOM      7  C   UNL     1       9.365  10.600  18.994  0.00  0.00    +0.000 A 
ATOM      8  C   UNL     1       9.053  11.490  17.965  0.00  0.00    +0.000 A 
ATOM      9  C   UNL     1       9.621  12.766  17.939  0.00  0.00    +0.000 A 
BRANCH   4  11
ATOM     10  C   UNL     1      10.846  15.109  20.219  0.00  0.00    +0.000 C 
ATOM     11  O   UNL     1      11.100  14.392  19.014  0.00  0.00    +0.000 OA
ENDBRANCH   4  11
ENDBRANCH   3   7
ENDBRANCH   2   3
ENDBRANCH   1   2
BRANCH   1  12
ATOM     12  C   UNL     1       6.718   7.032  17.137  0.00  0.00    +0.000 C 
BRANCH  12  13
ATOM     13  C   UNL     1       5.791   5.945  17.677  0.00  0.00    +0.000 C 
BRANCH  13  14
ATOM     14  N   UNL     1       4.913   5.371  16.637  0.00  0.00    +0.000 NA
ATOM     15  C   UNL     1       5.409   5.645  15.287  0.00  0.00    +0.000 C 
BRANCH  14  16
ATOM     16  C   UNL     1       4.772   3.909  16.830  0.00  0.00    +0.000 C 
BRANCH  16  17
ATOM     17  C   UNL     1       3.667   3.559  17.806  0.00  0.00    +0.000 A 
ATOM     18  C   UNL     1       2.347   3.965  17.564  0.00  0.00    +0.000 A 
ATOM     19  C   UNL     1       1.362   3.783  18.535  0.00  0.00    +0.000 A 
ATOM     20  C   UNL     1       1.688   3.179  19.752  0.00  0.00    +0.000 A 
ATOM     21  C   UNL     1       2.983   2.738  19.992  0.00  0.00    +0.000 A 
ATOM     22  C   UNL     1       3.974   2.923  19.021  0.00  0.00    +0.000 A 
ENDBRANCH  16  17
ENDBRANCH  14  16
ENDBRANCH  13  14
ENDBRANCH  12  13
ENDBRANCH   1  12
TORSDOF 9
ENDMDL
MODEL 9
REMARK VINA RESULT:      -5.9      3.732      6.637
REMARK  Name = 
REMARK  11 active torsions:
REMARK  status: ('A' for Active; 'I' for Inactive)
REMARK    1  A    between atoms: C_1  and  O_2
REMARK    2  A    between atoms: O_2  and  C_3
REMARK    3  A    between atoms: C_6  and  O_7
REMARK    4  A    between atoms: O_7  and  C_8
REMARK    5  A    between atoms: C_8  and  C_9
REMARK    6  A    between atoms: C_9  and  C_10
REMARK    7  A    between atoms: C_10  and  C_11
REMARK    8  A    between atoms: C_11  and  N_12
REMARK    9  A    between atoms: N_12  and  C_13
REMARK   10  A    between atoms: N_12  and  C_14
REMARK   11  A    between atoms: C_14  and  C_15
REMARK                            x       y       z     vdW  Elec       q    Type
REMARK                         _______ _______ _______ _____ _____    ______ ____
ROOT
ATOM      1  C   UNL     1       8.095   7.411  18.403  0.00  0.00    +0.000 C 
ENDROOT
BRANCH   1   2
ATOM      2  C   UNL     1       8.212   8.883  18.028  0.00  0.00    +0.000 C 
BRANCH   2   3
ATOM      3  O   UNL     1       8.976   9.562  19.023  0.00  0.00    +0.000 OA
BRANCH   3   7
ATOM      4  C   UNL     1      10.399  13.352  18.012  0.00  0.00    +0.000 A 
ATOM      5  C   UNL     1      11.140  12.477  18.810  0.00  0.00    +0.000 A 
ATOM      6  C   UNL     1      10.638  11.209  19.120  0.00  0.00    +0.000 A 
ATOM      7  C   UNL     1       9.379  10.822  18.665  0.00  0.00    +0.000 A 
ATOM      8  C   UNL     1       8.640  11.696  17.868  0.00  0.00    +0.000 A 
ATOM      9  C   UNL     1       9.147  12.958  17.547  0.00  0.00    +0.000 A 
BRANCH   4  11
ATOM     10  C   UNL     1      12.333  14.532  17.357  0.00  0.00    +0.000 C 
ATOM     11  O   UNL     1      10.971  14.572  17.777  0.00  0.00    +0.000 OA
ENDBRANCH   4  11
ENDBRANCH   3   7
ENDBRANCH   2   3
ENDBRANCH   1   2
BRANCH   1  12
ATOM     12  C   UNL     1       7.072   6.743  17.487  0.00  0.00    +0.000 C 
BRANCH  12  13
ATOM     13  C   UNL     1       6.157   5.791  18.254  0.00  0.00    +0.000 C 
BRANCH  13  14
ATOM     14  N   UNL     1       4.908   5.486  17.527  0.00  0.00    +0.000 NA
ATOM     15  C   UNL     1       5.037   5.725  16.089  0.00  0.00    +0.000 C 
BRANCH  14  16
ATOM     16  C   UNL     1       4.502   4.081  17.765  0.00  0.00    +0.000 C 
BRANCH  16  17
ATOM     17  C   UNL     1       3.510   3.951  18.904  0.00  0.00    +0.000 A 
ATOM     18  C   UNL     1       2.556   4.952  19.135  0.00  0.00    +0.000 A 
ATOM     19  C   UNL     1       1.750   4.911  20.273  0.00  0.00    +0.000 A 
ATOM     20  C   UNL     1       1.883   3.859  21.183  0.00  0.00    +0.000 A 
ATOM     21  C   UNL     1       2.799   2.841  20.948  0.00  0.00    +0.000 A 
ATOM     22  C   UNL     1       3.611   2.881  19.809  0.00  0.00    +0.000 A 
ENDBRANCH  16  17
ENDBRANCH  14  16
ENDBRANCH  13  14
ENDBRANCH  12  13
ENDBRANCH   1  12
TORSDOF 9
ENDMDL
