MODEL 1
REMARK VINA RESULT:      -7.1      0.000      0.000
REMARK  Name = 
REMARK  4 active torsions:
REMARK  status: ('A' for Active; 'I' for Inactive)
REMARK    1  A    between atoms: C_1  and  S_2
REMARK    2  A    between atoms: S_2  and  C_3
REMARK    3  A    between atoms: C_3  and  C_4
REMARK    4  A    between atoms: C_11  and  C_12
REMARK                            x       y       z     vdW  Elec       q    Type
REMARK                         _______ _______ _______ _____ _____    ______ ____
ROOT
ATOM      1  C   UNL     1       6.219   5.984  16.826  0.00  0.00    +0.000 C 
ATOM      2  C   UNL     1       5.673   6.013  15.401  0.00  0.00    +0.000 C 
ATOM      3  C   UNL     1       6.846   4.595  17.147  0.00  0.00    +0.000 C 
ATOM      4  O   UNL     1       7.793   4.054  16.594  0.00  0.00    +0.000 OA
ATOM      5  N   UNL     1       6.099   4.018  18.171  0.00  0.00    +0.000 N 
ATOM      6  C   UNL     1       5.050   4.835  18.555  0.00  0.00    +0.000 A 
ATOM      7  C   UNL     1       4.087   4.569  19.502  0.00  0.00    +0.000 A 
ATOM      8  C   UNL     1       3.103   5.541  19.715  0.00  0.00    +0.000 A 
ATOM      9  C   UNL     1       3.111   6.749  18.982  0.00  0.00    +0.000 A 
ATOM     10  C   UNL     1       4.105   6.986  18.022  0.00  0.00    +0.000 A 
ATOM     11  C   UNL     1       5.069   6.013  17.813  0.00  0.00    +0.000 A 
ATOM     12  H   UNL     1       6.311   3.105  18.547  0.00  0.00    +0.000 HD
ENDROOT
BRANCH   9  13
ATOM     13  C   UNL     1       2.098   7.829  19.235  0.00  0.00    +0.000 C 
ATOM     14  N   UNL     1       1.652   7.943  20.447  0.00  0.00    +0.000 NA
ATOM     15  N   UNL     1       0.699   8.846  20.756  0.00  0.00    +0.000 N 
ATOM     16  C   UNL     1       0.108   9.816  19.996  0.00  0.00    +0.000 C 
ATOM     17  O   UNL     1      -0.797  10.505  20.456  0.00  0.00    +0.000 OA
ATOM     18  S   UNL     1       0.708  10.103  18.398  0.00  0.00    +0.000 S 
ATOM     19  C   UNL     1       1.664   8.644  18.052  0.00  0.00    +0.000 C 
ATOM     20  H   UNL     1       0.355   8.795  21.710  0.00  0.00    +0.000 HD
ENDBRANCH   9  13
BRANCH   1  22
ATOM     21  C   UNL     1       8.130   6.780  18.752  0.00  0.00    +0.000 C 
ATOM     22  S   UNL     1       7.400   7.348  17.194  0.00  0.00    +0.000 S 
ENDBRANCH   1  22
TORSDOF 2
ENDMDL
MODEL 2
REMARK VINA RESULT:      -7.0      2.866      4.025
REMARK  Name = 
REMARK  4 active torsions:
REMARK  status: ('A' for Active; 'I' for Inactive)
REMARK    1  A    between atoms: C_1  and  S_2
REMARK    2  A    between atoms: S_2  and  C_3
REMARK    3  A    between atoms: C_3  and  C_4
REMARK    4  A    between atoms: C_11  and  C_12
REMARK                            x       y       z     vdW  Elec       q    Type
REMARK                         _______ _______ _______ _____ _____    ______ ____
ROOT
ATOM      1  C   UNL     1       2.885   3.034  19.034  0.00  0.00    +0.000 C 
ATOM      2  C   UNL     1       3.252   3.022  20.516  0.00  0.00    +0.000 C 
ATOM      3  C   UNL     1       3.898   2.183  18.210  0.00  0.00    +0.000 C 
ATOM      4  O   UNL     1       4.132   0.988  18.316  0.00  0.00    +0.000 OA
ATOM      5  N   UNL     1       4.559   3.040  17.334  0.00  0.00    +0.000 N 
ATOM      6  C   UNL     1       4.130   4.347  17.483  0.00  0.00    +0.000 A 
ATOM      7  C   UNL     1       4.593   5.459  16.817  0.00  0.00    +0.000 A 
ATOM      8  C   UNL     1       4.021   6.694  17.145  0.00  0.00    +0.000 A 
ATOM      9  C   UNL     1       3.004   6.782  18.122  0.00  0.00    +0.000 A 
ATOM     10  C   UNL     1       2.558   5.629  18.784  0.00  0.00    +0.000 A 
ATOM     11  C   UNL     1       3.138   4.414  18.458  0.00  0.00    +0.000 A 
ATOM     12  H   UNL     1       5.273   2.716  16.697  0.00  0.00    +0.000 HD
ENDROOT
BRANCH   9  13
ATOM     13  C   UNL     1       2.338   8.088  18.448  0.00  0.00    +0.000 C 
ATOM     14  N   UNL     1       2.329   8.991  17.517  0.00  0.00    +0.000 NA
ATOM     15  N   UNL     1       1.804  10.213  17.739  0.00  0.00    +0.000 N 
ATOM     16  C   UNL     1       1.141  10.718  18.822  0.00  0.00    +0.000 C 
ATOM     17  O   UNL     1       0.793  11.894  18.849  0.00  0.00    +0.000 OA
ATOM     18  S   UNL     1       0.741   9.652  20.124  0.00  0.00    +0.000 S 
ATOM     19  C   UNL     1       1.786   8.242  19.835  0.00  0.00    +0.000 C 
ATOM     20  H   UNL     1       1.926  10.876  16.978  0.00  0.00    +0.000 HD
ENDBRANCH   9  13
BRANCH   1  22
ATOM     21  C   UNL     1       0.301   3.111  20.180  0.00  0.00    +0.000 C 
ATOM     22  S   UNL     1       1.152   2.517  18.694  0.00  0.00    +0.000 S 
ENDBRANCH   1  22
TORSDOF 2
ENDMDL
MODEL 3
REMARK VINA RESULT:      -6.9      1.359      1.414
REMARK  Name = 
REMARK  4 active torsions:
REMARK  status: ('A' for Active; 'I' for Inactive)
REMARK    1  A    between atoms: C_1  and  S_2
REMARK    2  A    between atoms: S_2  and  C_3
REMARK    3  A    between atoms: C_3  and  C_4
REMARK    4  A    between atoms: C_11  and  C_12
REMARK                            x       y       z     vdW  Elec       q    Type
REMARK                         _______ _______ _______ _____ _____    ______ ____
ROOT
ATOM      1  C   UNL     1       5.853   6.027  16.613  0.00  0.00    +0.000 C 
ATOM      2  C   UNL     1       5.477   6.303  15.160  0.00  0.00    +0.000 C 
ATOM      3  C   UNL     1       6.206   4.523  16.814  0.00  0.00    +0.000 C 
ATOM      4  O   UNL     1       7.107   3.888  16.285  0.00  0.00    +0.000 OA
ATOM      5  N   UNL     1       5.268   3.978  17.687  0.00  0.00    +0.000 N 
ATOM      6  C   UNL     1       4.331   4.920  18.075  0.00  0.00    +0.000 A 
ATOM      7  C   UNL     1       3.239   4.725  18.891  0.00  0.00    +0.000 A 
ATOM      8  C   UNL     1       2.409   5.826  19.134  0.00  0.00    +0.000 A 
ATOM      9  C   UNL     1       2.694   7.086  18.561  0.00  0.00    +0.000 A 
ATOM     10  C   UNL     1       3.812   7.248  17.732  0.00  0.00    +0.000 A 
ATOM     11  C   UNL     1       4.622   6.149  17.490  0.00  0.00    +0.000 A 
ATOM     12  H   UNL     1       5.287   3.008  17.964  0.00  0.00    +0.000 HD
ENDROOT
BRANCH   9  13
ATOM     13  C   UNL     1       1.849   8.292  18.855  0.00  0.00    +0.000 C 
ATOM     14  N   UNL     1       1.604   9.093  17.864  0.00  0.00    +0.000 NA
ATOM     15  N   UNL     1       0.903  10.230  18.046  0.00  0.00    +0.000 N 
ATOM     16  C   UNL     1       0.264  10.719  19.151  0.00  0.00    +0.000 C 
ATOM     17  O   UNL     1      -0.273  11.821  19.125  0.00  0.00    +0.000 OA
ATOM     18  S   UNL     1       0.168   9.725  20.565  0.00  0.00    +0.000 S 
ATOM     19  C   UNL     1       1.405   8.482  20.276  0.00  0.00    +0.000 C 
ATOM     20  H   UNL     1       0.842  10.831  17.229  0.00  0.00    +0.000 HD
ENDBRANCH   9  13
BRANCH   1  22
ATOM     21  C   UNL     1       7.707   6.217  18.740  0.00  0.00    +0.000 C 
ATOM     22  S   UNL     1       7.192   7.115  17.253  0.00  0.00    +0.000 S 
ENDBRANCH   1  22
TORSDOF 2
ENDMDL
MODEL 4
REMARK VINA RESULT:      -6.8      3.676      7.226
REMARK  Name = 
REMARK  4 active torsions:
REMARK  status: ('A' for Active; 'I' for Inactive)
REMARK    1  A    between atoms: C_1  and  S_2
REMARK    2  A    between atoms: S_2  and  C_3
REMARK    3  A    between atoms: C_3  and  C_4
REMARK    4  A    between atoms: C_11  and  C_12
REMARK                            x       y       z     vdW  Elec       q    Type
REMARK                         _______ _______ _______ _____ _____    ______ ____
ROOT
ATOM      1  C   UNL     1       2.861   3.995  18.837  0.00  0.00    +0.000 C 
ATOM      2  C   UNL     1       1.618   3.440  18.146  0.00  0.00    +0.000 C 
ATOM      3  C   UNL     1       2.479   5.137  19.825  0.00  0.00    +0.000 C 
ATOM      4  O   UNL     1       1.758   5.064  20.810  0.00  0.00    +0.000 OA
ATOM      5  N   UNL     1       3.067   6.312  19.365  0.00  0.00    +0.000 N 
ATOM      6  C   UNL     1       3.773   6.101  18.194  0.00  0.00    +0.000 A 
ATOM      7  C   UNL     1       4.440   7.039  17.440  0.00  0.00    +0.000 A 
ATOM      8  C   UNL     1       5.074   6.598  16.271  0.00  0.00    +0.000 A 
ATOM      9  C   UNL     1       5.027   5.238  15.894  0.00  0.00    +0.000 A 
ATOM     10  C   UNL     1       4.335   4.309  16.684  0.00  0.00    +0.000 A 
ATOM     11  C   UNL     1       3.704   4.758  17.833  0.00  0.00    +0.000 A 
ATOM     12  H   UNL     1       2.954   7.195  19.841  0.00  0.00    +0.000 HD
ENDROOT
BRANCH   9  13
ATOM     13  C   UNL     1       5.748   4.734  14.676  0.00  0.00    +0.000 C 
ATOM     14  N   UNL     1       5.137   3.843  13.959  0.00  0.00    +0.000 NA
ATOM     15  N   UNL     1       5.730   3.292  12.881  0.00  0.00    +0.000 N 
ATOM     16  C   UNL     1       6.927   3.566  12.282  0.00  0.00    +0.000 C 
ATOM     17  O   UNL     1       7.318   2.897  11.331  0.00  0.00    +0.000 OA
ATOM     18  S   UNL     1       7.849   4.918  12.845  0.00  0.00    +0.000 S 
ATOM     19  C   UNL     1       7.125   5.276  14.429  0.00  0.00    +0.000 C 
ATOM     20  H   UNL     1       5.206   2.541  12.440  0.00  0.00    +0.000 HD
ENDBRANCH   9  13
BRANCH   1  22
ATOM     21  C   UNL     1       3.667   1.299  18.553  0.00  0.00    +0.000 C 
ATOM     22  S   UNL     1       3.883   2.710  19.669  0.00  0.00    +0.000 S 
ENDBRANCH   1  22
TORSDOF 2
ENDMDL
MODEL 5
REMARK VINA RESULT:      -6.8      3.935      7.027
REMARK  Name = 
REMARK  4 active torsions:
REMARK  status: ('A' for Active; 'I' for Inactive)
REMARK    1  A    between atoms: C_1  and  S_2
REMARK    2  A    between atoms: S_2  and  C_3
REMARK    3  A    between atoms: C_3  and  C_4
REMARK    4  A    between atoms: C_11  and  C_12
REMARK                            x       y       z     vdW  Elec       q    Type
REMARK                         _______ _______ _______ _____ _____    ______ ____
ROOT
ATOM      1  C   UNL     1       2.426   3.955  18.580  0.00  0.00    +0.000 C 
ATOM      2  C   UNL     1       1.357   4.838  17.943  0.00  0.00    +0.000 C 
ATOM      3  C   UNL     1       2.557   4.260  20.103  0.00  0.00    +0.000 C 
ATOM      4  O   UNL     1       1.701   4.137  20.967  0.00  0.00    +0.000 OA
ATOM      5  N   UNL     1       3.836   4.764  20.327  0.00  0.00    +0.000 N 
ATOM      6  C   UNL     1       4.561   4.848  19.151  0.00  0.00    +0.000 A 
ATOM      7  C   UNL     1       5.837   5.339  18.990  0.00  0.00    +0.000 A 
ATOM      8  C   UNL     1       6.369   5.345  17.695  0.00  0.00    +0.000 A 
ATOM      9  C   UNL     1       5.615   4.861  16.603  0.00  0.00    +0.000 A 
ATOM     10  C   UNL     1       4.316   4.372  16.802  0.00  0.00    +0.000 A 
ATOM     11  C   UNL     1       3.797   4.378  18.087  0.00  0.00    +0.000 A 
ATOM     12  H   UNL     1       4.154   5.042  21.244  0.00  0.00    +0.000 HD
ENDROOT
BRANCH   9  13
ATOM     13  C   UNL     1       6.187   4.806  15.215  0.00  0.00    +0.000 C 
ATOM     14  N   UNL     1       7.284   5.466  15.006  0.00  0.00    +0.000 NA
ATOM     15  N   UNL     1       7.839   5.522  13.779  0.00  0.00    +0.000 N 
ATOM     16  C   UNL     1       7.495   4.897  12.613  0.00  0.00    +0.000 C 
ATOM     17  O   UNL     1       8.102   5.134  11.574  0.00  0.00    +0.000 OA
ATOM     18  S   UNL     1       6.232   3.714  12.645  0.00  0.00    +0.000 S 
ATOM     19  C   UNL     1       5.412   4.031  14.190  0.00  0.00    +0.000 C 
ATOM     20  H   UNL     1       8.645   6.136  13.701  0.00  0.00    +0.000 HD
ENDBRANCH   9  13
BRANCH   1  22
ATOM     21  C   UNL     1       3.727   1.467  18.919  0.00  0.00    +0.000 C 
ATOM     22  S   UNL     1       2.177   2.156  18.282  0.00  0.00    +0.000 S 
ENDBRANCH   1  22
TORSDOF 2
ENDMDL
MODEL 6
REMARK VINA RESULT:      -6.7      1.504      1.510
REMARK  Name = 
REMARK  4 active torsions:
REMARK  status: ('A' for Active; 'I' for Inactive)
REMARK    1  A    between atoms: C_1  and  S_2
REMARK    2  A    between atoms: S_2  and  C_3
REMARK    3  A    between atoms: C_3  and  C_4
REMARK    4  A    between atoms: C_11  and  C_12
REMARK                            x       y       z     vdW  Elec       q    Type
REMARK                         _______ _______ _______ _____ _____    ______ ____
ROOT
ATOM      1  C   UNL     1       5.466   5.578  16.674  0.00  0.00    +0.000 C 
ATOM      2  C   UNL     1       5.372   6.527  15.483  0.00  0.00    +0.000 C 
ATOM      3  C   UNL     1       5.388   4.095  16.204  0.00  0.00    +0.000 C 
ATOM      4  O   UNL     1       6.156   3.505  15.458  0.00  0.00    +0.000 OA
ATOM      5  N   UNL     1       4.233   3.537  16.744  0.00  0.00    +0.000 N 
ATOM      6  C   UNL     1       3.528   4.461  17.496  0.00  0.00    +0.000 A 
ATOM      7  C   UNL     1       2.324   4.272  18.138  0.00  0.00    +0.000 A 
ATOM      8  C   UNL     1       1.782   5.362  18.829  0.00  0.00    +0.000 A 
ATOM      9  C   UNL     1       2.457   6.604  18.863  0.00  0.00    +0.000 A 
ATOM     10  C   UNL     1       3.680   6.761  18.196  0.00  0.00    +0.000 A 
ATOM     11  C   UNL     1       4.202   5.679  17.507  0.00  0.00    +0.000 A 
ATOM     12  H   UNL     1       3.963   2.579  16.572  0.00  0.00    +0.000 HD
ENDROOT
BRANCH   9  13
ATOM     13  C   UNL     1       1.921   7.768  19.646  0.00  0.00    +0.000 C 
ATOM     14  N   UNL     1       1.918   7.655  20.938  0.00  0.00    +0.000 NA
ATOM     15  N   UNL     1       1.404   8.626  21.719  0.00  0.00    +0.000 N 
ATOM     16  C   UNL     1       0.911   9.861  21.403  0.00  0.00    +0.000 C 
ATOM     17  O   UNL     1       0.425  10.580  22.269  0.00  0.00    +0.000 OA
ATOM     18  S   UNL     1       1.050  10.419  19.771  0.00  0.00    +0.000 S 
ATOM     19  C   UNL     1       1.398   8.933  18.858  0.00  0.00    +0.000 C 
ATOM     20  H   UNL     1       1.368   8.404  22.710  0.00  0.00    +0.000 HD
ENDBRANCH   9  13
BRANCH   1  22
ATOM     21  C   UNL     1       7.318   7.597  17.372  0.00  0.00    +0.000 C 
ATOM     22  S   UNL     1       6.943   5.862  17.735  0.00  0.00    +0.000 S 
ENDBRANCH   1  22
TORSDOF 2
ENDMDL
MODEL 7
REMARK VINA RESULT:      -6.7      2.793      3.919
REMARK  Name = 
REMARK  4 active torsions:
REMARK  status: ('A' for Active; 'I' for Inactive)
REMARK    1  A    between atoms: C_1  and  S_2
REMARK    2  A    between atoms: S_2  and  C_3
REMARK    3  A    between atoms: C_3  and  C_4
REMARK    4  A    between atoms: C_11  and  C_12
REMARK                            x       y       z     vdW  Elec       q    Type
REMARK                         _______ _______ _______ _____ _____    ______ ____
ROOT
ATOM      1  C   UNL     1       3.010   3.176  20.084  0.00  0.00    +0.000 C 
ATOM      2  C   UNL     1       2.796   3.240  21.594  0.00  0.00    +0.000 C 
ATOM      3  C   UNL     1       4.374   2.502  19.749  0.00  0.00    +0.000 C 
ATOM      4  O   UNL     1       4.733   1.365  20.018  0.00  0.00    +0.000 OA
ATOM      5  N   UNL     1       5.173   3.451  19.117  0.00  0.00    +0.000 N 
ATOM      6  C   UNL     1       4.523   4.668  19.005  0.00  0.00    +0.000 A 
ATOM      7  C   UNL     1       5.023   5.837  18.477  0.00  0.00    +0.000 A 
ATOM      8  C   UNL     1       4.187   6.960  18.485  0.00  0.00    +0.000 A 
ATOM      9  C   UNL     1       2.879   6.883  19.015  0.00  0.00    +0.000 A 
ATOM     10  C   UNL     1       2.403   5.676  19.548  0.00  0.00    +0.000 A 
ATOM     11  C   UNL     1       3.242   4.574  19.543  0.00  0.00    +0.000 A 
ATOM     12  H   UNL     1       6.113   3.248  18.809  0.00  0.00    +0.000 HD
ENDROOT
BRANCH   9  13
ATOM     13  C   UNL     1       1.947   8.059  18.982  0.00  0.00    +0.000 C 
ATOM     14  N   UNL     1       1.738   8.610  17.826  0.00  0.00    +0.000 NA
ATOM     15  N   UNL     1       0.961   9.706  17.709  0.00  0.00    +0.000 N 
ATOM     16  C   UNL     1       0.210  10.372  18.635  0.00  0.00    +0.000 C 
ATOM     17  O   UNL     1      -0.385  11.402  18.334  0.00  0.00    +0.000 OA
ATOM     18  S   UNL     1       0.056   9.699  20.222  0.00  0.00    +0.000 S 
ATOM     19  C   UNL     1       1.380   8.515  20.295  0.00  0.00    +0.000 C 
ATOM     20  H   UNL     1       0.933  10.113  16.778  0.00  0.00    +0.000 HD
ENDBRANCH   9  13
BRANCH   1  22
ATOM     21  C   UNL     1       2.343   2.196  17.517  0.00  0.00    +0.000 C 
ATOM     22  S   UNL     1       1.628   2.370  19.173  0.00  0.00    +0.000 S 
ENDBRANCH   1  22
TORSDOF 2
ENDMDL
MODEL 8
REMARK VINA RESULT:      -6.6      2.915      3.856
REMARK  Name = 
REMARK  4 active torsions:
REMARK  status: ('A' for Active; 'I' for Inactive)
REMARK    1  A    between atoms: C_1  and  S_2
REMARK    2  A    between atoms: S_2  and  C_3
REMARK    3  A    between atoms: C_3  and  C_4
REMARK    4  A    between atoms: C_11  and  C_12
REMARK                            x       y       z     vdW  Elec       q    Type
REMARK                         _______ _______ _______ _____ _____    ______ ____
ROOT
ATOM      1  C   UNL     1       2.941   4.191  19.145  0.00  0.00    +0.000 C 
ATOM      2  C   UNL     1       3.810   3.927  20.372  0.00  0.00    +0.000 C 
ATOM      3  C   UNL     1       3.743   3.930  17.835  0.00  0.00    +0.000 C 
ATOM      4  O   UNL     1       4.245   2.879  17.462  0.00  0.00    +0.000 OA
ATOM      5  N   UNL     1       3.848   5.139  17.153  0.00  0.00    +0.000 N 
ATOM      6  C   UNL     1       3.236   6.168  17.847  0.00  0.00    +0.000 A 
ATOM      7  C   UNL     1       3.183   7.497  17.495  0.00  0.00    +0.000 A 
ATOM      8  C   UNL     1       2.522   8.371  18.366  0.00  0.00    +0.000 A 
ATOM      9  C   UNL     1       1.931   7.893  19.558  0.00  0.00    +0.000 A 
ATOM     10  C   UNL     1       2.007   6.533  19.887  0.00  0.00    +0.000 A 
ATOM     11  C   UNL     1       2.672   5.678  19.022  0.00  0.00    +0.000 A 
ATOM     12  H   UNL     1       4.335   5.222  16.272  0.00  0.00    +0.000 HD
ENDROOT
BRANCH   9  13
ATOM     13  C   UNL     1       1.168   8.803  20.477  0.00  0.00    +0.000 C 
ATOM     14  N   UNL     1       1.223   8.537  21.745  0.00  0.00    +0.000 NA
ATOM     15  N   UNL     1       0.524   9.265  22.639  0.00  0.00    +0.000 N 
ATOM     16  C   UNL     1      -0.240  10.386  22.477  0.00  0.00    +0.000 C 
ATOM     17  O   UNL     1      -0.854  10.867  23.424  0.00  0.00    +0.000 OA
ATOM     18  S   UNL     1      -0.271  11.155  20.927  0.00  0.00    +0.000 S 
ATOM     19  C   UNL     1       0.377   9.908  19.838  0.00  0.00    +0.000 C 
ATOM     20  H   UNL     1       0.563   8.922  23.595  0.00  0.00    +0.000 HD
ENDBRANCH   9  13
BRANCH   1  22
ATOM     21  C   UNL     1       1.192   2.828  20.900  0.00  0.00    +0.000 C 
ATOM     22  S   UNL     1       1.352   3.262  19.148  0.00  0.00    +0.000 S 
ENDBRANCH   1  22
TORSDOF 2
ENDMDL
MODEL 9
REMARK VINA RESULT:      -6.6      3.694      6.975
REMARK  Name = 
REMARK  4 active torsions:
REMARK  status: ('A' for Active; 'I' for Inactive)
REMARK    1  A    between atoms: C_1  and  S_2
REMARK    2  A    between atoms: S_2  and  C_3
REMARK    3  A    between atoms: C_3  and  C_4
REMARK    4  A    between atoms: C_11  and  C_12
REMARK                            x       y       z     vdW  Elec       q    Type
REMARK                         _______ _______ _______ _____ _____    ______ ____
ROOT
ATOM      1  C   UNL     1       2.719   3.712  19.157  0.00  0.00    +0.000 C 
ATOM      2  C   UNL     1       1.546   3.125  18.376  0.00  0.00    +0.000 C 
ATOM      3  C   UNL     1       2.214   4.714  20.238  0.00  0.00    +0.000 C 
ATOM      4  O   UNL     1       1.479   4.482  21.187  0.00  0.00    +0.000 OA
ATOM      5  N   UNL     1       2.707   5.975  19.914  0.00  0.00    +0.000 N 
ATOM      6  C   UNL     1       3.457   5.942  18.751  0.00  0.00    +0.000 A 
ATOM      7  C   UNL     1       4.057   7.004  18.113  0.00  0.00    +0.000 A 
ATOM      8  C   UNL     1       4.754   6.737  16.929  0.00  0.00    +0.000 A 
ATOM      9  C   UNL     1       4.836   5.422  16.420  0.00  0.00    +0.000 A 
ATOM     10  C   UNL     1       4.210   4.363  17.093  0.00  0.00    +0.000 A 
ATOM     11  C   UNL     1       3.514   4.640  18.259  0.00  0.00    +0.000 A 
ATOM     12  H   UNL     1       2.505   6.793  20.469  0.00  0.00    +0.000 HD
ENDROOT
BRANCH   9  13
ATOM     13  C   UNL     1       5.627   5.105  15.183  0.00  0.00    +0.000 C 
ATOM     14  N   UNL     1       6.784   5.680  15.063  0.00  0.00    +0.000 NA
ATOM     15  N   UNL     1       7.538   5.500  13.960  0.00  0.00    +0.000 N 
ATOM     16  C   UNL     1       7.354   4.694  12.873  0.00  0.00    +0.000 C 
ATOM     17  O   UNL     1       8.140   4.723  11.932  0.00  0.00    +0.000 OA
ATOM     18  S   UNL     1       6.030   3.579  12.879  0.00  0.00    +0.000 S 
ATOM     19  C   UNL     1       4.986   4.190  14.181  0.00  0.00    +0.000 C 
ATOM     20  H   UNL     1       8.384   6.063  13.923  0.00  0.00    +0.000 HD
ENDBRANCH   9  13
BRANCH   1  22
ATOM     21  C   UNL     1       3.780   1.144  18.630  0.00  0.00    +0.000 C 
ATOM     22  S   UNL     1       3.829   2.443  19.893  0.00  0.00    +0.000 S 
ENDBRANCH   1  22
TORSDOF 2
ENDMDL
