MODEL 1
REMARK VINA RESULT:      -8.7      0.000      0.000
REMARK  Name = 
REMARK  6 active torsions:
REMARK  status: ('A' for Active; 'I' for Inactive)
REMARK    1  A    between atoms: C_1  and  C_2
REMARK    2  A    between atoms: C_5  and  N_6
REMARK    3  A    between atoms: N_6  and  C_7
REMARK    4  A    between atoms: C_16  and  N_17
REMARK    5  A    between atoms: C_19  and  C_20
REMARK    6  A    between atoms: C_22  and  C_23
REMARK                            x       y       z     vdW  Elec       q    Type
REMARK                         _______ _______ _______ _____ _____    ______ ____
ROOT
ATOM      1  C   UNL     1       5.424   5.414  16.195  0.00  0.00    +0.000 A 
ATOM      2  N   UNL     1       4.798   4.707  15.218  0.00  0.00    +0.000 NA
ATOM      3  C   UNL     1       5.498   4.354  14.129  0.00  0.00    +0.000 A 
ATOM      4  C   UNL     1       4.884   3.586  13.149  0.00  0.00    +0.000 A 
ATOM      5  C   UNL     1       5.580   3.160  12.019  0.00  0.00    +0.000 A 
ATOM      6  C   UNL     1       6.914   3.515  11.865  0.00  0.00    +0.000 A 
ATOM      7  C   UNL     1       7.532   4.308  12.835  0.00  0.00    +0.000 A 
ATOM      8  C   UNL     1       6.844   4.737  13.961  0.00  0.00    +0.000 A 
ATOM      9  N   UNL     1       7.468   5.492  14.882  0.00  0.00    +0.000 NA
ATOM     10  C   UNL     1       6.760   5.801  16.013  0.00  0.00    +0.000 A 
ENDROOT
BRANCH  10  11
ATOM     11  N   UNL     1       7.435   6.547  17.027  0.00  0.00    +0.000 N 
ATOM     12  N   UNL     1       7.697   7.884  16.877  0.00  0.00    +0.000 NA
ATOM     13  C   UNL     1       8.145   8.281  18.074  0.00  0.00    +0.000 A 
ATOM     14  C   UNL     1       8.450   9.708  18.341  0.00  0.00    +0.000 C 
ATOM     15  C   UNL     1       8.282   7.203  18.968  0.00  0.00    +0.000 A 
ATOM     16  C   UNL     1       7.840   6.096  18.278  0.00  0.00    +0.000 A 
ATOM     17  C   UNL     1       7.840   4.667  18.685  0.00  0.00    +0.000 C 
ENDBRANCH  10  11
BRANCH   1  18
ATOM     18  N   UNL     1       4.660   5.825  17.297  0.00  0.00    +0.000 N 
ATOM     19  H   UNL     1       4.923   6.747  17.640  0.00  0.00    +0.000 HD
BRANCH  18  24
ATOM     20  C   UNL     1       1.204   2.646  20.580  0.00  0.00    +0.000 C 
ATOM     21  C   UNL     1       2.118   3.466  19.723  0.00  0.00    +0.000 A 
ATOM     22  C   UNL     1       3.507   3.424  19.888  0.00  0.00    +0.000 A 
ATOM     23  C   UNL     1       4.345   4.211  19.087  0.00  0.00    +0.000 A 
ATOM     24  C   UNL     1       3.813   5.052  18.105  0.00  0.00    +0.000 A 
ATOM     25  C   UNL     1       2.423   5.069  17.932  0.00  0.00    +0.000 A 
ATOM     26  C   UNL     1       1.582   4.298  18.738  0.00  0.00    +0.000 A 
ENDBRANCH  18  24
ENDBRANCH   1  18
TORSDOF 3
ENDMDL
MODEL 2
REMARK VINA RESULT:      -7.9      1.526      2.158
REMARK  Name = 
REMARK  6 active torsions:
REMARK  status: ('A' for Active; 'I' for Inactive)
REMARK    1  A    between atoms: C_1  and  C_2
REMARK    2  A    between atoms: C_5  and  N_6
REMARK    3  A    between atoms: N_6  and  C_7
REMARK    4  A    between atoms: C_16  and  N_17
REMARK    5  A    between atoms: C_19  and  C_20
REMARK    6  A    between atoms: C_22  and  C_23
REMARK                            x       y       z     vdW  Elec       q    Type
REMARK                         _______ _______ _______ _____ _____    ______ ____
ROOT
ATOM      1  C   UNL     1       5.633   4.984  16.395  0.00  0.00    +0.000 A 
ATOM      2  N   UNL     1       5.034   4.233  15.436  0.00  0.00    +0.000 NA
ATOM      3  C   UNL     1       5.633   4.116  14.240  0.00  0.00    +0.000 A 
ATOM      4  C   UNL     1       5.056   3.308  13.270  0.00  0.00    +0.000 A 
ATOM      5  C   UNL     1       5.662   3.123  12.028  0.00  0.00    +0.000 A 
ATOM      6  C   UNL     1       6.862   3.763  11.751  0.00  0.00    +0.000 A 
ATOM      7  C   UNL     1       7.434   4.598  12.713  0.00  0.00    +0.000 A 
ATOM      8  C   UNL     1       6.838   4.788  13.951  0.00  0.00    +0.000 A 
ATOM      9  N   UNL     1       7.417   5.591  14.861  0.00  0.00    +0.000 NA
ATOM     10  C   UNL     1       6.825   5.660  16.094  0.00  0.00    +0.000 A 
ENDROOT
BRANCH  10  11
ATOM     11  N   UNL     1       7.469   6.457  17.088  0.00  0.00    +0.000 N 
ATOM     12  N   UNL     1       7.695   7.795  16.896  0.00  0.00    +0.000 NA
ATOM     13  C   UNL     1       8.120   8.244  18.082  0.00  0.00    +0.000 A 
ATOM     14  C   UNL     1       8.384   9.687  18.304  0.00  0.00    +0.000 C 
ATOM     15  C   UNL     1       8.278   7.201  19.014  0.00  0.00    +0.000 A 
ATOM     16  C   UNL     1       7.874   6.059  18.357  0.00  0.00    +0.000 A 
ATOM     17  C   UNL     1       7.909   4.645  18.812  0.00  0.00    +0.000 C 
ENDBRANCH  10  11
BRANCH   1  18
ATOM     18  N   UNL     1       4.962   5.143  17.617  0.00  0.00    +0.000 N 
ATOM     19  H   UNL     1       5.014   4.316  18.209  0.00  0.00    +0.000 HD
BRANCH  18  24
ATOM     20  C   UNL     1       1.221   9.219  19.109  0.00  0.00    +0.000 C 
ATOM     21  C   UNL     1       2.190   8.142  18.725  0.00  0.00    +0.000 A 
ATOM     22  C   UNL     1       2.365   7.002  19.517  0.00  0.00    +0.000 A 
ATOM     23  C   UNL     1       3.288   6.014  19.150  0.00  0.00    +0.000 A 
ATOM     24  C   UNL     1       4.051   6.144  17.985  0.00  0.00    +0.000 A 
ATOM     25  C   UNL     1       3.850   7.278  17.188  0.00  0.00    +0.000 A 
ATOM     26  C   UNL     1       2.943   8.274  17.557  0.00  0.00    +0.000 A 
ENDBRANCH  18  24
ENDBRANCH   1  18
TORSDOF 3
ENDMDL
MODEL 3
REMARK VINA RESULT:      -7.8      2.794      5.643
REMARK  Name = 
REMARK  6 active torsions:
REMARK  status: ('A' for Active; 'I' for Inactive)
REMARK    1  A    between atoms: C_1  and  C_2
REMARK    2  A    between atoms: C_5  and  N_6
REMARK    3  A    between atoms: N_6  and  C_7
REMARK    4  A    between atoms: C_16  and  N_17
REMARK    5  A    between atoms: C_19  and  C_20
REMARK    6  A    between atoms: C_22  and  C_23
REMARK                            x       y       z     vdW  Elec       q    Type
REMARK                         _______ _______ _______ _____ _____    ______ ____
ROOT
ATOM      1  C   UNL     1       4.059   5.719  18.390  0.00  0.00    +0.000 A 
ATOM      2  N   UNL     1       5.037   6.281  17.634  0.00  0.00    +0.000 NA
ATOM      3  C   UNL     1       5.612   5.543  16.671  0.00  0.00    +0.000 A 
ATOM      4  C   UNL     1       6.574   6.124  15.857  0.00  0.00    +0.000 A 
ATOM      5  C   UNL     1       7.171   5.411  14.818  0.00  0.00    +0.000 A 
ATOM      6  C   UNL     1       6.801   4.090  14.596  0.00  0.00    +0.000 A 
ATOM      7  C   UNL     1       5.852   3.492  15.428  0.00  0.00    +0.000 A 
ATOM      8  C   UNL     1       5.254   4.196  16.464  0.00  0.00    +0.000 A 
ATOM      9  N   UNL     1       4.337   3.595  17.242  0.00  0.00    +0.000 NA
ATOM     10  C   UNL     1       3.720   4.374  18.186  0.00  0.00    +0.000 A 
ENDROOT
BRANCH  10  11
ATOM     11  N   UNL     1       2.697   3.763  18.973  0.00  0.00    +0.000 N 
ATOM     12  N   UNL     1       2.967   3.223  20.203  0.00  0.00    +0.000 NA
ATOM     13  C   UNL     1       1.768   2.933  20.720  0.00  0.00    +0.000 A 
ATOM     14  C   UNL     1       1.638   2.410  22.102  0.00  0.00    +0.000 C 
ATOM     15  C   UNL     1       0.728   3.174  19.804  0.00  0.00    +0.000 A 
ATOM     16  C   UNL     1       1.339   3.689  18.682  0.00  0.00    +0.000 A 
ATOM     17  C   UNL     1       0.752   4.043  17.364  0.00  0.00    +0.000 C 
ENDBRANCH  10  11
BRANCH   1  18
ATOM     18  N   UNL     1       3.513   6.488  19.430  0.00  0.00    +0.000 N 
ATOM     19  H   UNL     1       3.717   6.109  20.353  0.00  0.00    +0.000 HD
BRANCH  18  24
ATOM     20  C   UNL     1      -0.412  10.648  19.094  0.00  0.00    +0.000 C 
ATOM     21  C   UNL     1       0.622   9.568  19.171  0.00  0.00    +0.000 A 
ATOM     22  C   UNL     1       1.380   9.201  18.054  0.00  0.00    +0.000 A 
ATOM     23  C   UNL     1       2.332   8.177  18.141  0.00  0.00    +0.000 A 
ATOM     24  C   UNL     1       2.547   7.501  19.346  0.00  0.00    +0.000 A 
ATOM     25  C   UNL     1       1.800   7.892  20.465  0.00  0.00    +0.000 A 
ATOM     26  C   UNL     1       0.839   8.902  20.379  0.00  0.00    +0.000 A 
ENDBRANCH  18  24
ENDBRANCH   1  18
TORSDOF 3
ENDMDL
MODEL 4
REMARK VINA RESULT:      -7.6      1.496      2.265
REMARK  Name = 
REMARK  6 active torsions:
REMARK  status: ('A' for Active; 'I' for Inactive)
REMARK    1  A    between atoms: C_1  and  C_2
REMARK    2  A    between atoms: C_5  and  N_6
REMARK    3  A    between atoms: N_6  and  C_7
REMARK    4  A    between atoms: C_16  and  N_17
REMARK    5  A    between atoms: C_19  and  C_20
REMARK    6  A    between atoms: C_22  and  C_23
REMARK                            x       y       z     vdW  Elec       q    Type
REMARK                         _______ _______ _______ _____ _____    ______ ____
ROOT
ATOM      1  C   UNL     1       5.706   4.132  16.315  0.00  0.00    +0.000 A 
ATOM      2  N   UNL     1       5.266   3.648  15.125  0.00  0.00    +0.000 NA
ATOM      3  C   UNL     1       5.955   3.948  14.013  0.00  0.00    +0.000 A 
ATOM      4  C   UNL     1       5.546   3.414  12.799  0.00  0.00    +0.000 A 
ATOM      5  C   UNL     1       6.253   3.664  11.623  0.00  0.00    +0.000 A 
ATOM      6  C   UNL     1       7.385   4.467  11.663  0.00  0.00    +0.000 A 
ATOM      7  C   UNL     1       7.788   5.027  12.878  0.00  0.00    +0.000 A 
ATOM      8  C   UNL     1       7.089   4.784  14.052  0.00  0.00    +0.000 A 
ATOM      9  N   UNL     1       7.507   5.331  15.208  0.00  0.00    +0.000 NA
ATOM     10  C   UNL     1       6.827   4.974  16.342  0.00  0.00    +0.000 A 
ENDROOT
BRANCH  10  11
ATOM     11  N   UNL     1       7.304   5.497  17.583  0.00  0.00    +0.000 N 
ATOM     12  N   UNL     1       7.675   4.670  18.612  0.00  0.00    +0.000 NA
ATOM     13  C   UNL     1       8.244   5.480  19.512  0.00  0.00    +0.000 A 
ATOM     14  C   UNL     1       8.866   4.935  20.744  0.00  0.00    +0.000 C 
ATOM     15  C   UNL     1       8.152   6.832  19.137  0.00  0.00    +0.000 A 
ATOM     16  C   UNL     1       7.531   6.829  17.906  0.00  0.00    +0.000 A 
ATOM     17  C   UNL     1       7.088   7.974  17.069  0.00  0.00    +0.000 C 
ENDBRANCH  10  11
BRANCH   1  18
ATOM     18  N   UNL     1       4.939   3.857  17.458  0.00  0.00    +0.000 N 
ATOM     19  H   UNL     1       4.825   2.860  17.628  0.00  0.00    +0.000 HD
BRANCH  18  24
ATOM     20  C   UNL     1       1.610   7.432  20.454  0.00  0.00    +0.000 C 
ATOM     21  C   UNL     1       2.473   6.485  19.676  0.00  0.00    +0.000 A 
ATOM     22  C   UNL     1       2.833   5.236  20.192  0.00  0.00    +0.000 A 
ATOM     23  C   UNL     1       3.655   4.370  19.457  0.00  0.00    +0.000 A 
ATOM     24  C   UNL     1       4.129   4.735  18.193  0.00  0.00    +0.000 A 
ATOM     25  C   UNL     1       3.743   5.979  17.677  0.00  0.00    +0.000 A 
ATOM     26  C   UNL     1       2.937   6.852  18.412  0.00  0.00    +0.000 A 
ENDBRANCH  18  24
ENDBRANCH   1  18
TORSDOF 3
ENDMDL
MODEL 5
REMARK VINA RESULT:      -7.6      3.061      5.333
REMARK  Name = 
REMARK  6 active torsions:
REMARK  status: ('A' for Active; 'I' for Inactive)
REMARK    1  A    between atoms: C_1  and  C_2
REMARK    2  A    between atoms: C_5  and  N_6
REMARK    3  A    between atoms: N_6  and  C_7
REMARK    4  A    between atoms: C_16  and  N_17
REMARK    5  A    between atoms: C_19  and  C_20
REMARK    6  A    between atoms: C_22  and  C_23
REMARK                            x       y       z     vdW  Elec       q    Type
REMARK                         _______ _______ _______ _____ _____    ______ ____
ROOT
ATOM      1  C   UNL     1       3.079   6.064  18.070  0.00  0.00    +0.000 A 
ATOM      2  N   UNL     1       1.957   5.421  18.483  0.00  0.00    +0.000 NA
ATOM      3  C   UNL     1       1.968   4.081  18.547  0.00  0.00    +0.000 A 
ATOM      4  C   UNL     1       0.844   3.416  19.019  0.00  0.00    +0.000 A 
ATOM      5  C   UNL     1       0.822   2.028  19.143  0.00  0.00    +0.000 A 
ATOM      6  C   UNL     1       1.943   1.292  18.782  0.00  0.00    +0.000 A 
ATOM      7  C   UNL     1       3.068   1.953  18.283  0.00  0.00    +0.000 A 
ATOM      8  C   UNL     1       3.097   3.334  18.156  0.00  0.00    +0.000 A 
ATOM      9  N   UNL     1       4.198   3.942  17.680  0.00  0.00    +0.000 NA
ATOM     10  C   UNL     1       4.194   5.312  17.669  0.00  0.00    +0.000 A 
ENDROOT
BRANCH  10  11
ATOM     11  N   UNL     1       5.383   5.969  17.229  0.00  0.00    +0.000 N 
ATOM     12  N   UNL     1       5.966   6.965  17.968  0.00  0.00    +0.000 NA
ATOM     13  C   UNL     1       7.137   7.197  17.365  0.00  0.00    +0.000 A 
ATOM     14  C   UNL     1       8.111   8.160  17.935  0.00  0.00    +0.000 C 
ATOM     15  C   UNL     1       7.280   6.445  16.185  0.00  0.00    +0.000 A 
ATOM     16  C   UNL     1       6.140   5.676  16.100  0.00  0.00    +0.000 A 
ATOM     17  C   UNL     1       5.698   4.757  15.019  0.00  0.00    +0.000 C 
ENDBRANCH  10  11
BRANCH   1  18
ATOM     18  N   UNL     1       3.028   7.462  17.952  0.00  0.00    +0.000 N 
ATOM     19  H   UNL     1       3.864   7.854  17.523  0.00  0.00    +0.000 HD
BRANCH  18  24
ATOM     20  C   UNL     1      -0.596  11.123  20.460  0.00  0.00    +0.000 C 
ATOM     21  C   UNL     1       0.357  10.177  19.796  0.00  0.00    +0.000 A 
ATOM     22  C   UNL     1       0.694  10.311  18.445  0.00  0.00    +0.000 A 
ATOM     23  C   UNL     1       1.574   9.406  17.836  0.00  0.00    +0.000 A 
ATOM     24  C   UNL     1       2.136   8.353  18.565  0.00  0.00    +0.000 A 
ATOM     25  C   UNL     1       1.809   8.242  19.922  0.00  0.00    +0.000 A 
ATOM     26  C   UNL     1       0.920   9.132  20.530  0.00  0.00    +0.000 A 
ENDBRANCH  18  24
ENDBRANCH   1  18
TORSDOF 3
ENDMDL
MODEL 6
REMARK VINA RESULT:      -7.6      3.098      5.946
REMARK  Name = 
REMARK  6 active torsions:
REMARK  status: ('A' for Active; 'I' for Inactive)
REMARK    1  A    between atoms: C_1  and  C_2
REMARK    2  A    between atoms: C_5  and  N_6
REMARK    3  A    between atoms: N_6  and  C_7
REMARK    4  A    between atoms: C_16  and  N_17
REMARK    5  A    between atoms: C_19  and  C_20
REMARK    6  A    between atoms: C_22  and  C_23
REMARK                            x       y       z     vdW  Elec       q    Type
REMARK                         _______ _______ _______ _____ _____    ______ ____
ROOT
ATOM      1  C   UNL     1       3.093   6.057  18.874  0.00  0.00    +0.000 A 
ATOM      2  N   UNL     1       2.096   5.526  19.628  0.00  0.00    +0.000 NA
ATOM      3  C   UNL     1       2.285   4.323  20.192  0.00  0.00    +0.000 A 
ATOM      4  C   UNL     1       1.295   3.795  21.009  0.00  0.00    +0.000 A 
ATOM      5  C   UNL     1       1.461   2.568  21.649  0.00  0.00    +0.000 A 
ATOM      6  C   UNL     1       2.638   1.855  21.464  0.00  0.00    +0.000 A 
ATOM      7  C   UNL     1       3.629   2.369  20.624  0.00  0.00    +0.000 A 
ATOM      8  C   UNL     1       3.470   3.589  19.982  0.00  0.00    +0.000 A 
ATOM      9  N   UNL     1       4.445   4.062  19.186  0.00  0.00    +0.000 NA
ATOM     10  C   UNL     1       4.263   5.313  18.660  0.00  0.00    +0.000 A 
ENDROOT
BRANCH  10  11
ATOM     11  N   UNL     1       5.322   5.852  17.868  0.00  0.00    +0.000 N 
ATOM     12  N   UNL     1       5.977   6.999  18.234  0.00  0.00    +0.000 NA
ATOM     13  C   UNL     1       7.010   7.087  17.389  0.00  0.00    +0.000 A 
ATOM     14  C   UNL     1       8.022   8.163  17.529  0.00  0.00    +0.000 C 
ATOM     15  C   UNL     1       6.978   6.076  16.411  0.00  0.00    +0.000 A 
ATOM     16  C   UNL     1       5.881   5.303  16.719  0.00  0.00    +0.000 A 
ATOM     17  C   UNL     1       5.299   4.150  15.982  0.00  0.00    +0.000 C 
ENDBRANCH  10  11
BRANCH   1  18
ATOM     18  N   UNL     1       2.854   7.288  18.245  0.00  0.00    +0.000 N 
ATOM     19  H   UNL     1       3.548   7.512  17.535  0.00  0.00    +0.000 HD
BRANCH  18  24
ATOM     20  C   UNL     1      -0.734  11.452  19.862  0.00  0.00    +0.000 C 
ATOM     21  C   UNL     1       0.199  10.355  19.451  0.00  0.00    +0.000 A 
ATOM     22  C   UNL     1       0.782   9.501  20.393  0.00  0.00    +0.000 A 
ATOM     23  C   UNL     1       1.665   8.491  19.991  0.00  0.00    +0.000 A 
ATOM     24  C   UNL     1       1.981   8.312  18.641  0.00  0.00    +0.000 A 
ATOM     25  C   UNL     1       1.373   9.157  17.703  0.00  0.00    +0.000 A 
ATOM     26  C   UNL     1       0.504  10.176  18.100  0.00  0.00    +0.000 A 
ENDBRANCH  18  24
ENDBRANCH   1  18
TORSDOF 3
ENDMDL
MODEL 7
REMARK VINA RESULT:      -7.5      1.594      2.534
REMARK  Name = 
REMARK  6 active torsions:
REMARK  status: ('A' for Active; 'I' for Inactive)
REMARK    1  A    between atoms: C_1  and  C_2
REMARK    2  A    between atoms: C_5  and  N_6
REMARK    3  A    between atoms: N_6  and  C_7
REMARK    4  A    between atoms: C_16  and  N_17
REMARK    5  A    between atoms: C_19  and  C_20
REMARK    6  A    between atoms: C_22  and  C_23
REMARK                            x       y       z     vdW  Elec       q    Type
REMARK                         _______ _______ _______ _____ _____    ______ ____
ROOT
ATOM      1  C   UNL     1       5.480   4.416  16.395  0.00  0.00    +0.000 A 
ATOM      2  N   UNL     1       4.988   3.947  15.219  0.00  0.00    +0.000 NA
ATOM      3  C   UNL     1       5.728   4.091  14.109  0.00  0.00    +0.000 A 
ATOM      4  C   UNL     1       5.259   3.568  12.911  0.00  0.00    +0.000 A 
ATOM      5  C   UNL     1       6.009   3.657  11.739  0.00  0.00    +0.000 A 
ATOM      6  C   UNL     1       7.247   4.285  11.766  0.00  0.00    +0.000 A 
ATOM      7  C   UNL     1       7.713   4.836  12.962  0.00  0.00    +0.000 A 
ATOM      8  C   UNL     1       6.972   4.752  14.133  0.00  0.00    +0.000 A 
ATOM      9  N   UNL     1       7.451   5.284  15.271  0.00  0.00    +0.000 NA
ATOM     10  C   UNL     1       6.713   5.084  16.407  0.00  0.00    +0.000 A 
ENDROOT
BRANCH  10  11
ATOM     11  N   UNL     1       7.246   5.587  17.633  0.00  0.00    +0.000 N 
ATOM     12  N   UNL     1       7.576   4.750  18.666  0.00  0.00    +0.000 NA
ATOM     13  C   UNL     1       8.215   5.529  19.546  0.00  0.00    +0.000 A 
ATOM     14  C   UNL     1       8.818   4.957  20.775  0.00  0.00    +0.000 C 
ATOM     15  C   UNL     1       8.211   6.880  19.154  0.00  0.00    +0.000 A 
ATOM     16  C   UNL     1       7.571   6.905  17.934  0.00  0.00    +0.000 A 
ATOM     17  C   UNL     1       7.194   8.067  17.088  0.00  0.00    +0.000 C 
ENDBRANCH  10  11
BRANCH   1  18
ATOM     18  N   UNL     1       4.666   4.309  17.534  0.00  0.00    +0.000 N 
ATOM     19  H   UNL     1       4.498   3.344  17.812  0.00  0.00    +0.000 HD
BRANCH  18  24
ATOM     20  C   UNL     1       1.479   8.377  20.008  0.00  0.00    +0.000 C 
ATOM     21  C   UNL     1       2.321   7.324  19.356  0.00  0.00    +0.000 A 
ATOM     22  C   UNL     1       2.948   7.551  18.126  0.00  0.00    +0.000 A 
ATOM     23  C   UNL     1       3.719   6.548  17.522  0.00  0.00    +0.000 A 
ATOM     24  C   UNL     1       3.880   5.302  18.137  0.00  0.00    +0.000 A 
ATOM     25  C   UNL     1       3.267   5.095  19.379  0.00  0.00    +0.000 A 
ATOM     26  C   UNL     1       2.485   6.085  19.977  0.00  0.00    +0.000 A 
ENDBRANCH  18  24
ENDBRANCH   1  18
TORSDOF 3
ENDMDL
MODEL 8
REMARK VINA RESULT:      -7.3      1.231      5.327
REMARK  Name = 
REMARK  6 active torsions:
REMARK  status: ('A' for Active; 'I' for Inactive)
REMARK    1  A    between atoms: C_1  and  C_2
REMARK    2  A    between atoms: C_5  and  N_6
REMARK    3  A    between atoms: N_6  and  C_7
REMARK    4  A    between atoms: C_16  and  N_17
REMARK    5  A    between atoms: C_19  and  C_20
REMARK    6  A    between atoms: C_22  and  C_23
REMARK                            x       y       z     vdW  Elec       q    Type
REMARK                         _______ _______ _______ _____ _____    ______ ____
ROOT
ATOM      1  C   UNL     1       6.621   5.277  16.533  0.00  0.00    +0.000 A 
ATOM      2  N   UNL     1       7.395   5.316  15.418  0.00  0.00    +0.000 NA
ATOM      3  C   UNL     1       6.927   4.764  14.288  0.00  0.00    +0.000 A 
ATOM      4  C   UNL     1       7.687   4.845  13.129  0.00  0.00    +0.000 A 
ATOM      5  C   UNL     1       7.226   4.323  11.921  0.00  0.00    +0.000 A 
ATOM      6  C   UNL     1       5.984   3.704  11.875  0.00  0.00    +0.000 A 
ATOM      7  C   UNL     1       5.225   3.596  13.043  0.00  0.00    +0.000 A 
ATOM      8  C   UNL     1       5.678   4.112  14.248  0.00  0.00    +0.000 A 
ATOM      9  N   UNL     1       4.920   4.001  15.354  0.00  0.00    +0.000 NA
ATOM     10  C   UNL     1       5.385   4.614  16.487  0.00  0.00    +0.000 A 
ENDROOT
BRANCH  10  11
ATOM     11  N   UNL     1       4.557   4.559  17.650  0.00  0.00    +0.000 N 
ATOM     12  N   UNL     1       4.399   3.399  18.361  0.00  0.00    +0.000 NA
ATOM     13  C   UNL     1       3.738   3.763  19.466  0.00  0.00    +0.000 A 
ATOM     14  C   UNL     1       3.458   2.785  20.546  0.00  0.00    +0.000 C 
ATOM     15  C   UNL     1       3.368   5.120  19.435  0.00  0.00    +0.000 A 
ATOM     16  C   UNL     1       3.884   5.614  18.257  0.00  0.00    +0.000 A 
ATOM     17  C   UNL     1       3.730   6.961  17.649  0.00  0.00    +0.000 C 
ENDBRANCH  10  11
BRANCH   1  18
ATOM     18  N   UNL     1       7.153   5.806  17.718  0.00  0.00    +0.000 N 
ATOM     19  H   UNL     1       6.969   5.220  18.531  0.00  0.00    +0.000 HD
BRANCH  18  24
ATOM     20  C   UNL     1       9.126  11.097  18.687  0.00  0.00    +0.000 C 
ATOM     21  C   UNL     1       8.610   9.711  18.449  0.00  0.00    +0.000 A 
ATOM     22  C   UNL     1       8.991   8.641  19.265  0.00  0.00    +0.000 A 
ATOM     23  C   UNL     1       8.511   7.347  19.017  0.00  0.00    +0.000 A 
ATOM     24  C   UNL     1       7.641   7.100  17.951  0.00  0.00    +0.000 A 
ATOM     25  C   UNL     1       7.248   8.183  17.154  0.00  0.00    +0.000 A 
ATOM     26  C   UNL     1       7.735   9.471  17.388  0.00  0.00    +0.000 A 
ENDBRANCH  18  24
ENDBRANCH   1  18
TORSDOF 3
ENDMDL
MODEL 9
REMARK VINA RESULT:      -7.3      1.561      6.367
REMARK  Name = 
REMARK  6 active torsions:
REMARK  status: ('A' for Active; 'I' for Inactive)
REMARK    1  A    between atoms: C_1  and  C_2
REMARK    2  A    between atoms: C_5  and  N_6
REMARK    3  A    between atoms: N_6  and  C_7
REMARK    4  A    between atoms: C_16  and  N_17
REMARK    5  A    between atoms: C_19  and  C_20
REMARK    6  A    between atoms: C_22  and  C_23
REMARK                            x       y       z     vdW  Elec       q    Type
REMARK                         _______ _______ _______ _____ _____    ______ ____
ROOT
ATOM      1  C   UNL     1       5.529   3.948  18.102  0.00  0.00    +0.000 A 
ATOM      2  N   UNL     1       4.998   3.639  19.313  0.00  0.00    +0.000 NA
ATOM      3  C   UNL     1       3.700   3.303  19.382  0.00  0.00    +0.000 A 
ATOM      4  C   UNL     1       3.161   2.934  20.606  0.00  0.00    +0.000 A 
ATOM      5  C   UNL     1       1.829   2.538  20.721  0.00  0.00    +0.000 A 
ATOM      6  C   UNL     1       1.022   2.516  19.591  0.00  0.00    +0.000 A 
ATOM      7  C   UNL     1       1.553   2.911  18.360  0.00  0.00    +0.000 A 
ATOM      8  C   UNL     1       2.877   3.307  18.238  0.00  0.00    +0.000 A 
ATOM      9  N   UNL     1       3.361   3.673  17.038  0.00  0.00    +0.000 NA
ATOM     10  C   UNL     1       4.698   3.962  16.972  0.00  0.00    +0.000 A 
ENDROOT
BRANCH  10  11
ATOM     11  N   UNL     1       5.236   4.287  15.689  0.00  0.00    +0.000 N 
ATOM     12  N   UNL     1       5.851   3.341  14.911  0.00  0.00    +0.000 NA
ATOM     13  C   UNL     1       6.041   3.940  13.731  0.00  0.00    +0.000 A 
ATOM     14  C   UNL     1       6.607   3.196  12.578  0.00  0.00    +0.000 C 
ATOM     15  C   UNL     1       5.659   5.294  13.760  0.00  0.00    +0.000 A 
ATOM     16  C   UNL     1       5.161   5.507  15.027  0.00  0.00    +0.000 A 
ATOM     17  C   UNL     1       4.695   6.768  15.659  0.00  0.00    +0.000 C 
ENDBRANCH  10  11
BRANCH   1  18
ATOM     18  N   UNL     1       6.871   4.354  18.059  0.00  0.00    +0.000 N 
ATOM     19  H   UNL     1       7.524   3.576  18.133  0.00  0.00    +0.000 HD
BRANCH  18  24
ATOM     20  C   UNL     1       8.975   9.654  18.623  0.00  0.00    +0.000 C 
ATOM     21  C   UNL     1       8.422   8.268  18.491  0.00  0.00    +0.000 A 
ATOM     22  C   UNL     1       8.576   7.321  19.509  0.00  0.00    +0.000 A 
ATOM     23  C   UNL     1       8.066   6.024  19.360  0.00  0.00    +0.000 A 
ATOM     24  C   UNL     1       7.392   5.649  18.194  0.00  0.00    +0.000 A 
ATOM     25  C   UNL     1       7.224   6.612  17.191  0.00  0.00    +0.000 A 
ATOM     26  C   UNL     1       7.743   7.902  17.327  0.00  0.00    +0.000 A 
ENDBRANCH  18  24
ENDBRANCH   1  18
TORSDOF 3
ENDMDL
