MODEL 1
REMARK VINA RESULT:      -7.4      0.000      0.000
REMARK  Name = 
REMARK  5 active torsions:
REMARK  status: ('A' for Active; 'I' for Inactive)
REMARK    1  A    between atoms: C_2  and  O_3
REMARK    2  A    between atoms: C_2  and  C_4
REMARK    3  A    between atoms: N_6  and  C_7
REMARK    4  A    between atoms: C_13  and  O_14
REMARK    5  A    between atoms: O_14  and  C_15
REMARK                            x       y       z     vdW  Elec       q    Type
REMARK                         _______ _______ _______ _____ _____    ______ ____
ROOT
ATOM      1  C   UNL     1       7.008   5.148  14.502  0.00  0.00    +0.000 A 
ATOM      2  C   UNL     1       7.371   5.919  15.539  0.00  0.00    +0.000 A 
ATOM      3  N   UNL     1       6.742   5.973  16.769  0.00  0.00    +0.000 N 
ATOM      4  C   UNL     1       5.614   5.130  17.009  0.00  0.00    +0.000 A 
ATOM      5  C   UNL     1       4.951   5.095  18.244  0.00  0.00    +0.000 A 
ATOM      6  F   UNL     1       5.507   5.677  19.318  0.00  0.00    +0.000 F 
ATOM      7  C   UNL     1       3.681   4.529  18.371  0.00  0.00    +0.000 A 
ATOM      8  C   UNL     1       3.178   3.769  17.320  0.00  0.00    +0.000 A 
ATOM      9  F   UNL     1       1.989   3.162  17.433  0.00  0.00    +0.000 F 
ATOM     10  C   UNL     1       3.879   3.653  16.124  0.00  0.00    +0.000 A 
ATOM     11  C   UNL     1       5.080   4.360  15.964  0.00  0.00    +0.000 A 
ATOM     12  C   UNL     1       5.772   4.347  14.655  0.00  0.00    +0.000 A 
ATOM     13  O   UNL     1       5.325   3.714  13.702  0.00  0.00    +0.000 OA
ENDROOT
BRANCH   3  14
ATOM     14  C   UNL     1       6.948   7.137  17.667  0.00  0.00    +0.000 C 
ATOM     15  C   UNL     1       8.155   7.139  18.572  0.00  0.00    +0.000 C 
ATOM     16  C   UNL     1       7.967   8.237  17.573  0.00  0.00    +0.000 C 
ENDBRANCH   3  14
BRANCH   1  18
ATOM     17  O   UNL     1       8.822   5.855  13.137  0.00  0.00    +0.000 OA
ATOM     18  C   UNL     1       7.812   5.173  13.271  0.00  0.00    +0.000 C 
BRANCH  18  19
ATOM     19  O   UNL     1       7.341   4.391  12.275  0.00  0.00    +0.000 OA
ATOM     20  H   UNL     1       6.881   4.884  11.552  0.00  0.00    +0.000 HD
ENDBRANCH  18  19
ENDBRANCH   1  18
BRANCH   7  21
ATOM     21  O   UNL     1       2.892   4.721  19.482  0.00  0.00    +0.000 OA
BRANCH  21  22
ATOM     22  C   UNL     1       2.360   5.981  19.697  0.00  0.00    +0.000 A 
ATOM     23  C   UNL     1       2.444   7.049  18.791  0.00  0.00    +0.000 A 
ATOM     24  C   UNL     1       1.956   8.311  19.136  0.00  0.00    +0.000 A 
ATOM     25  C   UNL     1       1.316   8.495  20.358  0.00  0.00    +0.000 A 
ATOM     26  C   UNL     1       1.164   7.421  21.233  0.00  0.00    +0.000 A 
ATOM     27  C   UNL     1       1.689   6.168  20.906  0.00  0.00    +0.000 A 
ENDBRANCH  21  22
ENDBRANCH   7  21
TORSDOF 5
ENDMDL
MODEL 2
REMARK VINA RESULT:      -7.4      0.507      1.068
REMARK  Name = 
REMARK  5 active torsions:
REMARK  status: ('A' for Active; 'I' for Inactive)
REMARK    1  A    between atoms: C_2  and  O_3
REMARK    2  A    between atoms: C_2  and  C_4
REMARK    3  A    between atoms: N_6  and  C_7
REMARK    4  A    between atoms: C_13  and  O_14
REMARK    5  A    between atoms: O_14  and  C_15
REMARK                            x       y       z     vdW  Elec       q    Type
REMARK                         _______ _______ _______ _____ _____    ______ ____
ROOT
ATOM      1  C   UNL     1       6.701   5.030  14.762  0.00  0.00    +0.000 A 
ATOM      2  C   UNL     1       7.165   5.780  15.773  0.00  0.00    +0.000 A 
ATOM      3  N   UNL     1       6.570   5.929  17.012  0.00  0.00    +0.000 N 
ATOM      4  C   UNL     1       5.362   5.218  17.291  0.00  0.00    +0.000 A 
ATOM      5  C   UNL     1       4.723   5.283  18.538  0.00  0.00    +0.000 A 
ATOM      6  F   UNL     1       5.360   5.826  19.588  0.00  0.00    +0.000 F 
ATOM      7  C   UNL     1       3.403   4.861  18.700  0.00  0.00    +0.000 A 
ATOM      8  C   UNL     1       2.800   4.137  17.677  0.00  0.00    +0.000 A 
ATOM      9  F   UNL     1       1.555   3.665  17.824  0.00  0.00    +0.000 F 
ATOM     10  C   UNL     1       3.461   3.920  16.472  0.00  0.00    +0.000 A 
ATOM     11  C   UNL     1       4.727   4.488  16.275  0.00  0.00    +0.000 A 
ATOM     12  C   UNL     1       5.388   4.372  14.955  0.00  0.00    +0.000 A 
ATOM     13  O   UNL     1       4.857   3.770  14.025  0.00  0.00    +0.000 OA
ENDROOT
BRANCH   3  14
ATOM     14  C   UNL     1       6.918   7.084  17.878  0.00  0.00    +0.000 C 
ATOM     15  C   UNL     1       8.222   7.044  18.634  0.00  0.00    +0.000 C 
ATOM     16  C   UNL     1       7.953   8.150  17.663  0.00  0.00    +0.000 C 
ENDBRANCH   3  14
BRANCH   1  18
ATOM     17  O   UNL     1       8.417   5.683  13.251  0.00  0.00    +0.000 OA
ATOM     18  C   UNL     1       7.478   4.941  13.516  0.00  0.00    +0.000 C 
BRANCH  18  19
ATOM     19  O   UNL     1       7.067   3.978  12.663  0.00  0.00    +0.000 OA
ATOM     20  H   UNL     1       6.216   4.178  12.200  0.00  0.00    +0.000 HD
ENDBRANCH  18  19
ENDBRANCH   1  18
BRANCH   7  21
ATOM     21  O   UNL     1       2.661   5.162  19.820  0.00  0.00    +0.000 OA
BRANCH  21  22
ATOM     22  C   UNL     1       2.162   6.447  19.948  0.00  0.00    +0.000 A 
ATOM     23  C   UNL     1       1.524   6.946  21.094  0.00  0.00    +0.000 A 
ATOM     24  C   UNL     1       0.973   8.229  21.095  0.00  0.00    +0.000 A 
ATOM     25  C   UNL     1       1.119   9.047  19.979  0.00  0.00    +0.000 A 
ATOM     26  C   UNL     1       1.815   8.584  18.863  0.00  0.00    +0.000 A 
ATOM     27  C   UNL     1       2.332   7.285  18.846  0.00  0.00    +0.000 A 
ENDBRANCH  21  22
ENDBRANCH   7  21
TORSDOF 5
ENDMDL
MODEL 3
REMARK VINA RESULT:      -7.2      2.525      6.231
REMARK  Name = 
REMARK  5 active torsions:
REMARK  status: ('A' for Active; 'I' for Inactive)
REMARK    1  A    between atoms: C_2  and  O_3
REMARK    2  A    between atoms: C_2  and  C_4
REMARK    3  A    between atoms: N_6  and  C_7
REMARK    4  A    between atoms: C_13  and  O_14
REMARK    5  A    between atoms: O_14  and  C_15
REMARK                            x       y       z     vdW  Elec       q    Type
REMARK                         _______ _______ _______ _____ _____    ______ ____
ROOT
ATOM      1  C   UNL     1       1.758   3.566  18.965  0.00  0.00    +0.000 A 
ATOM      2  C   UNL     1       1.687   4.875  19.254  0.00  0.00    +0.000 A 
ATOM      3  N   UNL     1       2.508   5.864  18.744  0.00  0.00    +0.000 N 
ATOM      4  C   UNL     1       3.521   5.507  17.803  0.00  0.00    +0.000 A 
ATOM      5  C   UNL     1       4.364   6.458  17.209  0.00  0.00    +0.000 A 
ATOM      6  F   UNL     1       4.082   7.765  17.325  0.00  0.00    +0.000 F 
ATOM      7  C   UNL     1       5.539   6.081  16.557  0.00  0.00    +0.000 A 
ATOM      8  C   UNL     1       5.746   4.735  16.275  0.00  0.00    +0.000 A 
ATOM      9  F   UNL     1       6.834   4.346  15.597  0.00  0.00    +0.000 F 
ATOM     10  C   UNL     1       4.851   3.767  16.719  0.00  0.00    +0.000 A 
ATOM     11  C   UNL     1       3.759   4.155  17.507  0.00  0.00    +0.000 A 
ATOM     12  C   UNL     1       2.870   3.125  18.091  0.00  0.00    +0.000 A 
ATOM     13  O   UNL     1       3.058   1.929  17.887  0.00  0.00    +0.000 OA
ENDROOT
BRANCH   3  14
ATOM     14  C   UNL     1       2.625   7.171  19.437  0.00  0.00    +0.000 C 
ATOM     15  C   UNL     1       1.665   8.271  19.058  0.00  0.00    +0.000 C 
ATOM     16  C   UNL     1       1.721   7.780  20.471  0.00  0.00    +0.000 C 
ENDBRANCH   3  14
BRANCH   1  18
ATOM     17  O   UNL     1       0.066   1.897  18.896  0.00  0.00    +0.000 OA
ATOM     18  C   UNL     1       0.778   2.643  19.559  0.00  0.00    +0.000 C 
BRANCH  18  19
ATOM     19  O   UNL     1       0.705   2.689  20.907  0.00  0.00    +0.000 OA
ATOM     20  H   UNL     1       1.307   3.353  21.325  0.00  0.00    +0.000 HD
ENDBRANCH  18  19
ENDBRANCH   1  18
BRANCH   7  21
ATOM     21  O   UNL     1       6.517   6.985  16.211  0.00  0.00    +0.000 OA
BRANCH  21  22
ATOM     22  C   UNL     1       7.324   7.491  17.216  0.00  0.00    +0.000 A 
ATOM     23  C   UNL     1       7.859   6.734  18.270  0.00  0.00    +0.000 A 
ATOM     24  C   UNL     1       8.587   7.353  19.287  0.00  0.00    +0.000 A 
ATOM     25  C   UNL     1       8.847   8.719  19.221  0.00  0.00    +0.000 A 
ATOM     26  C   UNL     1       8.381   9.465  18.140  0.00  0.00    +0.000 A 
ATOM     27  C   UNL     1       7.617   8.854  17.142  0.00  0.00    +0.000 A 
ENDBRANCH  21  22
ENDBRANCH   7  21
TORSDOF 5
ENDMDL
MODEL 4
REMARK VINA RESULT:      -7.2      7.128     11.031
REMARK  Name = 
REMARK  5 active torsions:
REMARK  status: ('A' for Active; 'I' for Inactive)
REMARK    1  A    between atoms: C_2  and  O_3
REMARK    2  A    between atoms: C_2  and  C_4
REMARK    3  A    between atoms: N_6  and  C_7
REMARK    4  A    between atoms: C_13  and  O_14
REMARK    5  A    between atoms: O_14  and  C_15
REMARK                            x       y       z     vdW  Elec       q    Type
REMARK                         _______ _______ _______ _____ _____    ______ ____
ROOT
ATOM      1  C   UNL     1      -5.416  12.076  18.236  0.00  0.00    +0.000 A 
ATOM      2  C   UNL     1      -4.878  11.461  17.171  0.00  0.00    +0.000 A 
ATOM      3  N   UNL     1      -3.568  11.033  17.058  0.00  0.00    +0.000 N 
ATOM      4  C   UNL     1      -2.679  11.222  18.160  0.00  0.00    +0.000 A 
ATOM      5  C   UNL     1      -1.349  10.777  18.138  0.00  0.00    +0.000 A 
ATOM      6  F   UNL     1      -0.940   9.942  17.170  0.00  0.00    +0.000 F 
ATOM      7  C   UNL     1      -0.412  11.241  19.063  0.00  0.00    +0.000 A 
ATOM      8  C   UNL     1      -0.860  11.956  20.168  0.00  0.00    +0.000 A 
ATOM      9  F   UNL     1       0.007  12.364  21.106  0.00  0.00    +0.000 F 
ATOM     10  C   UNL     1      -2.203  12.291  20.305  0.00  0.00    +0.000 A 
ATOM     11  C   UNL     1      -3.101  11.949  19.284  0.00  0.00    +0.000 A 
ATOM     12  C   UNL     1      -4.506  12.408  19.357  0.00  0.00    +0.000 A 
ATOM     13  O   UNL     1      -4.913  13.073  20.306  0.00  0.00    +0.000 OA
ENDROOT
BRANCH   3  14
ATOM     14  C   UNL     1      -2.978  10.768  15.721  0.00  0.00    +0.000 C 
ATOM     15  C   UNL     1      -3.009   9.355  15.193  0.00  0.00    +0.000 C 
ATOM     16  C   UNL     1      -3.671  10.456  14.426  0.00  0.00    +0.000 C 
ENDBRANCH   3  14
BRANCH   1  18
ATOM     17  O   UNL     1      -7.376  13.042  17.299  0.00  0.00    +0.000 OA
ATOM     18  C   UNL     1      -6.844  12.429  18.217  0.00  0.00    +0.000 C 
BRANCH  18  19
ATOM     19  O   UNL     1      -7.535  12.039  19.310  0.00  0.00    +0.000 OA
ATOM     20  H   UNL     1      -7.497  11.067  19.491  0.00  0.00    +0.000 HD
ENDBRANCH  18  19
ENDBRANCH   1  18
BRANCH   7  21
ATOM     21  O   UNL     1       0.942  11.048  18.906  0.00  0.00    +0.000 OA
BRANCH  21  22
ATOM     22  C   UNL     1       1.436   9.760  19.025  0.00  0.00    +0.000 A 
ATOM     23  C   UNL     1       2.120   9.071  18.012  0.00  0.00    +0.000 A 
ATOM     24  C   UNL     1       2.501   7.740  18.194  0.00  0.00    +0.000 A 
ATOM     25  C   UNL     1       2.266   7.113  19.414  0.00  0.00    +0.000 A 
ATOM     26  C   UNL     1       1.652   7.815  20.451  0.00  0.00    +0.000 A 
ATOM     27  C   UNL     1       1.234   9.134  20.255  0.00  0.00    +0.000 A 
ENDBRANCH  21  22
ENDBRANCH   7  21
TORSDOF 5
ENDMDL
MODEL 5
REMARK VINA RESULT:      -7.0      2.502      6.106
REMARK  Name = 
REMARK  5 active torsions:
REMARK  status: ('A' for Active; 'I' for Inactive)
REMARK    1  A    between atoms: C_2  and  O_3
REMARK    2  A    between atoms: C_2  and  C_4
REMARK    3  A    between atoms: N_6  and  C_7
REMARK    4  A    between atoms: C_13  and  O_14
REMARK    5  A    between atoms: O_14  and  C_15
REMARK                            x       y       z     vdW  Elec       q    Type
REMARK                         _______ _______ _______ _____ _____    ______ ____
ROOT
ATOM      1  C   UNL     1       1.950   3.489  18.936  0.00  0.00    +0.000 A 
ATOM      2  C   UNL     1       1.844   4.798  19.215  0.00  0.00    +0.000 A 
ATOM      3  N   UNL     1       2.636   5.805  18.695  0.00  0.00    +0.000 N 
ATOM      4  C   UNL     1       3.657   5.469  17.754  0.00  0.00    +0.000 A 
ATOM      5  C   UNL     1       4.471   6.438  17.150  0.00  0.00    +0.000 A 
ATOM      6  F   UNL     1       4.154   7.738  17.256  0.00  0.00    +0.000 F 
ATOM      7  C   UNL     1       5.654   6.088  16.497  0.00  0.00    +0.000 A 
ATOM      8  C   UNL     1       5.896   4.746  16.224  0.00  0.00    +0.000 A 
ATOM      9  F   UNL     1       6.993   4.381  15.545  0.00  0.00    +0.000 F 
ATOM     10  C   UNL     1       5.030   3.757  16.678  0.00  0.00    +0.000 A 
ATOM     11  C   UNL     1       3.930   4.122  17.467  0.00  0.00    +0.000 A 
ATOM     12  C   UNL     1       3.071   3.073  18.062  0.00  0.00    +0.000 A 
ATOM     13  O   UNL     1       3.290   1.880  17.865  0.00  0.00    +0.000 OA
ENDROOT
BRANCH   3  14
ATOM     14  C   UNL     1       2.721   7.121  19.378  0.00  0.00    +0.000 C 
ATOM     15  C   UNL     1       1.716   8.184  19.010  0.00  0.00    +0.000 C 
ATOM     16  C   UNL     1       1.815   7.704  20.424  0.00  0.00    +0.000 C 
ENDBRANCH   3  14
BRANCH   1  18
ATOM     17  O   UNL     1       0.825   2.440  20.748  0.00  0.00    +0.000 OA
ATOM     18  C   UNL     1       0.998   2.545  19.539  0.00  0.00    +0.000 C 
BRANCH  18  19
ATOM     19  O   UNL     1       0.328   1.777  18.653  0.00  0.00    +0.000 OA
ATOM     20  H   UNL     1      -0.022   2.269  17.870  0.00  0.00    +0.000 HD
ENDBRANCH  18  19
ENDBRANCH   1  18
BRANCH   7  21
ATOM     21  O   UNL     1       6.606   7.015  16.141  0.00  0.00    +0.000 OA
BRANCH  21  22
ATOM     22  C   UNL     1       7.331   7.628  17.149  0.00  0.00    +0.000 A 
ATOM     23  C   UNL     1       7.603   9.003  17.215  0.00  0.00    +0.000 A 
ATOM     24  C   UNL     1       8.421   9.515  18.224  0.00  0.00    +0.000 A 
ATOM     25  C   UNL     1       8.912   8.669  19.214  0.00  0.00    +0.000 A 
ATOM     26  C   UNL     1       8.586   7.314  19.196  0.00  0.00    +0.000 A 
ATOM     27  C   UNL     1       7.801   6.793  18.163  0.00  0.00    +0.000 A 
ENDBRANCH  21  22
ENDBRANCH   7  21
TORSDOF 5
ENDMDL
MODEL 6
REMARK VINA RESULT:      -7.0      4.368      8.707
REMARK  Name = 
REMARK  5 active torsions:
REMARK  status: ('A' for Active; 'I' for Inactive)
REMARK    1  A    between atoms: C_2  and  O_3
REMARK    2  A    between atoms: C_2  and  C_4
REMARK    3  A    between atoms: N_6  and  C_7
REMARK    4  A    between atoms: C_13  and  O_14
REMARK    5  A    between atoms: O_14  and  C_15
REMARK                            x       y       z     vdW  Elec       q    Type
REMARK                         _______ _______ _______ _____ _____    ______ ____
ROOT
ATOM      1  C   UNL     1      -0.458  11.236  21.930  0.00  0.00    +0.000 A 
ATOM      2  C   UNL     1      -0.184  11.758  20.724  0.00  0.00    +0.000 A 
ATOM      3  N   UNL     1       0.468  11.112  19.690  0.00  0.00    +0.000 N 
ATOM      4  C   UNL     1       0.883   9.757  19.871  0.00  0.00    +0.000 A 
ATOM      5  C   UNL     1       1.510   9.021  18.855  0.00  0.00    +0.000 A 
ATOM      6  F   UNL     1       1.522   9.493  17.598  0.00  0.00    +0.000 F 
ATOM      7  C   UNL     1       2.192   7.835  19.132  0.00  0.00    +0.000 A 
ATOM      8  C   UNL     1       2.033   7.248  20.382  0.00  0.00    +0.000 A 
ATOM      9  F   UNL     1       2.625   6.078  20.660  0.00  0.00    +0.000 F 
ATOM     10  C   UNL     1       1.290   7.876  21.377  0.00  0.00    +0.000 A 
ATOM     11  C   UNL     1       0.744   9.142  21.125  0.00  0.00    +0.000 A 
ATOM     12  C   UNL     1       0.059   9.877  22.213  0.00  0.00    +0.000 A 
ATOM     13  O   UNL     1      -0.059   9.393  23.336  0.00  0.00    +0.000 OA
ENDROOT
BRANCH   3  14
ATOM     14  C   UNL     1       1.090  11.893  18.592  0.00  0.00    +0.000 C 
ATOM     15  C   UNL     1       0.966  13.396  18.623  0.00  0.00    +0.000 C 
ATOM     16  C   UNL     1       2.319  12.756  18.622  0.00  0.00    +0.000 C 
ENDBRANCH   3  14
BRANCH   1  18
ATOM     17  O   UNL     1      -0.853  13.160  23.269  0.00  0.00    +0.000 OA
ATOM     18  C   UNL     1      -1.202  12.041  22.911  0.00  0.00    +0.000 C 
BRANCH  18  19
ATOM     19  O   UNL     1      -2.306  11.444  23.409  0.00  0.00    +0.000 OA
ATOM     20  H   UNL     1      -2.153  10.932  24.242  0.00  0.00    +0.000 HD
ENDBRANCH  18  19
ENDBRANCH   1  18
BRANCH   7  21
ATOM     21  O   UNL     1       3.042   7.241  18.228  0.00  0.00    +0.000 OA
BRANCH  21  22
ATOM     22  C   UNL     1       2.872   5.893  17.959  0.00  0.00    +0.000 A 
ATOM     23  C   UNL     1       1.630   5.259  17.803  0.00  0.00    +0.000 A 
ATOM     24  C   UNL     1       1.558   3.877  17.625  0.00  0.00    +0.000 A 
ATOM     25  C   UNL     1       2.728   3.128  17.528  0.00  0.00    +0.000 A 
ATOM     26  C   UNL     1       3.968   3.761  17.609  0.00  0.00    +0.000 A 
ATOM     27  C   UNL     1       4.040   5.140  17.829  0.00  0.00    +0.000 A 
ENDBRANCH  21  22
ENDBRANCH   7  21
TORSDOF 5
ENDMDL
MODEL 7
REMARK VINA RESULT:      -7.0      6.963     10.887
REMARK  Name = 
REMARK  5 active torsions:
REMARK  status: ('A' for Active; 'I' for Inactive)
REMARK    1  A    between atoms: C_2  and  O_3
REMARK    2  A    between atoms: C_2  and  C_4
REMARK    3  A    between atoms: N_6  and  C_7
REMARK    4  A    between atoms: C_13  and  O_14
REMARK    5  A    between atoms: O_14  and  C_15
REMARK                            x       y       z     vdW  Elec       q    Type
REMARK                         _______ _______ _______ _____ _____    ______ ____
ROOT
ATOM      1  C   UNL     1      -5.122  12.201  18.247  0.00  0.00    +0.000 A 
ATOM      2  C   UNL     1      -4.629  11.542  17.187  0.00  0.00    +0.000 A 
ATOM      3  N   UNL     1      -3.358  11.007  17.084  0.00  0.00    +0.000 N 
ATOM      4  C   UNL     1      -2.465  11.122  18.193  0.00  0.00    +0.000 A 
ATOM      5  C   UNL     1      -1.177  10.567  18.181  0.00  0.00    +0.000 A 
ATOM      6  F   UNL     1      -0.831   9.701  17.215  0.00  0.00    +0.000 F 
ATOM      7  C   UNL     1      -0.212  10.952  19.113  0.00  0.00    +0.000 A 
ATOM      8  C   UNL     1      -0.607  11.702  20.215  0.00  0.00    +0.000 A 
ATOM      9  F   UNL     1       0.283  12.036  21.160  0.00  0.00    +0.000 F 
ATOM     10  C   UNL     1      -1.919  12.147  20.342  0.00  0.00    +0.000 A 
ATOM     11  C   UNL     1      -2.834  11.881  19.314  0.00  0.00    +0.000 A 
ATOM     12  C   UNL     1      -4.197  12.455  19.376  0.00  0.00    +0.000 A 
ATOM     13  O   UNL     1      -4.554  13.152  20.322  0.00  0.00    +0.000 OA
ENDROOT
BRANCH   3  14
ATOM     14  C   UNL     1      -2.783  10.694  15.751  0.00  0.00    +0.000 C 
ATOM     15  C   UNL     1      -2.996   9.311  15.187  0.00  0.00    +0.000 C 
ATOM     16  C   UNL     1      -3.484  10.510  14.436  0.00  0.00    +0.000 C 
ENDBRANCH   3  14
BRANCH   1  18
ATOM     17  O   UNL     1      -7.456  12.027  18.669  0.00  0.00    +0.000 OA
ATOM     18  C   UNL     1      -6.515  12.671  18.218  0.00  0.00    +0.000 C 
BRANCH  18  19
ATOM     19  O   UNL     1      -6.691  13.877  17.635  0.00  0.00    +0.000 OA
ATOM     20  H   UNL     1      -6.998  13.836  16.696  0.00  0.00    +0.000 HD
ENDBRANCH  18  19
ENDBRANCH   1  18
BRANCH   7  21
ATOM     21  O   UNL     1       1.122  10.647  18.967  0.00  0.00    +0.000 OA
BRANCH  21  22
ATOM     22  C   UNL     1       1.517   9.333  19.155  0.00  0.00    +0.000 A 
ATOM     23  C   UNL     1       1.307   8.596  20.330  0.00  0.00    +0.000 A 
ATOM     24  C   UNL     1       1.823   7.306  20.459  0.00  0.00    +0.000 A 
ATOM     25  C   UNL     1       2.489   6.716  19.388  0.00  0.00    +0.000 A 
ATOM     26  C   UNL     1       2.638   7.416  18.191  0.00  0.00    +0.000 A 
ATOM     27  C   UNL     1       2.158   8.723  18.076  0.00  0.00    +0.000 A 
ENDBRANCH  21  22
ENDBRANCH   7  21
TORSDOF 5
ENDMDL
MODEL 8
REMARK VINA RESULT:      -6.8      2.778      6.457
REMARK  Name = 
REMARK  5 active torsions:
REMARK  status: ('A' for Active; 'I' for Inactive)
REMARK    1  A    between atoms: C_2  and  O_3
REMARK    2  A    between atoms: C_2  and  C_4
REMARK    3  A    between atoms: N_6  and  C_7
REMARK    4  A    between atoms: C_13  and  O_14
REMARK    5  A    between atoms: O_14  and  C_15
REMARK                            x       y       z     vdW  Elec       q    Type
REMARK                         _______ _______ _______ _____ _____    ______ ____
ROOT
ATOM      1  C   UNL     1       2.402   4.049  20.202  0.00  0.00    +0.000 A 
ATOM      2  C   UNL     1       2.084   5.325  19.931  0.00  0.00    +0.000 A 
ATOM      3  N   UNL     1       2.802   6.186  19.122  0.00  0.00    +0.000 N 
ATOM      4  C   UNL     1       3.983   5.707  18.477  0.00  0.00    +0.000 A 
ATOM      5  C   UNL     1       4.740   6.506  17.607  0.00  0.00    +0.000 A 
ATOM      6  F   UNL     1       4.242   7.671  17.165  0.00  0.00    +0.000 F 
ATOM      7  C   UNL     1       6.041   6.152  17.244  0.00  0.00    +0.000 A 
ATOM      8  C   UNL     1       6.496   4.874  17.544  0.00  0.00    +0.000 A 
ATOM      9  F   UNL     1       7.718   4.482  17.157  0.00  0.00    +0.000 F 
ATOM     10  C   UNL     1       5.712   3.991  18.280  0.00  0.00    +0.000 A 
ATOM     11  C   UNL     1       4.471   4.424  18.769  0.00  0.00    +0.000 A 
ATOM     12  C   UNL     1       3.682   3.541  19.658  0.00  0.00    +0.000 A 
ATOM     13  O   UNL     1       4.084   2.422  19.967  0.00  0.00    +0.000 OA
ENDROOT
BRANCH   3  14
ATOM     14  C   UNL     1       2.611   7.654  19.234  0.00  0.00    +0.000 C 
ATOM     15  C   UNL     1       1.529   8.300  18.405  0.00  0.00    +0.000 C 
ATOM     16  C   UNL     1       1.501   8.417  19.897  0.00  0.00    +0.000 C 
ENDBRANCH   3  14
BRANCH   1  18
ATOM     17  O   UNL     1       1.801   2.872  22.178  0.00  0.00    +0.000 OA
ATOM     18  C   UNL     1       1.505   3.248  21.050  0.00  0.00    +0.000 C 
BRANCH  18  19
ATOM     19  O   UNL     1       0.320   2.937  20.481  0.00  0.00    +0.000 OA
ATOM     20  H   UNL     1      -0.083   3.669  19.952  0.00  0.00    +0.000 HD
ENDBRANCH  18  19
ENDBRANCH   1  18
BRANCH   7  21
ATOM     21  O   UNL     1       6.903   7.032  16.629  0.00  0.00    +0.000 OA
BRANCH  21  22
ATOM     22  C   UNL     1       7.524   7.992  17.410  0.00  0.00    +0.000 A 
ATOM     23  C   UNL     1       7.443   9.376  17.189  0.00  0.00    +0.000 A 
ATOM     24  C   UNL     1       8.180  10.262  17.977  0.00  0.00    +0.000 A 
ATOM     25  C   UNL     1       8.944   9.778  19.035  0.00  0.00    +0.000 A 
ATOM     26  C   UNL     1       8.971   8.411  19.306  0.00  0.00    +0.000 A 
ATOM     27  C   UNL     1       8.267   7.519  18.492  0.00  0.00    +0.000 A 
ENDBRANCH  21  22
ENDBRANCH   7  21
TORSDOF 5
ENDMDL
MODEL 9
REMARK VINA RESULT:      -6.8      7.184     10.754
REMARK  Name = 
REMARK  5 active torsions:
REMARK  status: ('A' for Active; 'I' for Inactive)
REMARK    1  A    between atoms: C_2  and  O_3
REMARK    2  A    between atoms: C_2  and  C_4
REMARK    3  A    between atoms: N_6  and  C_7
REMARK    4  A    between atoms: C_13  and  O_14
REMARK    5  A    between atoms: O_14  and  C_15
REMARK                            x       y       z     vdW  Elec       q    Type
REMARK                         _______ _______ _______ _____ _____    ______ ____
ROOT
ATOM      1  C   UNL     1       0.488   9.532  20.425  0.00  0.00    +0.000 A 
ATOM      2  C   UNL     1      -0.229   9.949  19.371  0.00  0.00    +0.000 A 
ATOM      3  N   UNL     1      -1.232  10.901  19.397  0.00  0.00    +0.000 N 
ATOM      4  C   UNL     1      -1.549  11.540  20.635  0.00  0.00    +0.000 A 
ATOM      5  C   UNL     1      -2.522  12.546  20.734  0.00  0.00    +0.000 A 
ATOM      6  F   UNL     1      -3.016  13.109  19.620  0.00  0.00    +0.000 F 
ATOM      7  C   UNL     1      -3.048  12.928  21.969  0.00  0.00    +0.000 A 
ATOM      8  C   UNL     1      -2.421  12.487  23.129  0.00  0.00    +0.000 A 
ATOM      9  F   UNL     1      -2.864  12.885  24.330  0.00  0.00    +0.000 F 
ATOM     10  C   UNL     1      -1.350  11.602  23.069  0.00  0.00    +0.000 A 
ATOM     11  C   UNL     1      -0.939  11.109  21.823  0.00  0.00    +0.000 A 
ATOM     12  C   UNL     1       0.115  10.072  21.753  0.00  0.00    +0.000 A 
ATOM     13  O   UNL     1       0.655   9.640  22.769  0.00  0.00    +0.000 OA
ENDROOT
BRANCH   3  14
ATOM     14  C   UNL     1      -2.227  10.973  18.298  0.00  0.00    +0.000 C 
ATOM     15  C   UNL     1      -1.939  10.222  17.021  0.00  0.00    +0.000 C 
ATOM     16  C   UNL     1      -3.175   9.916  17.808  0.00  0.00    +0.000 C 
ENDBRANCH   3  14
BRANCH   1  18
ATOM     17  O   UNL     1       2.164   8.409  19.167  0.00  0.00    +0.000 OA
ATOM     18  C   UNL     1       1.555   8.540  20.223  0.00  0.00    +0.000 C 
BRANCH  18  19
ATOM     19  O   UNL     1       1.809   7.759  21.295  0.00  0.00    +0.000 OA
ATOM     20  H   UNL     1       2.407   6.993  21.110  0.00  0.00    +0.000 HD
ENDBRANCH  18  19
ENDBRANCH   1  18
BRANCH   7  21
ATOM     21  O   UNL     1      -4.183  13.697  22.084  0.00  0.00    +0.000 OA
BRANCH  21  22
ATOM     22  C   UNL     1      -5.401  13.051  22.215  0.00  0.00    +0.000 A 
ATOM     23  C   UNL     1      -6.089  12.423  21.165  0.00  0.00    +0.000 A 
ATOM     24  C   UNL     1      -7.356  11.877  21.376  0.00  0.00    +0.000 A 
ATOM     25  C   UNL     1      -7.912  11.889  22.652  0.00  0.00    +0.000 A 
ATOM     26  C   UNL     1      -7.203  12.446  23.715  0.00  0.00    +0.000 A 
ATOM     27  C   UNL     1      -5.952  13.030  23.496  0.00  0.00    +0.000 A 
ENDBRANCH  21  22
ENDBRANCH   7  21
TORSDOF 5
ENDMDL
