MODEL 1
REMARK VINA RESULT:      -8.3      0.000      0.000
REMARK  Name = 
REMARK  8 active torsions:
REMARK  status: ('A' for Active; 'I' for Inactive)
REMARK    1  A    between atoms: C_1  and  C_2
REMARK    2  A    between atoms: C_6  and  N_7
REMARK    3  A    between atoms: N_10  and  C_11
REMARK    4  A    between atoms: C_11  and  C_12
REMARK    5  A    between atoms: C_12  and  C_13
REMARK    6  A    between atoms: C_13  and  C_14
REMARK    7  A    between atoms: C_14  and  N_15
REMARK    8  A    between atoms: C_24  and  C_25
REMARK                            x       y       z     vdW  Elec       q    Type
REMARK                         _______ _______ _______ _____ _____    ______ ____
ROOT
ATOM      1  N   UNL     1       4.960   4.505  18.402  0.00  0.00    +0.000 N 
ATOM      2  C   UNL     1       6.036   5.121  19.204  0.00  0.00    +0.000 C 
ATOM      3  C   UNL     1       7.390   5.021  18.474  0.00  0.00    +0.000 C 
ATOM      4  N   UNL     1       7.392   5.633  17.124  0.00  0.00    +0.000 NA
ATOM      5  C   UNL     1       6.315   4.967  16.348  0.00  0.00    +0.000 C 
ATOM      6  C   UNL     1       4.910   5.019  17.004  0.00  0.00    +0.000 C 
ENDROOT
BRANCH   1  12
ATOM      7  C   UNL     1       0.556   2.157  18.960  0.00  0.00    +0.000 C 
ATOM      8  C   UNL     1       1.523   3.260  19.300  0.00  0.00    +0.000 A 
ATOM      9  C   UNL     1       1.111   4.263  20.184  0.00  0.00    +0.000 A 
ATOM     10  C   UNL     1       1.963   5.309  20.501  0.00  0.00    +0.000 A 
ATOM     11  C   UNL     1       3.223   5.382  19.911  0.00  0.00    +0.000 A 
ATOM     12  C   UNL     1       3.687   4.404  19.009  0.00  0.00    +0.000 A 
ATOM     13  C   UNL     1       2.834   3.296  18.752  0.00  0.00    +0.000 A 
ATOM     14  C   UNL     1       3.302   2.131  17.908  0.00  0.00    +0.000 C 
ENDBRANCH   1  12
BRANCH   4  15
ATOM     15  C   UNL     1       7.184   7.090  17.159  0.00  0.00    +0.000 C 
BRANCH  15  16
ATOM     16  C   UNL     1       8.076   7.815  18.181  0.00  0.00    +0.000 C 
BRANCH  16  17
ATOM     17  C   UNL     1       8.189   9.327  17.949  0.00  0.00    +0.000 C 
BRANCH  17  18
ATOM     18  C   UNL     1       9.141   9.949  18.962  0.00  0.00    +0.000 C 
BRANCH  18  19
ATOM     19  N   UNL     1       9.743  11.174  18.444  0.00  0.00    +0.000 N 
ATOM     20  C   UNL     1       9.857  12.149  19.461  0.00  0.00    +0.000 A 
ATOM     21  C   UNL     1      10.356  13.403  19.125  0.00  0.00    +0.000 A 
ATOM     22  C   UNL     1      10.496  14.369  20.119  0.00  0.00    +0.000 A 
ATOM     23  C   UNL     1      10.138  14.062  21.425  0.00  0.00    +0.000 A 
ATOM     24  C   UNL     1       9.658  12.794  21.681  0.00  0.00    +0.000 A 
ATOM     25  N   UNL     1       9.519  11.845  20.734  0.00  0.00    +0.000 NA
ATOM     26  H   UNL     1       9.188  11.570  17.688  0.00  0.00    +0.000 HD
ENDBRANCH  18  19
ENDBRANCH  17  18
ENDBRANCH  16  17
ENDBRANCH  15  16
ENDBRANCH   4  15
TORSDOF 6
ENDMDL
MODEL 2
REMARK VINA RESULT:      -8.2      0.997      1.604
REMARK  Name = 
REMARK  8 active torsions:
REMARK  status: ('A' for Active; 'I' for Inactive)
REMARK    1  A    between atoms: C_1  and  C_2
REMARK    2  A    between atoms: C_6  and  N_7
REMARK    3  A    between atoms: N_10  and  C_11
REMARK    4  A    between atoms: C_11  and  C_12
REMARK    5  A    between atoms: C_12  and  C_13
REMARK    6  A    between atoms: C_13  and  C_14
REMARK    7  A    between atoms: C_14  and  N_15
REMARK    8  A    between atoms: C_24  and  C_25
REMARK                            x       y       z     vdW  Elec       q    Type
REMARK                         _______ _______ _______ _____ _____    ______ ____
ROOT
ATOM      1  N   UNL     1       4.785   4.898  18.142  0.00  0.00    +0.000 N 
ATOM      2  C   UNL     1       5.975   5.255  18.943  0.00  0.00    +0.000 C 
ATOM      3  C   UNL     1       7.234   5.317  18.056  0.00  0.00    +0.000 C 
ATOM      4  N   UNL     1       7.123   6.262  16.920  0.00  0.00    +0.000 NA
ATOM      5  C   UNL     1       5.933   5.851  16.132  0.00  0.00    +0.000 C 
ATOM      6  C   UNL     1       4.612   5.763  16.941  0.00  0.00    +0.000 C 
ENDROOT
BRANCH   1  12
ATOM      7  C   UNL     1       0.641   2.185  18.966  0.00  0.00    +0.000 C 
ATOM      8  C   UNL     1       1.546   3.348  19.272  0.00  0.00    +0.000 A 
ATOM      9  C   UNL     1       1.137   4.282  20.232  0.00  0.00    +0.000 A 
ATOM     10  C   UNL     1       1.931   5.380  20.521  0.00  0.00    +0.000 A 
ATOM     11  C   UNL     1       3.125   5.576  19.830  0.00  0.00    +0.000 A 
ATOM     12  C   UNL     1       3.582   4.673  18.850  0.00  0.00    +0.000 A 
ATOM     13  C   UNL     1       2.797   3.510  18.616  0.00  0.00    +0.000 A 
ATOM     14  C   UNL     1       3.277   2.419  17.685  0.00  0.00    +0.000 C 
ENDBRANCH   1  12
BRANCH   4  15
ATOM     15  C   UNL     1       7.000   7.664  17.354  0.00  0.00    +0.000 C 
BRANCH  15  16
ATOM     16  C   UNL     1       8.216   8.170  18.149  0.00  0.00    +0.000 C 
BRANCH  16  17
ATOM     17  C   UNL     1       8.488   9.670  17.985  0.00  0.00    +0.000 C 
BRANCH  17  18
ATOM     18  C   UNL     1       9.437  10.159  19.072  0.00  0.00    +0.000 C 
BRANCH  18  19
ATOM     19  N   UNL     1       9.122  11.525  19.477  0.00  0.00    +0.000 N 
ATOM     20  C   UNL     1       9.869  12.460  18.724  0.00  0.00    +0.000 A 
ATOM     21  C   UNL     1       9.736  13.811  19.024  0.00  0.00    +0.000 A 
ATOM     22  C   UNL     1      10.448  14.748  18.277  0.00  0.00    +0.000 A 
ATOM     23  C   UNL     1      11.274  14.316  17.249  0.00  0.00    +0.000 A 
ATOM     24  C   UNL     1      11.348  12.959  17.007  0.00  0.00    +0.000 A 
ATOM     25  N   UNL     1      10.664  12.038  17.716  0.00  0.00    +0.000 NA
ATOM     26  H   UNL     1       9.328  11.678  20.462  0.00  0.00    +0.000 HD
ENDBRANCH  18  19
ENDBRANCH  17  18
ENDBRANCH  16  17
ENDBRANCH  15  16
ENDBRANCH   4  15
TORSDOF 6
ENDMDL
MODEL 3
REMARK VINA RESULT:      -8.1      1.530      1.783
REMARK  Name = 
REMARK  8 active torsions:
REMARK  status: ('A' for Active; 'I' for Inactive)
REMARK    1  A    between atoms: C_1  and  C_2
REMARK    2  A    between atoms: C_6  and  N_7
REMARK    3  A    between atoms: N_10  and  C_11
REMARK    4  A    between atoms: C_11  and  C_12
REMARK    5  A    between atoms: C_12  and  C_13
REMARK    6  A    between atoms: C_13  and  C_14
REMARK    7  A    between atoms: C_14  and  N_15
REMARK    8  A    between atoms: C_24  and  C_25
REMARK                            x       y       z     vdW  Elec       q    Type
REMARK                         _______ _______ _______ _____ _____    ______ ____
ROOT
ATOM      1  N   UNL     1       4.565   5.156  18.056  0.00  0.00    +0.000 N 
ATOM      2  C   UNL     1       5.863   5.170  18.762  0.00  0.00    +0.000 C 
ATOM      3  C   UNL     1       7.022   5.397  17.771  0.00  0.00    +0.000 C 
ATOM      4  N   UNL     1       6.898   6.642  16.977  0.00  0.00    +0.000 NA
ATOM      5  C   UNL     1       5.595   6.572  16.268  0.00  0.00    +0.000 C 
ATOM      6  C   UNL     1       4.364   6.347  17.185  0.00  0.00    +0.000 C 
ENDROOT
BRANCH   1  12
ATOM      7  C   UNL     1       0.575   2.227  18.906  0.00  0.00    +0.000 C 
ATOM      8  C   UNL     1       1.465   3.389  19.257  0.00  0.00    +0.000 A 
ATOM      9  C   UNL     1       1.100   4.213  20.328  0.00  0.00    +0.000 A 
ATOM     10  C   UNL     1       1.880   5.307  20.665  0.00  0.00    +0.000 A 
ATOM     11  C   UNL     1       3.014   5.611  19.914  0.00  0.00    +0.000 A 
ATOM     12  C   UNL     1       3.424   4.821  18.821  0.00  0.00    +0.000 A 
ATOM     13  C   UNL     1       2.659   3.657  18.534  0.00  0.00    +0.000 A 
ATOM     14  C   UNL     1       3.102   2.676  17.471  0.00  0.00    +0.000 C 
ENDBRANCH   1  12
BRANCH   4  15
ATOM     15  C   UNL     1       6.975   7.858  17.805  0.00  0.00    +0.000 C 
BRANCH  15  16
ATOM     16  C   UNL     1       8.227   8.709  17.532  0.00  0.00    +0.000 C 
BRANCH  16  17
ATOM     17  C   UNL     1       8.792   9.405  18.776  0.00  0.00    +0.000 C 
BRANCH  17  18
ATOM     18  C   UNL     1       8.927  10.903  18.531  0.00  0.00    +0.000 C 
BRANCH  18  19
ATOM     19  N   UNL     1      10.163  11.217  17.823  0.00  0.00    +0.000 N 
ATOM     20  C   UNL     1      10.320  12.614  17.678  0.00  0.00    +0.000 A 
ATOM     21  C   UNL     1      11.419  13.088  16.970  0.00  0.00    +0.000 A 
ATOM     22  C   UNL     1      11.602  14.463  16.835  0.00  0.00    +0.000 A 
ATOM     23  C   UNL     1      10.686  15.333  17.411  0.00  0.00    +0.000 A 
ATOM     24  C   UNL     1       9.626  14.786  18.104  0.00  0.00    +0.000 A 
ATOM     25  N   UNL     1       9.434  13.460  18.249  0.00  0.00    +0.000 NA
ATOM     26  H   UNL     1      10.176  10.799  16.895  0.00  0.00    +0.000 HD
ENDBRANCH  18  19
ENDBRANCH  17  18
ENDBRANCH  16  17
ENDBRANCH  15  16
ENDBRANCH   4  15
TORSDOF 6
ENDMDL
MODEL 4
REMARK VINA RESULT:      -8.0      0.795      1.184
REMARK  Name = 
REMARK  8 active torsions:
REMARK  status: ('A' for Active; 'I' for Inactive)
REMARK    1  A    between atoms: C_1  and  C_2
REMARK    2  A    between atoms: C_6  and  N_7
REMARK    3  A    between atoms: N_10  and  C_11
REMARK    4  A    between atoms: C_11  and  C_12
REMARK    5  A    between atoms: C_12  and  C_13
REMARK    6  A    between atoms: C_13  and  C_14
REMARK    7  A    between atoms: C_14  and  N_15
REMARK    8  A    between atoms: C_24  and  C_25
REMARK                            x       y       z     vdW  Elec       q    Type
REMARK                         _______ _______ _______ _____ _____    ______ ____
ROOT
ATOM      1  N   UNL     1       4.977   5.045  18.151  0.00  0.00    +0.000 N 
ATOM      2  C   UNL     1       6.129   5.433  18.991  0.00  0.00    +0.000 C 
ATOM      3  C   UNL     1       7.423   5.490  18.155  0.00  0.00    +0.000 C 
ATOM      4  N   UNL     1       7.348   6.409  16.994  0.00  0.00    +0.000 NA
ATOM      5  C   UNL     1       6.196   5.966  16.168  0.00  0.00    +0.000 C 
ATOM      6  C   UNL     1       4.844   5.880  16.925  0.00  0.00    +0.000 C 
ENDROOT
BRANCH   1  12
ATOM      7  C   UNL     1       0.881   2.249  18.938  0.00  0.00    +0.000 C 
ATOM      8  C   UNL     1       1.736   3.456  19.217  0.00  0.00    +0.000 A 
ATOM      9  C   UNL     1       1.253   4.429  20.101  0.00  0.00    +0.000 A 
ATOM     10  C   UNL     1       1.999   5.567  20.363  0.00  0.00    +0.000 A 
ATOM     11  C   UNL     1       3.219   5.763  19.718  0.00  0.00    +0.000 A 
ATOM     12  C   UNL     1       3.749   4.821  18.814  0.00  0.00    +0.000 A 
ATOM     13  C   UNL     1       3.011   3.622  18.612  0.00  0.00    +0.000 A 
ATOM     14  C   UNL     1       3.568   2.496  17.770  0.00  0.00    +0.000 C 
ENDBRANCH   1  12
BRANCH   4  15
ATOM     15  C   UNL     1       7.192   7.819  17.391  0.00  0.00    +0.000 C 
BRANCH  15  16
ATOM     16  C   UNL     1       8.379   8.363  18.203  0.00  0.00    +0.000 C 
BRANCH  16  17
ATOM     17  C   UNL     1       8.590   9.876  18.062  0.00  0.00    +0.000 C 
BRANCH  17  18
ATOM     18  C   UNL     1       9.676  10.352  19.019  0.00  0.00    +0.000 C 
BRANCH  18  19
ATOM     19  N   UNL     1       9.117  10.736  20.310  0.00  0.00    +0.000 N 
ATOM     20  C   UNL     1       9.501  12.052  20.656  0.00  0.00    +0.000 A 
ATOM     21  C   UNL     1       9.104  12.556  21.889  0.00  0.00    +0.000 A 
ATOM     22  C   UNL     1       9.456  13.859  22.237  0.00  0.00    +0.000 A 
ATOM     23  C   UNL     1      10.193  14.628  21.348  0.00  0.00    +0.000 A 
ATOM     24  C   UNL     1      10.544  14.059  20.140  0.00  0.00    +0.000 A 
ATOM     25  N   UNL     1      10.210  12.802  19.784  0.00  0.00    +0.000 NA
ATOM     26  H   UNL     1       9.428  10.111  21.051  0.00  0.00    +0.000 HD
ENDBRANCH  18  19
ENDBRANCH  17  18
ENDBRANCH  16  17
ENDBRANCH  15  16
ENDBRANCH   4  15
TORSDOF 6
ENDMDL
MODEL 5
REMARK VINA RESULT:      -8.0      1.353      1.393
REMARK  Name = 
REMARK  8 active torsions:
REMARK  status: ('A' for Active; 'I' for Inactive)
REMARK    1  A    between atoms: C_1  and  C_2
REMARK    2  A    between atoms: C_6  and  N_7
REMARK    3  A    between atoms: N_10  and  C_11
REMARK    4  A    between atoms: C_11  and  C_12
REMARK    5  A    between atoms: C_12  and  C_13
REMARK    6  A    between atoms: C_13  and  C_14
REMARK    7  A    between atoms: C_14  and  N_15
REMARK    8  A    between atoms: C_24  and  C_25
REMARK                            x       y       z     vdW  Elec       q    Type
REMARK                         _______ _______ _______ _____ _____    ______ ____
ROOT
ATOM      1  N   UNL     1       5.139   4.760  18.673  0.00  0.00    +0.000 N 
ATOM      2  C   UNL     1       6.303   5.415  19.306  0.00  0.00    +0.000 C 
ATOM      3  C   UNL     1       7.592   5.129  18.510  0.00  0.00    +0.000 C 
ATOM      4  N   UNL     1       7.525   5.544  17.089  0.00  0.00    +0.000 NA
ATOM      5  C   UNL     1       6.361   4.844  16.490  0.00  0.00    +0.000 C 
ATOM      6  C   UNL     1       5.013   5.075  17.223  0.00  0.00    +0.000 C 
ENDROOT
BRANCH   1  12
ATOM      7  C   UNL     1       1.480   2.538  21.298  0.00  0.00    +0.000 C 
ATOM      8  C   UNL     1       2.110   3.751  20.667  0.00  0.00    +0.000 A 
ATOM      9  C   UNL     1       1.412   4.963  20.702  0.00  0.00    +0.000 A 
ATOM     10  C   UNL     1       1.947   6.096  20.110  0.00  0.00    +0.000 A 
ATOM     11  C   UNL     1       3.169   6.021  19.444  0.00  0.00    +0.000 A 
ATOM     12  C   UNL     1       3.912   4.825  19.371  0.00  0.00    +0.000 A 
ATOM     13  C   UNL     1       3.389   3.689  20.049  0.00  0.00    +0.000 A 
ATOM     14  C   UNL     1       4.181   2.404  20.143  0.00  0.00    +0.000 C 
ENDBRANCH   1  12
BRANCH   4  15
ATOM     15  C   UNL     1       7.397   7.003  16.926  0.00  0.00    +0.000 C 
BRANCH  15  16
ATOM     16  C   UNL     1       8.088   7.809  18.038  0.00  0.00    +0.000 C 
BRANCH  16  17
ATOM     17  C   UNL     1       7.903   9.326  17.916  0.00  0.00    +0.000 C 
BRANCH  17  18
ATOM     18  C   UNL     1       9.183  10.051  18.311  0.00  0.00    +0.000 C 
BRANCH  18  19
ATOM     19  N   UNL     1       9.070  11.489  18.089  0.00  0.00    +0.000 N 
ATOM     20  C   UNL     1      10.175  12.174  18.646  0.00  0.00    +0.000 A 
ATOM     21  C   UNL     1      10.198  13.562  18.577  0.00  0.00    +0.000 A 
ATOM     22  C   UNL     1      11.289  14.253  19.103  0.00  0.00    +0.000 A 
ATOM     23  C   UNL     1      12.331  13.543  19.681  0.00  0.00    +0.000 A 
ATOM     24  C   UNL     1      12.239  12.166  19.704  0.00  0.00    +0.000 A 
ATOM     25  N   UNL     1      11.195  11.480  19.199  0.00  0.00    +0.000 NA
ATOM     26  H   UNL     1       8.222  11.865  18.507  0.00  0.00    +0.000 HD
ENDBRANCH  18  19
ENDBRANCH  17  18
ENDBRANCH  16  17
ENDBRANCH  15  16
ENDBRANCH   4  15
TORSDOF 6
ENDMDL
MODEL 6
REMARK VINA RESULT:      -8.0      1.151      1.527
REMARK  Name = 
REMARK  8 active torsions:
REMARK  status: ('A' for Active; 'I' for Inactive)
REMARK    1  A    between atoms: C_1  and  C_2
REMARK    2  A    between atoms: C_6  and  N_7
REMARK    3  A    between atoms: N_10  and  C_11
REMARK    4  A    between atoms: C_11  and  C_12
REMARK    5  A    between atoms: C_12  and  C_13
REMARK    6  A    between atoms: C_13  and  C_14
REMARK    7  A    between atoms: C_14  and  N_15
REMARK    8  A    between atoms: C_24  and  C_25
REMARK                            x       y       z     vdW  Elec       q    Type
REMARK                         _______ _______ _______ _____ _____    ______ ____
ROOT
ATOM      1  N   UNL     1       5.042   4.434  18.602  0.00  0.00    +0.000 N 
ATOM      2  C   UNL     1       6.018   5.246  19.358  0.00  0.00    +0.000 C 
ATOM      3  C   UNL     1       7.430   5.107  18.754  0.00  0.00    +0.000 C 
ATOM      4  N   UNL     1       7.509   5.476  17.321  0.00  0.00    +0.000 NA
ATOM      5  C   UNL     1       6.533   4.620  16.601  0.00  0.00    +0.000 C 
ATOM      6  C   UNL     1       5.079   4.695  17.136  0.00  0.00    +0.000 C 
ENDROOT
BRANCH   1  12
ATOM      7  C   UNL     1       0.582   2.146  18.914  0.00  0.00    +0.000 C 
ATOM      8  C   UNL     1       1.538   3.245  19.296  0.00  0.00    +0.000 A 
ATOM      9  C   UNL     1       1.082   4.269  20.133  0.00  0.00    +0.000 A 
ATOM     10  C   UNL     1       1.924   5.312  20.486  0.00  0.00    +0.000 A 
ATOM     11  C   UNL     1       3.221   5.360  19.978  0.00  0.00    +0.000 A 
ATOM     12  C   UNL     1       3.731   4.359  19.127  0.00  0.00    +0.000 A 
ATOM     13  C   UNL     1       2.882   3.256  18.834  0.00  0.00    +0.000 A 
ATOM     14  C   UNL     1       3.390   2.069  18.045  0.00  0.00    +0.000 C 
ENDBRANCH   1  12
BRANCH   4  15
ATOM     15  C   UNL     1       7.227   6.902  17.083  0.00  0.00    +0.000 C 
BRANCH  15  16
ATOM     16  C   UNL     1       8.112   7.851  17.908  0.00  0.00    +0.000 C 
BRANCH  16  17
ATOM     17  C   UNL     1       7.658   9.315  17.874  0.00  0.00    +0.000 C 
BRANCH  17  18
ATOM     18  C   UNL     1       8.855  10.238  17.684  0.00  0.00    +0.000 C 
BRANCH  18  19
ATOM     19  N   UNL     1       9.526  10.506  18.952  0.00  0.00    +0.000 N 
ATOM     20  C   UNL     1      10.479  11.542  18.809  0.00  0.00    +0.000 A 
ATOM     21  C   UNL     1      11.255  11.885  19.911  0.00  0.00    +0.000 A 
ATOM     22  C   UNL     1      12.184  12.918  19.794  0.00  0.00    +0.000 A 
ATOM     23  C   UNL     1      12.315  13.585  18.584  0.00  0.00    +0.000 A 
ATOM     24  C   UNL     1      11.504  13.191  17.540  0.00  0.00    +0.000 A 
ATOM     25  N   UNL     1      10.597  12.197  17.633  0.00  0.00    +0.000 NA
ATOM     26  H   UNL     1      10.008   9.680  19.300  0.00  0.00    +0.000 HD
ENDBRANCH  18  19
ENDBRANCH  17  18
ENDBRANCH  16  17
ENDBRANCH  15  16
ENDBRANCH   4  15
TORSDOF 6
ENDMDL
MODEL 7
REMARK VINA RESULT:      -7.8      1.146      1.493
REMARK  Name = 
REMARK  8 active torsions:
REMARK  status: ('A' for Active; 'I' for Inactive)
REMARK    1  A    between atoms: C_1  and  C_2
REMARK    2  A    between atoms: C_6  and  N_7
REMARK    3  A    between atoms: N_10  and  C_11
REMARK    4  A    between atoms: C_11  and  C_12
REMARK    5  A    between atoms: C_12  and  C_13
REMARK    6  A    between atoms: C_13  and  C_14
REMARK    7  A    between atoms: C_14  and  N_15
REMARK    8  A    between atoms: C_24  and  C_25
REMARK                            x       y       z     vdW  Elec       q    Type
REMARK                         _______ _______ _______ _____ _____    ______ ____
ROOT
ATOM      1  N   UNL     1       4.513   5.154  17.817  0.00  0.00    +0.000 N 
ATOM      2  C   UNL     1       5.809   4.531  18.157  0.00  0.00    +0.000 C 
ATOM      3  C   UNL     1       6.863   4.831  17.073  0.00  0.00    +0.000 C 
ATOM      4  N   UNL     1       7.078   6.277  16.828  0.00  0.00    +0.000 NA
ATOM      5  C   UNL     1       5.759   6.854  16.465  0.00  0.00    +0.000 C 
ATOM      6  C   UNL     1       4.631   6.605  17.501  0.00  0.00    +0.000 C 
ENDROOT
BRANCH   1  12
ATOM      7  C   UNL     1       0.455   2.392  18.875  0.00  0.00    +0.000 C 
ATOM      8  C   UNL     1       1.426   3.497  19.193  0.00  0.00    +0.000 A 
ATOM      9  C   UNL     1       1.182   4.301  20.313  0.00  0.00    +0.000 A 
ATOM     10  C   UNL     1       2.039   5.345  20.623  0.00  0.00    +0.000 A 
ATOM     11  C   UNL     1       3.128   5.620  19.798  0.00  0.00    +0.000 A 
ATOM     12  C   UNL     1       3.417   4.848  18.655  0.00  0.00    +0.000 A 
ATOM     13  C   UNL     1       2.575   3.733  18.391  0.00  0.00    +0.000 A 
ATOM     14  C   UNL     1       2.889   2.768  17.269  0.00  0.00    +0.000 C 
ENDBRANCH   1  12
BRANCH   4  15
ATOM     15  C   UNL     1       7.649   6.974  17.993  0.00  0.00    +0.000 C 
BRANCH  15  16
ATOM     16  C   UNL     1       7.854   8.481  17.768  0.00  0.00    +0.000 C 
BRANCH  16  17
ATOM     17  C   UNL     1       8.952   9.099  18.642  0.00  0.00    +0.000 C 
BRANCH  17  18
ATOM     18  C   UNL     1       9.024  10.604  18.420  0.00  0.00    +0.000 C 
BRANCH  18  19
ATOM     19  N   UNL     1       9.388  11.306  19.646  0.00  0.00    +0.000 N 
ATOM     20  C   UNL     1       9.307  12.707  19.469  0.00  0.00    +0.000 A 
ATOM     21  C   UNL     1       9.680  13.531  20.524  0.00  0.00    +0.000 A 
ATOM     22  C   UNL     1       9.585  14.914  20.375  0.00  0.00    +0.000 A 
ATOM     23  C   UNL     1       9.119  15.441  19.178  0.00  0.00    +0.000 A 
ATOM     24  C   UNL     1       8.762  14.558  18.180  0.00  0.00    +0.000 A 
ATOM     25  N   UNL     1       8.842  13.218  18.307  0.00  0.00    +0.000 NA
ATOM     26  H   UNL     1      10.337  11.080  19.937  0.00  0.00    +0.000 HD
ENDBRANCH  18  19
ENDBRANCH  17  18
ENDBRANCH  16  17
ENDBRANCH  15  16
ENDBRANCH   4  15
TORSDOF 6
ENDMDL
MODEL 8
REMARK VINA RESULT:      -7.8      1.382      2.129
REMARK  Name = 
REMARK  8 active torsions:
REMARK  status: ('A' for Active; 'I' for Inactive)
REMARK    1  A    between atoms: C_1  and  C_2
REMARK    2  A    between atoms: C_6  and  N_7
REMARK    3  A    between atoms: N_10  and  C_11
REMARK    4  A    between atoms: C_11  and  C_12
REMARK    5  A    between atoms: C_12  and  C_13
REMARK    6  A    between atoms: C_13  and  C_14
REMARK    7  A    between atoms: C_14  and  N_15
REMARK    8  A    between atoms: C_24  and  C_25
REMARK                            x       y       z     vdW  Elec       q    Type
REMARK                         _______ _______ _______ _____ _____    ______ ____
ROOT
ATOM      1  N   UNL     1       5.133   4.183  17.509  0.00  0.00    +0.000 N 
ATOM      2  C   UNL     1       6.209   4.593  18.436  0.00  0.00    +0.000 C 
ATOM      3  C   UNL     1       7.477   4.998  17.660  0.00  0.00    +0.000 C 
ATOM      4  N   UNL     1       7.257   6.084  16.675  0.00  0.00    +0.000 NA
ATOM      5  C   UNL     1       6.191   5.619  15.752  0.00  0.00    +0.000 C 
ATOM      6  C   UNL     1       4.869   5.191  16.444  0.00  0.00    +0.000 C 
ENDROOT
BRANCH   1  12
ATOM      7  C   UNL     1       1.180   4.647  20.571  0.00  0.00    +0.000 C 
ATOM      8  C   UNL     1       2.007   3.870  19.582  0.00  0.00    +0.000 A 
ATOM      9  C   UNL     1       1.639   2.551  19.292  0.00  0.00    +0.000 A 
ATOM     10  C   UNL     1       2.390   1.794  18.407  0.00  0.00    +0.000 A 
ATOM     11  C   UNL     1       3.536   2.336  17.828  0.00  0.00    +0.000 A 
ATOM     12  C   UNL     1       3.956   3.656  18.088  0.00  0.00    +0.000 A 
ATOM     13  C   UNL     1       3.135   4.447  18.938  0.00  0.00    +0.000 A 
ATOM     14  C   UNL     1       3.430   5.913  19.163  0.00  0.00    +0.000 C 
ENDBRANCH   1  12
BRANCH   4  15
ATOM     15  C   UNL     1       6.879   7.359  17.307  0.00  0.00    +0.000 C 
BRANCH  15  16
ATOM     16  C   UNL     1       8.040   8.049  18.043  0.00  0.00    +0.000 C 
BRANCH  16  17
ATOM     17  C   UNL     1       8.132   9.558  17.787  0.00  0.00    +0.000 C 
BRANCH  17  18
ATOM     18  C   UNL     1       9.112  10.203  18.760  0.00  0.00    +0.000 C 
BRANCH  18  19
ATOM     19  N   UNL     1      10.227  10.828  18.056  0.00  0.00    +0.000 N 
ATOM     20  C   UNL     1      10.069  12.232  18.007  0.00  0.00    +0.000 A 
ATOM     21  C   UNL     1      11.015  12.982  17.317  0.00  0.00    +0.000 A 
ATOM     22  C   UNL     1      10.887  14.369  17.276  0.00  0.00    +0.000 A 
ATOM     23  C   UNL     1       9.820  14.976  17.926  0.00  0.00    +0.000 A 
ATOM     24  C   UNL     1       8.927  14.165  18.595  0.00  0.00    +0.000 A 
ATOM     25  N   UNL     1       9.036  12.822  18.649  0.00  0.00    +0.000 NA
ATOM     26  H   UNL     1      10.302  10.485  17.101  0.00  0.00    +0.000 HD
ENDBRANCH  18  19
ENDBRANCH  17  18
ENDBRANCH  16  17
ENDBRANCH  15  16
ENDBRANCH   4  15
TORSDOF 6
ENDMDL
MODEL 9
REMARK VINA RESULT:      -7.6      3.770      6.578
REMARK  Name = 
REMARK  8 active torsions:
REMARK  status: ('A' for Active; 'I' for Inactive)
REMARK    1  A    between atoms: C_1  and  C_2
REMARK    2  A    between atoms: C_6  and  N_7
REMARK    3  A    between atoms: N_10  and  C_11
REMARK    4  A    between atoms: C_11  and  C_12
REMARK    5  A    between atoms: C_12  and  C_13
REMARK    6  A    between atoms: C_13  and  C_14
REMARK    7  A    between atoms: C_14  and  N_15
REMARK    8  A    between atoms: C_24  and  C_25
REMARK                            x       y       z     vdW  Elec       q    Type
REMARK                         _______ _______ _______ _____ _____    ______ ____
ROOT
ATOM      1  N   UNL     1       2.349   6.432  20.054  0.00  0.00    +0.000 N 
ATOM      2  C   UNL     1       3.554   5.831  19.446  0.00  0.00    +0.000 C 
ATOM      3  C   UNL     1       3.960   4.543  20.190  0.00  0.00    +0.000 C 
ATOM      4  N   UNL     1       2.891   3.518  20.242  0.00  0.00    +0.000 NA
ATOM      5  C   UNL     1       1.713   4.157  20.882  0.00  0.00    +0.000 C 
ATOM      6  C   UNL     1       1.227   5.463  20.200  0.00  0.00    +0.000 C 
ENDROOT
BRANCH   1  12
ATOM      7  C   UNL     1       0.060  10.854  20.704  0.00  0.00    +0.000 C 
ATOM      8  C   UNL     1       0.828   9.870  19.863  0.00  0.00    +0.000 A 
ATOM      9  C   UNL     1       1.073  10.183  18.521  0.00  0.00    +0.000 A 
ATOM     10  C   UNL     1       1.754   9.291  17.708  0.00  0.00    +0.000 A 
ATOM     11  C   UNL     1       2.168   8.062  18.218  0.00  0.00    +0.000 A 
ATOM     12  C   UNL     1       1.943   7.692  19.559  0.00  0.00    +0.000 A 
ATOM     13  C   UNL     1       1.311   8.647  20.402  0.00  0.00    +0.000 A 
ATOM     14  C   UNL     1       1.154   8.393  21.885  0.00  0.00    +0.000 C 
ENDBRANCH   1  12
BRANCH   4  15
ATOM     15  C   UNL     1       2.540   2.991  18.912  0.00  0.00    +0.000 C 
BRANCH  15  16
ATOM     16  C   UNL     1       3.760   2.717  18.018  0.00  0.00    +0.000 C 
BRANCH  16  17
ATOM     17  C   UNL     1       3.804   3.569  16.743  0.00  0.00    +0.000 C 
BRANCH  17  18
ATOM     18  C   UNL     1       5.246   3.828  16.327  0.00  0.00    +0.000 C 
BRANCH  18  19
ATOM     19  N   UNL     1       6.132   3.885  17.485  0.00  0.00    +0.000 N 
ATOM     20  C   UNL     1       6.696   5.174  17.626  0.00  0.00    +0.000 A 
ATOM     21  C   UNL     1       7.616   5.386  18.647  0.00  0.00    +0.000 A 
ATOM     22  C   UNL     1       8.166   6.656  18.814  0.00  0.00    +0.000 A 
ATOM     23  C   UNL     1       7.786   7.683  17.961  0.00  0.00    +0.000 A 
ATOM     24  C   UNL     1       6.863   7.395  16.977  0.00  0.00    +0.000 A 
ATOM     25  N   UNL     1       6.316   6.175  16.801  0.00  0.00    +0.000 NA
ATOM     26  H   UNL     1       6.893   3.214  17.404  0.00  0.00    +0.000 HD
ENDBRANCH  18  19
ENDBRANCH  17  18
ENDBRANCH  16  17
ENDBRANCH  15  16
ENDBRANCH   4  15
TORSDOF 6
ENDMDL
