MODEL 1
REMARK VINA RESULT:      -9.1      0.000      0.000
REMARK  Name = 
REMARK  6 active torsions:
REMARK  status: ('A' for Active; 'I' for Inactive)
REMARK    1  A    between atoms: C_2  and  C_24
REMARK    2  A    between atoms: N_3  and  C_4
REMARK    3  A    between atoms: C_7  and  O_8
REMARK    4  A    between atoms: O_8  and  C_9
REMARK    5  A    between atoms: C_14  and  C_15
REMARK    6  A    between atoms: N_28  and  C_29
REMARK                            x       y       z     vdW  Elec       q    Type
REMARK                         _______ _______ _______ _____ _____    ______ ____
ROOT
ATOM      1  C   UNL     1       0.600   9.560  20.287  0.00  0.00    +0.000 A 
ATOM      2  C   UNL     1       0.709   8.553  21.246  0.00  0.00    +0.000 A 
ATOM      3  C   UNL     1       1.535   7.450  21.021  0.00  0.00    +0.000 A 
ATOM      4  C   UNL     1       2.250   7.342  19.829  0.00  0.00    +0.000 A 
ATOM      5  C   UNL     1       2.050   8.293  18.829  0.00  0.00    +0.000 A 
ATOM      6  F   UNL     1       2.649   8.182  17.634  0.00  0.00    +0.000 F 
ATOM      7  C   UNL     1       1.252   9.412  19.060  0.00  0.00    +0.000 A 
ENDROOT
BRANCH   1  10
ATOM      8  O   UNL     1       1.532  12.208  21.210  0.00  0.00    +0.000 OA
ATOM      9  C   UNL     1       0.365  11.967  20.912  0.00  0.00    +0.000 C 
ATOM     10  N   UNL     1      -0.125  10.749  20.495  0.00  0.00    +0.000 N 
ATOM     11  H   UNL     1      -1.102  10.729  20.190  0.00  0.00    +0.000 HD
BRANCH   9  12
ATOM     12  C   UNL     1      -0.644  13.071  20.952  0.00  0.00    +0.000 A 
ATOM     13  C   UNL     1      -0.364  14.165  20.238  0.00  0.00    +0.000 A 
ATOM     14  C   UNL     1      -1.398  15.194  20.170  0.00  0.00    +0.000 A 
ATOM     15  N   UNL     1      -2.538  15.158  20.775  0.00  0.00    +0.000 NA
ATOM     16  N   UNL     1      -2.793  14.068  21.586  0.00  0.00    +0.000 N 
ATOM     17  C   UNL     1      -1.922  12.979  21.703  0.00  0.00    +0.000 A 
ATOM     18  O   UNL     1      -2.139  11.950  22.348  0.00  0.00    +0.000 OA
BRANCH  16  19
ATOM     19  C   UNL     1      -4.048  14.121  22.275  0.00  0.00    +0.000 A 
ATOM     20  C   UNL     1      -5.140  13.333  21.870  0.00  0.00    +0.000 A 
ATOM     21  C   UNL     1      -6.379  13.430  22.506  0.00  0.00    +0.000 A 
ATOM     22  C   UNL     1      -6.536  14.314  23.560  0.00  0.00    +0.000 A 
ATOM     23  F   UNL     1      -7.731  14.424  24.155  0.00  0.00    +0.000 F 
ATOM     24  C   UNL     1      -5.470  15.085  24.006  0.00  0.00    +0.000 A 
ATOM     25  C   UNL     1      -4.225  14.977  23.376  0.00  0.00    +0.000 A 
ENDBRANCH  16  19
ENDBRANCH   9  12
ENDBRANCH   1  10
BRANCH   4  26
ATOM     26  O   UNL     1       3.069   6.245  19.732  0.00  0.00    +0.000 OA
BRANCH  26  27
ATOM     27  C   UNL     1       2.816   5.247  18.811  0.00  0.00    +0.000 A 
ATOM     28  C   UNL     1       1.560   4.637  18.696  0.00  0.00    +0.000 A 
ATOM     29  C   UNL     1       1.422   3.566  17.836  0.00  0.00    +0.000 A 
ATOM     30  N   UNL     1       2.415   3.119  17.050  0.00  0.00    +0.000 NA
ATOM     31  C   UNL     1       3.590   3.794  17.112  0.00  0.00    +0.000 A 
ATOM     32  C   UNL     1       3.869   4.881  17.949  0.00  0.00    +0.000 A 
BRANCH  32  33
ATOM     33  C   UNL     1       5.174   5.587  17.873  0.00  0.00    +0.000 A 
ATOM     34  C   UNL     1       6.250   5.273  18.717  0.00  0.00    +0.000 A 
ATOM     35  C   UNL     1       7.481   5.920  18.587  0.00  0.00    +0.000 A 
ATOM     36  C   UNL     1       7.614   6.894  17.615  0.00  0.00    +0.000 A 
ATOM     37  N   UNL     1       6.622   7.238  16.775  0.00  0.00    +0.000 NA
ATOM     38  C   UNL     1       5.445   6.576  16.918  0.00  0.00    +0.000 A 
ENDBRANCH  32  33
ENDBRANCH  26  27
ENDBRANCH   4  26
TORSDOF 6
ENDMDL
MODEL 2
REMARK VINA RESULT:      -9.0      7.711     11.635
REMARK  Name = 
REMARK  6 active torsions:
REMARK  status: ('A' for Active; 'I' for Inactive)
REMARK    1  A    between atoms: C_2  and  C_24
REMARK    2  A    between atoms: N_3  and  C_4
REMARK    3  A    between atoms: C_7  and  O_8
REMARK    4  A    between atoms: O_8  and  C_9
REMARK    5  A    between atoms: C_14  and  C_15
REMARK    6  A    between atoms: N_28  and  C_29
REMARK                            x       y       z     vdW  Elec       q    Type
REMARK                         _______ _______ _______ _____ _____    ______ ____
ROOT
ATOM      1  C   UNL     1       8.264   9.435  18.074  0.00  0.00    +0.000 A 
ATOM      2  C   UNL     1       9.046   9.373  19.228  0.00  0.00    +0.000 A 
ATOM      3  C   UNL     1       9.587  10.536  19.778  0.00  0.00    +0.000 A 
ATOM      4  C   UNL     1       9.357  11.770  19.172  0.00  0.00    +0.000 A 
ATOM      5  C   UNL     1       8.670  11.813  17.958  0.00  0.00    +0.000 A 
ATOM      6  F   UNL     1       8.502  12.966  17.295  0.00  0.00    +0.000 F 
ATOM      7  C   UNL     1       8.102  10.659  17.421  0.00  0.00    +0.000 A 
ENDROOT
BRANCH   1  10
ATOM      8  O   UNL     1       8.267   6.615  18.959  0.00  0.00    +0.000 OA
ATOM      9  C   UNL     1       7.620   7.022  17.997  0.00  0.00    +0.000 C 
ATOM     10  N   UNL     1       7.599   8.318  17.532  0.00  0.00    +0.000 N 
ATOM     11  H   UNL     1       6.935   8.522  16.780  0.00  0.00    +0.000 HD
BRANCH   9  12
ATOM     12  C   UNL     1       6.734   6.072  17.257  0.00  0.00    +0.000 A 
ATOM     13  C   UNL     1       7.102   5.756  16.011  0.00  0.00    +0.000 A 
ATOM     14  C   UNL     1       6.313   4.735  15.327  0.00  0.00    +0.000 A 
ATOM     15  N   UNL     1       5.270   4.144  15.803  0.00  0.00    +0.000 NA
ATOM     16  N   UNL     1       4.835   4.532  17.057  0.00  0.00    +0.000 N 
ATOM     17  C   UNL     1       5.522   5.456  17.853  0.00  0.00    +0.000 A 
ATOM     18  O   UNL     1       5.220   5.776  19.006  0.00  0.00    +0.000 OA
BRANCH  16  19
ATOM     19  C   UNL     1       3.638   3.883  17.498  0.00  0.00    +0.000 A 
ATOM     20  C   UNL     1       2.425   4.584  17.619  0.00  0.00    +0.000 A 
ATOM     21  C   UNL     1       1.273   3.963  18.105  0.00  0.00    +0.000 A 
ATOM     22  C   UNL     1       1.322   2.628  18.471  0.00  0.00    +0.000 A 
ATOM     23  F   UNL     1       0.224   2.038  18.960  0.00  0.00    +0.000 F 
ATOM     24  C   UNL     1       2.495   1.897  18.336  0.00  0.00    +0.000 A 
ATOM     25  C   UNL     1       3.646   2.518  17.836  0.00  0.00    +0.000 A 
ENDBRANCH  16  19
ENDBRANCH   9  12
ENDBRANCH   1  10
BRANCH   4  26
ATOM     26  O   UNL     1       9.891  12.853  19.822  0.00  0.00    +0.000 OA
BRANCH  26  27
ATOM     27  C   UNL     1       9.082  13.756  20.484  0.00  0.00    +0.000 A 
ATOM     28  C   UNL     1       8.259  13.379  21.553  0.00  0.00    +0.000 A 
ATOM     29  C   UNL     1       7.392  14.314  22.081  0.00  0.00    +0.000 A 
ATOM     30  N   UNL     1       7.343  15.591  21.667  0.00  0.00    +0.000 NA
ATOM     31  C   UNL     1       8.223  15.950  20.699  0.00  0.00    +0.000 A 
ATOM     32  C   UNL     1       9.140  15.101  20.068  0.00  0.00    +0.000 A 
BRANCH  32  33
ATOM     33  C   UNL     1      10.106  15.630  19.070  0.00  0.00    +0.000 A 
ATOM     34  C   UNL     1       9.760  15.841  17.726  0.00  0.00    +0.000 A 
ATOM     35  C   UNL     1      10.676  16.386  16.823  0.00  0.00    +0.000 A 
ATOM     36  C   UNL     1      11.942  16.701  17.279  0.00  0.00    +0.000 A 
ATOM     37  N   UNL     1      12.333  16.524  18.554  0.00  0.00    +0.000 NA
ATOM     38  C   UNL     1      11.411  16.009  19.408  0.00  0.00    +0.000 A 
ENDBRANCH  32  33
ENDBRANCH  26  27
ENDBRANCH   4  26
TORSDOF 6
ENDMDL
MODEL 3
REMARK VINA RESULT:      -8.9      1.516      1.914
REMARK  Name = 
REMARK  6 active torsions:
REMARK  status: ('A' for Active; 'I' for Inactive)
REMARK    1  A    between atoms: C_2  and  C_24
REMARK    2  A    between atoms: N_3  and  C_4
REMARK    3  A    between atoms: C_7  and  O_8
REMARK    4  A    between atoms: O_8  and  C_9
REMARK    5  A    between atoms: C_14  and  C_15
REMARK    6  A    between atoms: N_28  and  C_29
REMARK                            x       y       z     vdW  Elec       q    Type
REMARK                         _______ _______ _______ _____ _____    ______ ____
ROOT
ATOM      1  C   UNL     1       1.172   9.499  19.316  0.00  0.00    +0.000 A 
ATOM      2  C   UNL     1       1.749   9.481  18.046  0.00  0.00    +0.000 A 
ATOM      3  C   UNL     1       2.509   8.387  17.631  0.00  0.00    +0.000 A 
ATOM      4  C   UNL     1       2.708   7.306  18.488  0.00  0.00    +0.000 A 
ATOM      5  C   UNL     1       2.224   7.378  19.795  0.00  0.00    +0.000 A 
ATOM      6  F   UNL     1       2.466   6.401  20.681  0.00  0.00    +0.000 F 
ATOM      7  C   UNL     1       1.438   8.454  20.204  0.00  0.00    +0.000 A 
ENDROOT
BRANCH   1  10
ATOM      8  O   UNL     1       1.726  11.859  21.006  0.00  0.00    +0.000 OA
ATOM      9  C   UNL     1       0.620  11.611  20.532  0.00  0.00    +0.000 C 
ATOM     10  N   UNL     1       0.304  10.517  19.756  0.00  0.00    +0.000 N 
ATOM     11  H   UNL     1      -0.637  10.499  19.353  0.00  0.00    +0.000 HD
BRANCH   9  12
ATOM     12  C   UNL     1      -0.505  12.569  20.757  0.00  0.00    +0.000 A 
ATOM     13  C   UNL     1      -0.396  13.769  20.178  0.00  0.00    +0.000 A 
ATOM     14  C   UNL     1      -1.545  14.664  20.288  0.00  0.00    +0.000 A 
ATOM     15  N   UNL     1      -2.635  14.415  20.931  0.00  0.00    +0.000 NA
ATOM     16  N   UNL     1      -2.715  13.211  21.605  0.00  0.00    +0.000 N 
ATOM     17  C   UNL     1      -1.719  12.230  21.544  0.00  0.00    +0.000 A 
ATOM     18  O   UNL     1      -1.777  11.112  22.061  0.00  0.00    +0.000 OA
BRANCH  16  19
ATOM     19  C   UNL     1      -3.926  13.026  22.349  0.00  0.00    +0.000 A 
ATOM     20  C   UNL     1      -5.183  13.050  21.719  0.00  0.00    +0.000 A 
ATOM     21  C   UNL     1      -6.364  12.927  22.454  0.00  0.00    +0.000 A 
ATOM     22  C   UNL     1      -6.298  12.774  23.828  0.00  0.00    +0.000 A 
ATOM     23  F   UNL     1      -7.431  12.680  24.536  0.00  0.00    +0.000 F 
ATOM     24  C   UNL     1      -5.072  12.715  24.479  0.00  0.00    +0.000 A 
ATOM     25  C   UNL     1      -3.888  12.825  23.739  0.00  0.00    +0.000 A 
ENDBRANCH  16  19
ENDBRANCH   9  12
ENDBRANCH   1  10
BRANCH   4  26
ATOM     26  O   UNL     1       3.427   6.262  17.964  0.00  0.00    +0.000 OA
BRANCH  26  27
ATOM     27  C   UNL     1       2.887   4.993  17.888  0.00  0.00    +0.000 A 
ATOM     28  C   UNL     1       1.595   4.701  18.341  0.00  0.00    +0.000 A 
ATOM     29  C   UNL     1       1.175   3.386  18.341  0.00  0.00    +0.000 A 
ATOM     30  N   UNL     1       1.920   2.375  17.864  0.00  0.00    +0.000 NA
ATOM     31  C   UNL     1       3.127   2.704  17.339  0.00  0.00    +0.000 A 
ATOM     32  C   UNL     1       3.678   3.990  17.293  0.00  0.00    +0.000 A 
BRANCH  32  33
ATOM     33  C   UNL     1       4.982   4.236  16.623  0.00  0.00    +0.000 A 
ATOM     34  C   UNL     1       5.098   4.384  15.233  0.00  0.00    +0.000 A 
ATOM     35  C   UNL     1       6.331   4.665  14.638  0.00  0.00    +0.000 A 
ATOM     36  C   UNL     1       7.443   4.780  15.450  0.00  0.00    +0.000 A 
ATOM     37  N   UNL     1       7.396   4.651  16.788  0.00  0.00    +0.000 NA
ATOM     38  C   UNL     1       6.179   4.396  17.333  0.00  0.00    +0.000 A 
ENDBRANCH  32  33
ENDBRANCH  26  27
ENDBRANCH   4  26
TORSDOF 6
ENDMDL
MODEL 4
REMARK VINA RESULT:      -8.9      7.717     11.649
REMARK  Name = 
REMARK  6 active torsions:
REMARK  status: ('A' for Active; 'I' for Inactive)
REMARK    1  A    between atoms: C_2  and  C_24
REMARK    2  A    between atoms: N_3  and  C_4
REMARK    3  A    between atoms: C_7  and  O_8
REMARK    4  A    between atoms: O_8  and  C_9
REMARK    5  A    between atoms: C_14  and  C_15
REMARK    6  A    between atoms: N_28  and  C_29
REMARK                            x       y       z     vdW  Elec       q    Type
REMARK                         _______ _______ _______ _____ _____    ______ ____
ROOT
ATOM      1  C   UNL     1       8.352   9.474  18.120  0.00  0.00    +0.000 A 
ATOM      2  C   UNL     1       9.101   9.446  19.297  0.00  0.00    +0.000 A 
ATOM      3  C   UNL     1       9.624  10.626  19.830  0.00  0.00    +0.000 A 
ATOM      4  C   UNL     1       9.411  11.841  19.182  0.00  0.00    +0.000 A 
ATOM      5  C   UNL     1       8.759  11.849  17.949  0.00  0.00    +0.000 A 
ATOM      6  F   UNL     1       8.609  12.983  17.249  0.00  0.00    +0.000 F 
ATOM      7  C   UNL     1       8.208  10.679  17.429  0.00  0.00    +0.000 A 
ENDROOT
BRANCH   1  10
ATOM      8  O   UNL     1       8.386   6.668  19.046  0.00  0.00    +0.000 OA
ATOM      9  C   UNL     1       7.740   7.052  18.075  0.00  0.00    +0.000 C 
ATOM     10  N   UNL     1       7.704   8.342  17.591  0.00  0.00    +0.000 N 
ATOM     11  H   UNL     1       7.042   8.526  16.833  0.00  0.00    +0.000 HD
BRANCH   9  12
ATOM     12  C   UNL     1       6.870   6.081  17.344  0.00  0.00    +0.000 A 
ATOM     13  C   UNL     1       7.266   5.725  16.118  0.00  0.00    +0.000 A 
ATOM     14  C   UNL     1       6.492   4.684  15.448  0.00  0.00    +0.000 A 
ATOM     15  N   UNL     1       5.437   4.109  15.917  0.00  0.00    +0.000 NA
ATOM     16  N   UNL     1       4.974   4.537  17.148  0.00  0.00    +0.000 N 
ATOM     17  C   UNL     1       5.643   5.485  17.931  0.00  0.00    +0.000 A 
ATOM     18  O   UNL     1       5.315   5.841  19.065  0.00  0.00    +0.000 OA
BRANCH  16  19
ATOM     19  C   UNL     1       3.765   3.903  17.581  0.00  0.00    +0.000 A 
ATOM     20  C   UNL     1       3.717   2.523  17.849  0.00  0.00    +0.000 A 
ATOM     21  C   UNL     1       2.525   1.897  18.215  0.00  0.00    +0.000 A 
ATOM     22  C   UNL     1       1.366   2.648  18.321  0.00  0.00    +0.000 A 
ATOM     23  F   UNL     1       0.216   2.043  18.648  0.00  0.00    +0.000 F 
ATOM     24  C   UNL     1       1.383   4.017  18.092  0.00  0.00    +0.000 A 
ATOM     25  C   UNL     1       2.583   4.647  17.739  0.00  0.00    +0.000 A 
ENDBRANCH  16  19
ENDBRANCH   9  12
ENDBRANCH   1  10
BRANCH   4  26
ATOM     26  O   UNL     1       9.925  12.944  19.817  0.00  0.00    +0.000 OA
BRANCH  26  27
ATOM     27  C   UNL     1       9.099  13.841  20.466  0.00  0.00    +0.000 A 
ATOM     28  C   UNL     1       8.287  13.465  21.544  0.00  0.00    +0.000 A 
ATOM     29  C   UNL     1       7.402  14.390  22.059  0.00  0.00    +0.000 A 
ATOM     30  N   UNL     1       7.326  15.659  21.624  0.00  0.00    +0.000 NA
ATOM     31  C   UNL     1       8.196  16.020  20.648  0.00  0.00    +0.000 A 
ATOM     32  C   UNL     1       9.128  15.180  20.028  0.00  0.00    +0.000 A 
BRANCH  32  33
ATOM     33  C   UNL     1      10.081  15.712  19.019  0.00  0.00    +0.000 A 
ATOM     34  C   UNL     1      11.456  15.835  19.274  0.00  0.00    +0.000 A 
ATOM     35  C   UNL     1      12.333  16.291  18.287  0.00  0.00    +0.000 A 
ATOM     36  C   UNL     1      11.816  16.636  17.054  0.00  0.00    +0.000 A 
ATOM     37  N   UNL     1      10.509  16.538  16.748  0.00  0.00    +0.000 NA
ATOM     38  C   UNL     1       9.688  16.074  17.725  0.00  0.00    +0.000 A 
ENDBRANCH  32  33
ENDBRANCH  26  27
ENDBRANCH   4  26
TORSDOF 6
ENDMDL
MODEL 5
REMARK VINA RESULT:      -8.9      1.623      1.913
REMARK  Name = 
REMARK  6 active torsions:
REMARK  status: ('A' for Active; 'I' for Inactive)
REMARK    1  A    between atoms: C_2  and  C_24
REMARK    2  A    between atoms: N_3  and  C_4
REMARK    3  A    between atoms: C_7  and  O_8
REMARK    4  A    between atoms: O_8  and  C_9
REMARK    5  A    between atoms: C_14  and  C_15
REMARK    6  A    between atoms: N_28  and  C_29
REMARK                            x       y       z     vdW  Elec       q    Type
REMARK                         _______ _______ _______ _____ _____    ______ ____
ROOT
ATOM      1  C   UNL     1       1.445   9.280  19.752  0.00  0.00    +0.000 A 
ATOM      2  C   UNL     1       1.719   9.355  18.386  0.00  0.00    +0.000 A 
ATOM      3  C   UNL     1       2.185   8.235  17.696  0.00  0.00    +0.000 A 
ATOM      4  C   UNL     1       2.391   7.033  18.371  0.00  0.00    +0.000 A 
ATOM      5  C   UNL     1       2.223   6.994  19.756  0.00  0.00    +0.000 A 
ATOM      6  F   UNL     1       2.493   5.883  20.457  0.00  0.00    +0.000 F 
ATOM      7  C   UNL     1       1.727   8.100  20.443  0.00  0.00    +0.000 A 
ENDROOT
BRANCH   1  10
ATOM      8  O   UNL     1       1.640  12.199  19.332  0.00  0.00    +0.000 OA
ATOM      9  C   UNL     1       0.979  11.687  20.231  0.00  0.00    +0.000 C 
ATOM     10  N   UNL     1       0.869  10.337  20.482  0.00  0.00    +0.000 N 
ATOM     11  H   UNL     1       0.203  10.060  21.208  0.00  0.00    +0.000 HD
BRANCH   9  12
ATOM     12  C   UNL     1       0.173  12.564  21.136  0.00  0.00    +0.000 A 
ATOM     13  C   UNL     1       0.752  13.697  21.545  0.00  0.00    +0.000 A 
ATOM     14  C   UNL     1      -0.072  14.617  22.325  0.00  0.00    +0.000 A 
ATOM     15  N   UNL     1      -1.292  14.412  22.689  0.00  0.00    +0.000 NA
ATOM     16  N   UNL     1      -1.865  13.202  22.343  0.00  0.00    +0.000 N 
ATOM     17  C   UNL     1      -1.218  12.248  21.550  0.00  0.00    +0.000 A 
ATOM     18  O   UNL     1      -1.713  11.191  21.148  0.00  0.00    +0.000 OA
BRANCH  16  19
ATOM     19  C   UNL     1      -3.198  13.014  22.832  0.00  0.00    +0.000 A 
ATOM     20  C   UNL     1      -4.318  13.376  22.063  0.00  0.00    +0.000 A 
ATOM     21  C   UNL     1      -5.614  13.247  22.564  0.00  0.00    +0.000 A 
ATOM     22  C   UNL     1      -5.803  12.746  23.842  0.00  0.00    +0.000 A 
ATOM     23  F   UNL     1      -7.045  12.644  24.332  0.00  0.00    +0.000 F 
ATOM     24  C   UNL     1      -4.721  12.350  24.617  0.00  0.00    +0.000 A 
ATOM     25  C   UNL     1      -3.422  12.468  24.108  0.00  0.00    +0.000 A 
ENDBRANCH  16  19
ENDBRANCH   9  12
ENDBRANCH   1  10
BRANCH   4  26
ATOM     26  O   UNL     1       2.801   5.982  17.590  0.00  0.00    +0.000 OA
BRANCH  26  27
ATOM     27  C   UNL     1       2.619   4.676  18.002  0.00  0.00    +0.000 A 
ATOM     28  C   UNL     1       1.366   4.052  17.978  0.00  0.00    +0.000 A 
ATOM     29  C   UNL     1       1.247   2.787  18.519  0.00  0.00    +0.000 A 
ATOM     30  N   UNL     1       2.288   2.093  19.007  0.00  0.00    +0.000 NA
ATOM     31  C   UNL     1       3.506   2.685  18.923  0.00  0.00    +0.000 A 
ATOM     32  C   UNL     1       3.763   3.965  18.417  0.00  0.00    +0.000 A 
BRANCH  32  33
ATOM     33  C   UNL     1       5.154   4.476  18.308  0.00  0.00    +0.000 A 
ATOM     34  C   UNL     1       5.782   5.175  19.351  0.00  0.00    +0.000 A 
ATOM     35  C   UNL     1       7.108   5.599  19.238  0.00  0.00    +0.000 A 
ATOM     36  C   UNL     1       7.788   5.330  18.066  0.00  0.00    +0.000 A 
ATOM     37  N   UNL     1       7.243   4.663  17.033  0.00  0.00    +0.000 NA
ATOM     38  C   UNL     1       5.958   4.250  17.184  0.00  0.00    +0.000 A 
ENDBRANCH  32  33
ENDBRANCH  26  27
ENDBRANCH   4  26
TORSDOF 6
ENDMDL
MODEL 6
REMARK VINA RESULT:      -8.9      7.338     11.774
REMARK  Name = 
REMARK  6 active torsions:
REMARK  status: ('A' for Active; 'I' for Inactive)
REMARK    1  A    between atoms: C_2  and  C_24
REMARK    2  A    between atoms: N_3  and  C_4
REMARK    3  A    between atoms: C_7  and  O_8
REMARK    4  A    between atoms: O_8  and  C_9
REMARK    5  A    between atoms: C_14  and  C_15
REMARK    6  A    between atoms: N_28  and  C_29
REMARK                            x       y       z     vdW  Elec       q    Type
REMARK                         _______ _______ _______ _____ _____    ______ ____
ROOT
ATOM      1  C   UNL     1       8.221   9.459  17.908  0.00  0.00    +0.000 A 
ATOM      2  C   UNL     1       9.132   9.492  18.964  0.00  0.00    +0.000 A 
ATOM      3  C   UNL     1       9.618  10.710  19.441  0.00  0.00    +0.000 A 
ATOM      4  C   UNL     1       9.203  11.906  18.857  0.00  0.00    +0.000 A 
ATOM      5  C   UNL     1       8.381  11.863  17.731  0.00  0.00    +0.000 A 
ATOM      6  F   UNL     1       8.028  12.983  17.084  0.00  0.00    +0.000 F 
ATOM      7  C   UNL     1       7.868  10.651  17.271  0.00  0.00    +0.000 A 
ENDROOT
BRANCH   1  10
ATOM      8  O   UNL     1       8.359   6.716  19.000  0.00  0.00    +0.000 OA
ATOM      9  C   UNL     1       7.692   7.020  18.014  0.00  0.00    +0.000 C 
ATOM     10  N   UNL     1       7.608   8.276  17.454  0.00  0.00    +0.000 N 
ATOM     11  H   UNL     1       6.935   8.392  16.692  0.00  0.00    +0.000 HD
BRANCH   9  12
ATOM     12  C   UNL     1       6.851   5.977  17.350  0.00  0.00    +0.000 A 
ATOM     13  C   UNL     1       7.289   5.510  16.177  0.00  0.00    +0.000 A 
ATOM     14  C   UNL     1       6.542   4.404  15.584  0.00  0.00    +0.000 A 
ATOM     15  N   UNL     1       5.474   3.869  16.072  0.00  0.00    +0.000 NA
ATOM     16  N   UNL     1       4.968   4.408  17.240  0.00  0.00    +0.000 N 
ATOM     17  C   UNL     1       5.607   5.430  17.951  0.00  0.00    +0.000 A 
ATOM     18  O   UNL     1       5.240   5.891  19.035  0.00  0.00    +0.000 OA
BRANCH  16  19
ATOM     19  C   UNL     1       3.748   3.809  17.692  0.00  0.00    +0.000 A 
ATOM     20  C   UNL     1       3.712   2.483  18.158  0.00  0.00    +0.000 A 
ATOM     21  C   UNL     1       2.513   1.882  18.544  0.00  0.00    +0.000 A 
ATOM     22  C   UNL     1       1.335   2.606  18.470  0.00  0.00    +0.000 A 
ATOM     23  F   UNL     1       0.180   2.023  18.817  0.00  0.00    +0.000 F 
ATOM     24  C   UNL     1       1.338   3.927  18.043  0.00  0.00    +0.000 A 
ATOM     25  C   UNL     1       2.544   4.533  17.670  0.00  0.00    +0.000 A 
ENDBRANCH  16  19
ENDBRANCH   9  12
ENDBRANCH   1  10
BRANCH   4  26
ATOM     26  O   UNL     1       9.702  13.047  19.434  0.00  0.00    +0.000 OA
BRANCH  26  27
ATOM     27  C   UNL     1      10.362  13.996  18.678  0.00  0.00    +0.000 A 
ATOM     28  C   UNL     1      11.542  13.709  17.980  0.00  0.00    +0.000 A 
ATOM     29  C   UNL     1      12.204  14.742  17.348  0.00  0.00    +0.000 A 
ATOM     30  N   UNL     1      11.739  16.002  17.310  0.00  0.00    +0.000 NA
ATOM     31  C   UNL     1      10.544  16.227  17.910  0.00  0.00    +0.000 A 
ATOM     32  C   UNL     1       9.779  15.277  18.599  0.00  0.00    +0.000 A 
BRANCH  32  33
ATOM     33  C   UNL     1       8.446  15.628  19.152  0.00  0.00    +0.000 A 
ATOM     34  C   UNL     1       8.220  15.783  20.529  0.00  0.00    +0.000 A 
ATOM     35  C   UNL     1       6.966  16.163  21.014  0.00  0.00    +0.000 A 
ATOM     36  C   UNL     1       5.943  16.368  20.109  0.00  0.00    +0.000 A 
ATOM     37  N   UNL     1       6.097  16.238  18.779  0.00  0.00    +0.000 NA
ATOM     38  C   UNL     1       7.333  15.885  18.341  0.00  0.00    +0.000 A 
ENDBRANCH  32  33
ENDBRANCH  26  27
ENDBRANCH   4  26
TORSDOF 6
ENDMDL
MODEL 7
REMARK VINA RESULT:      -8.8      2.611     11.718
REMARK  Name = 
REMARK  6 active torsions:
REMARK  status: ('A' for Active; 'I' for Inactive)
REMARK    1  A    between atoms: C_2  and  C_24
REMARK    2  A    between atoms: N_3  and  C_4
REMARK    3  A    between atoms: C_7  and  O_8
REMARK    4  A    between atoms: O_8  and  C_9
REMARK    5  A    between atoms: C_14  and  C_15
REMARK    6  A    between atoms: N_28  and  C_29
REMARK                            x       y       z     vdW  Elec       q    Type
REMARK                         _______ _______ _______ _____ _____    ______ ____
ROOT
ATOM      1  C   UNL     1       1.367   8.444  20.757  0.00  0.00    +0.000 A 
ATOM      2  C   UNL     1       1.136   8.761  22.096  0.00  0.00    +0.000 A 
ATOM      3  C   UNL     1       0.236   9.772  22.437  0.00  0.00    +0.000 A 
ATOM      4  C   UNL     1      -0.432  10.481  21.441  0.00  0.00    +0.000 A 
ATOM      5  C   UNL     1      -0.113  10.237  20.104  0.00  0.00    +0.000 A 
ATOM      6  F   UNL     1      -0.666  10.956  19.116  0.00  0.00    +0.000 F 
ATOM      7  C   UNL     1       0.760   9.208  19.757  0.00  0.00    +0.000 A 
ENDROOT
BRANCH   1  10
ATOM      8  O   UNL     1       0.796   5.545  20.759  0.00  0.00    +0.000 OA
ATOM      9  C   UNL     1       1.850   6.026  20.353  0.00  0.00    +0.000 C 
ATOM     10  N   UNL     1       2.174   7.365  20.347  0.00  0.00    +0.000 N 
ATOM     11  H   UNL     1       3.052   7.621  19.887  0.00  0.00    +0.000 HD
BRANCH   9  12
ATOM     12  C   UNL     1       2.890   5.124  19.769  0.00  0.00    +0.000 A 
ATOM     13  C   UNL     1       3.114   3.973  20.410  0.00  0.00    +0.000 A 
ATOM     14  C   UNL     1       4.035   3.032  19.778  0.00  0.00    +0.000 A 
ATOM     15  N   UNL     1       4.682   3.233  18.680  0.00  0.00    +0.000 NA
ATOM     16  N   UNL     1       4.520   4.458  18.061  0.00  0.00    +0.000 N 
ATOM     17  C   UNL     1       3.628   5.435  18.518  0.00  0.00    +0.000 A 
ATOM     18  O   UNL     1       3.389   6.509  17.959  0.00  0.00    +0.000 OA
BRANCH  16  19
ATOM     19  C   UNL     1       5.313   4.638  16.882  0.00  0.00    +0.000 A 
ATOM     20  C   UNL     1       4.830   4.279  15.612  0.00  0.00    +0.000 A 
ATOM     21  C   UNL     1       5.626   4.401  14.472  0.00  0.00    +0.000 A 
ATOM     22  C   UNL     1       6.916   4.890  14.592  0.00  0.00    +0.000 A 
ATOM     23  F   UNL     1       7.689   4.984  13.502  0.00  0.00    +0.000 F 
ATOM     24  C   UNL     1       7.416   5.282  15.827  0.00  0.00    +0.000 A 
ATOM     25  C   UNL     1       6.611   5.172  16.967  0.00  0.00    +0.000 A 
ENDBRANCH  16  19
ENDBRANCH   9  12
ENDBRANCH   1  10
BRANCH   4  26
ATOM     26  O   UNL     1      -1.331  11.417  21.886  0.00  0.00    +0.000 OA
BRANCH  26  27
ATOM     27  C   UNL     1      -1.119  12.765  21.671  0.00  0.00    +0.000 A 
ATOM     28  C   UNL     1       0.149  13.351  21.782  0.00  0.00    +0.000 A 
ATOM     29  C   UNL     1       0.255  14.723  21.671  0.00  0.00    +0.000 A 
ATOM     30  N   UNL     1      -0.787  15.522  21.392  0.00  0.00    +0.000 NA
ATOM     31  C   UNL     1      -1.983  14.915  21.189  0.00  0.00    +0.000 A 
ATOM     32  C   UNL     1      -2.232  13.541  21.290  0.00  0.00    +0.000 A 
BRANCH  32  33
ATOM     33  C   UNL     1      -3.573  12.984  20.972  0.00  0.00    +0.000 A 
ATOM     34  C   UNL     1      -3.915  12.532  19.688  0.00  0.00    +0.000 A 
ATOM     35  C   UNL     1      -5.167  11.967  19.433  0.00  0.00    +0.000 A 
ATOM     36  C   UNL     1      -6.073  11.876  20.472  0.00  0.00    +0.000 A 
ATOM     37  N   UNL     1      -5.805  12.290  21.724  0.00  0.00    +0.000 NA
ATOM     38  C   UNL     1      -4.572  12.817  21.940  0.00  0.00    +0.000 A 
ENDBRANCH  32  33
ENDBRANCH  26  27
ENDBRANCH   4  26
TORSDOF 6
ENDMDL
MODEL 8
REMARK VINA RESULT:      -8.8      2.673     11.881
REMARK  Name = 
REMARK  6 active torsions:
REMARK  status: ('A' for Active; 'I' for Inactive)
REMARK    1  A    between atoms: C_2  and  C_24
REMARK    2  A    between atoms: N_3  and  C_4
REMARK    3  A    between atoms: C_7  and  O_8
REMARK    4  A    between atoms: O_8  and  C_9
REMARK    5  A    between atoms: C_14  and  C_15
REMARK    6  A    between atoms: N_28  and  C_29
REMARK                            x       y       z     vdW  Elec       q    Type
REMARK                         _______ _______ _______ _____ _____    ______ ____
ROOT
ATOM      1  C   UNL     1       1.409   8.457  20.652  0.00  0.00    +0.000 A 
ATOM      2  C   UNL     1       1.075   8.712  21.982  0.00  0.00    +0.000 A 
ATOM      3  C   UNL     1       0.174   9.729  22.302  0.00  0.00    +0.000 A 
ATOM      4  C   UNL     1      -0.391  10.507  21.294  0.00  0.00    +0.000 A 
ATOM      5  C   UNL     1       0.032  10.323  19.977  0.00  0.00    +0.000 A 
ATOM      6  F   UNL     1      -0.419  11.107  18.986  0.00  0.00    +0.000 F 
ATOM      7  C   UNL     1       0.906   9.289  19.648  0.00  0.00    +0.000 A 
ENDROOT
BRANCH   1  10
ATOM      8  O   UNL     1       0.878   5.552  20.749  0.00  0.00    +0.000 OA
ATOM      9  C   UNL     1       1.915   6.036  20.304  0.00  0.00    +0.000 C 
ATOM     10  N   UNL     1       2.221   7.378  20.253  0.00  0.00    +0.000 N 
ATOM     11  H   UNL     1       3.083   7.632  19.764  0.00  0.00    +0.000 HD
BRANCH   9  12
ATOM     12  C   UNL     1       2.953   5.132  19.719  0.00  0.00    +0.000 A 
ATOM     13  C   UNL     1       3.193   3.992  20.375  0.00  0.00    +0.000 A 
ATOM     14  C   UNL     1       4.112   3.047  19.745  0.00  0.00    +0.000 A 
ATOM     15  N   UNL     1       4.743   3.235  18.636  0.00  0.00    +0.000 NA
ATOM     16  N   UNL     1       4.564   4.450  18.000  0.00  0.00    +0.000 N 
ATOM     17  C   UNL     1       3.673   5.428  18.454  0.00  0.00    +0.000 A 
ATOM     18  O   UNL     1       3.419   6.492  17.883  0.00  0.00    +0.000 OA
BRANCH  16  19
ATOM     19  C   UNL     1       5.341   4.617  16.809  0.00  0.00    +0.000 A 
ATOM     20  C   UNL     1       4.853   4.213  15.553  0.00  0.00    +0.000 A 
ATOM     21  C   UNL     1       5.634   4.323  14.402  0.00  0.00    +0.000 A 
ATOM     22  C   UNL     1       6.914   4.844  14.495  0.00  0.00    +0.000 A 
ATOM     23  F   UNL     1       7.673   4.928  13.395  0.00  0.00    +0.000 F 
ATOM     24  C   UNL     1       7.417   5.281  15.714  0.00  0.00    +0.000 A 
ATOM     25  C   UNL     1       6.627   5.182  16.865  0.00  0.00    +0.000 A 
ENDBRANCH  16  19
ENDBRANCH   9  12
ENDBRANCH   1  10
BRANCH   4  26
ATOM     26  O   UNL     1      -1.300  11.445  21.713  0.00  0.00    +0.000 OA
BRANCH  26  27
ATOM     27  C   UNL     1      -0.900  12.724  22.052  0.00  0.00    +0.000 A 
ATOM     28  C   UNL     1       0.316  13.266  21.618  0.00  0.00    +0.000 A 
ATOM     29  C   UNL     1       0.697  14.503  22.098  0.00  0.00    +0.000 A 
ATOM     30  N   UNL     1      -0.072  15.246  22.910  0.00  0.00    +0.000 NA
ATOM     31  C   UNL     1      -1.287  14.737  23.232  0.00  0.00    +0.000 A 
ATOM     32  C   UNL     1      -1.788  13.494  22.829  0.00  0.00    +0.000 A 
BRANCH  32  33
ATOM     33  C   UNL     1      -3.169  13.076  23.186  0.00  0.00    +0.000 A 
ATOM     34  C   UNL     1      -3.548  12.780  24.504  0.00  0.00    +0.000 A 
ATOM     35  C   UNL     1      -4.867  12.439  24.815  0.00  0.00    +0.000 A 
ATOM     36  C   UNL     1      -5.792  12.383  23.790  0.00  0.00    +0.000 A 
ATOM     37  N   UNL     1      -5.491  12.658  22.508  0.00  0.00    +0.000 NA
ATOM     38  C   UNL     1      -4.204  13.003  22.245  0.00  0.00    +0.000 A 
ENDBRANCH  32  33
ENDBRANCH  26  27
ENDBRANCH   4  26
TORSDOF 6
ENDMDL
MODEL 9
REMARK VINA RESULT:      -8.7      2.660     11.669
REMARK  Name = 
REMARK  6 active torsions:
REMARK  status: ('A' for Active; 'I' for Inactive)
REMARK    1  A    between atoms: C_2  and  C_24
REMARK    2  A    between atoms: N_3  and  C_4
REMARK    3  A    between atoms: C_7  and  O_8
REMARK    4  A    between atoms: O_8  and  C_9
REMARK    5  A    between atoms: C_14  and  C_15
REMARK    6  A    between atoms: N_28  and  C_29
REMARK                            x       y       z     vdW  Elec       q    Type
REMARK                         _______ _______ _______ _____ _____    ______ ____
ROOT
ATOM      1  C   UNL     1       1.407   8.382  20.725  0.00  0.00    +0.000 A 
ATOM      2  C   UNL     1       1.163   8.717  22.057  0.00  0.00    +0.000 A 
ATOM      3  C   UNL     1       0.273   9.744  22.375  0.00  0.00    +0.000 A 
ATOM      4  C   UNL     1      -0.371  10.452  21.362  0.00  0.00    +0.000 A 
ATOM      5  C   UNL     1      -0.038  10.189  20.032  0.00  0.00    +0.000 A 
ATOM      6  F   UNL     1      -0.567  10.904  19.029  0.00  0.00    +0.000 F 
ATOM      7  C   UNL     1       0.825   9.144  19.709  0.00  0.00    +0.000 A 
ENDROOT
BRANCH   1  10
ATOM      8  O   UNL     1       0.786   5.493  20.730  0.00  0.00    +0.000 OA
ATOM      9  C   UNL     1       1.857   5.954  20.344  0.00  0.00    +0.000 C 
ATOM     10  N   UNL     1       2.204   7.287  20.338  0.00  0.00    +0.000 N 
ATOM     11  H   UNL     1       3.095   7.525  19.895  0.00  0.00    +0.000 HD
BRANCH   9  12
ATOM     12  C   UNL     1       2.892   5.031  19.787  0.00  0.00    +0.000 A 
ATOM     13  C   UNL     1       3.088   3.883  20.442  0.00  0.00    +0.000 A 
ATOM     14  C   UNL     1       4.005   2.922  19.836  0.00  0.00    +0.000 A 
ATOM     15  N   UNL     1       4.675   3.103  18.748  0.00  0.00    +0.000 NA
ATOM     16  N   UNL     1       4.543   4.325  18.115  0.00  0.00    +0.000 N 
ATOM     17  C   UNL     1       3.658   5.319  18.547  0.00  0.00    +0.000 A 
ATOM     18  O   UNL     1       3.445   6.391  17.974  0.00  0.00    +0.000 OA
BRANCH  16  19
ATOM     19  C   UNL     1       5.360   4.481  16.949  0.00  0.00    +0.000 A 
ATOM     20  C   UNL     1       6.676   4.969  17.037  0.00  0.00    +0.000 A 
ATOM     21  C   UNL     1       7.450   5.176  15.895  0.00  0.00    +0.000 A 
ATOM     22  C   UNL     1       6.916   4.892  14.649  0.00  0.00    +0.000 A 
ATOM     23  F   UNL     1       7.650   5.113  13.551  0.00  0.00    +0.000 F 
ATOM     24  C   UNL     1       5.630   4.381  14.527  0.00  0.00    +0.000 A 
ATOM     25  C   UNL     1       4.860   4.161  15.675  0.00  0.00    +0.000 A 
ENDBRANCH  16  19
ENDBRANCH   9  12
ENDBRANCH   1  10
BRANCH   4  26
ATOM     26  O   UNL     1      -1.262  11.406  21.784  0.00  0.00    +0.000 OA
BRANCH  26  27
ATOM     27  C   UNL     1      -1.056  12.744  21.508  0.00  0.00    +0.000 A 
ATOM     28  C   UNL     1       0.181  13.369  21.715  0.00  0.00    +0.000 A 
ATOM     29  C   UNL     1       0.271  14.734  21.530  0.00  0.00    +0.000 A 
ATOM     30  N   UNL     1      -0.752  15.487  21.093  0.00  0.00    +0.000 NA
ATOM     31  C   UNL     1      -1.907  14.837  20.805  0.00  0.00    +0.000 A 
ATOM     32  C   UNL     1      -2.138  13.465  20.964  0.00  0.00    +0.000 A 
BRANCH  32  33
ATOM     33  C   UNL     1      -3.426  12.855  20.543  0.00  0.00    +0.000 A 
ATOM     34  C   UNL     1      -4.570  12.876  21.356  0.00  0.00    +0.000 A 
ATOM     35  C   UNL     1      -5.780  12.338  20.911  0.00  0.00    +0.000 A 
ATOM     36  C   UNL     1      -5.824  11.766  19.654  0.00  0.00    +0.000 A 
ATOM     37  N   UNL     1      -4.763  11.717  18.828  0.00  0.00    +0.000 NA
ATOM     38  C   UNL     1      -3.608  12.265  19.286  0.00  0.00    +0.000 A 
ENDBRANCH  32  33
ENDBRANCH  26  27
ENDBRANCH   4  26
TORSDOF 6
ENDMDL
