MODEL 1
REMARK VINA RESULT:      -8.3      0.000      0.000
REMARK  Name = 
REMARK  14 active torsions:
REMARK  status: ('A' for Active; 'I' for Inactive)
REMARK    1  A    between atoms: C_1  and  O_2
REMARK    2  A    between atoms: O_2  and  C_3
REMARK    3  A    between atoms: C_3  and  C_4
REMARK    4  A    between atoms: C_4  and  C_5
REMARK    5  A    between atoms: C_4  and  O_6
REMARK    6  A    between atoms: O_6  and  C_7
REMARK    7  A    between atoms: C_9  and  C_10
REMARK    8  A    between atoms: C_11  and  C_12
REMARK    9  A    between atoms: C_16  and  O_17
REMARK   10  A    between atoms: O_17  and  C_18
REMARK   11  A    between atoms: C_18  and  C_19
REMARK   12  A    between atoms: C_18  and  C_20
REMARK   13  A    between atoms: C_23  and  C_24
REMARK   14  A    between atoms: N_30  and  C_31
REMARK                            x       y       z     vdW  Elec       q    Type
REMARK                         _______ _______ _______ _____ _____    ______ ____
ROOT
ATOM      1  C   UNL     1       6.365   4.948  18.694  0.00  0.00    +0.000 A 
ATOM      2  C   UNL     1       7.053   6.133  18.958  0.00  0.00    +0.000 A 
ATOM      3  C   UNL     1       7.547   6.923  17.921  0.00  0.00    +0.000 A 
ATOM      4  C   UNL     1       7.372   6.521  16.600  0.00  0.00    +0.000 A 
ATOM      5  C   UNL     1       6.691   5.326  16.306  0.00  0.00    +0.000 A 
ATOM      6  C   UNL     1       6.170   4.554  17.359  0.00  0.00    +0.000 A 
ENDROOT
BRANCH   5   7
ATOM      7  C   UNL     1       6.650   4.904  14.869  0.00  0.00    +0.000 C 
ATOM      8  O   UNL     1       7.474   5.393  14.098  0.00  0.00    +0.000 OA
ATOM      9  N   UNL     1       5.651   4.033  14.486  0.00  0.00    +0.000 N 
ATOM     10  C   UNL     1       5.539   3.615  13.176  0.00  0.00    +0.000 A 
ATOM     11  C   UNL     1       6.570   3.248  12.276  0.00  0.00    +0.000 A 
ATOM     12  C   UNL     1       5.932   2.976  11.088  0.00  0.00    +0.000 A 
ATOM     13  N   UNL     1       4.617   3.251  11.315  0.00  0.00    +0.000 N 
ATOM     14  C   UNL     1       3.584   3.393  10.318  0.00  0.00    +0.000 C 
ATOM     15  N   UNL     1       4.334   3.491  12.612  0.00  0.00    +0.000 NA
ATOM     16  H   UNL     1       4.780   4.016  14.992  0.00  0.00    +0.000 HD
ENDBRANCH   5   7
BRANCH   3  17
ATOM     17  C   UNL     1       8.240   8.129  18.252  0.00  0.00    +0.000 C 
ATOM     18  C   UNL     1       8.767   9.161  18.573  0.00  0.00    +0.000 C 
BRANCH  18  19
ATOM     19  C   UNL     1       9.356  10.402  18.945  0.00  0.00    +0.000 A 
ATOM     20  C   UNL     1       9.997  11.199  17.996  0.00  0.00    +0.000 A 
ATOM     21  C   UNL     1      10.616  12.385  18.390  0.00  0.00    +0.000 A 
ATOM     22  C   UNL     1      10.564  12.789  19.726  0.00  0.00    +0.000 A 
ATOM     23  C   UNL     1       9.877  12.018  20.664  0.00  0.00    +0.000 A 
ATOM     24  C   UNL     1       9.294  10.814  20.275  0.00  0.00    +0.000 A 
BRANCH  23  25
ATOM     25  O   UNL     1       9.707  12.322  21.984  0.00  0.00    +0.000 OA
BRANCH  25  26
ATOM     26  C   UNL     1       8.375  12.494  22.479  0.00  0.00    +0.000 C 
ATOM     27  C   UNL     1       8.122  11.658  23.734  0.00  0.00    +0.000 C 
ATOM     28  C   UNL     1       8.247  13.975  22.833  0.00  0.00    +0.000 C 
ENDBRANCH  25  26
ENDBRANCH  23  25
ENDBRANCH  18  19
ENDBRANCH   3  17
BRANCH   1  29
ATOM     29  O   UNL     1       5.854   4.104  19.653  0.00  0.00    +0.000 OA
BRANCH  29  30
ATOM     30  C   UNL     1       4.628   3.404  19.349  0.00  0.00    +0.000 C 
ATOM     31  C   UNL     1       4.549   2.135  20.202  0.00  0.00    +0.000 C 
BRANCH  30  32
ATOM     32  C   UNL     1       3.417   4.293  19.674  0.00  0.00    +0.000 C 
BRANCH  32  34
ATOM     33  C   UNL     1       1.635   4.236  18.138  0.00  0.00    +0.000 C 
ATOM     34  O   UNL     1       2.871   4.854  18.477  0.00  0.00    +0.000 OA
ENDBRANCH  32  34
ENDBRANCH  30  32
ENDBRANCH  29  30
ENDBRANCH   1  29
TORSDOF 9
ENDMDL
MODEL 2
REMARK VINA RESULT:      -7.9      7.773     11.705
REMARK  Name = 
REMARK  14 active torsions:
REMARK  status: ('A' for Active; 'I' for Inactive)
REMARK    1  A    between atoms: C_1  and  O_2
REMARK    2  A    between atoms: O_2  and  C_3
REMARK    3  A    between atoms: C_3  and  C_4
REMARK    4  A    between atoms: C_4  and  C_5
REMARK    5  A    between atoms: C_4  and  O_6
REMARK    6  A    between atoms: O_6  and  C_7
REMARK    7  A    between atoms: C_9  and  C_10
REMARK    8  A    between atoms: C_11  and  C_12
REMARK    9  A    between atoms: C_16  and  O_17
REMARK   10  A    between atoms: O_17  and  C_18
REMARK   11  A    between atoms: C_18  and  C_19
REMARK   12  A    between atoms: C_18  and  C_20
REMARK   13  A    between atoms: C_23  and  C_24
REMARK   14  A    between atoms: N_30  and  C_31
REMARK                            x       y       z     vdW  Elec       q    Type
REMARK                         _______ _______ _______ _____ _____    ______ ____
ROOT
ATOM      1  C   UNL     1       1.843  12.912  18.211  0.00  0.00    +0.000 A 
ATOM      2  C   UNL     1       2.338  11.623  18.010  0.00  0.00    +0.000 A 
ATOM      3  C   UNL     1       1.584  10.501  18.356  0.00  0.00    +0.000 A 
ATOM      4  C   UNL     1       0.326  10.662  18.928  0.00  0.00    +0.000 A 
ATOM      5  C   UNL     1      -0.193  11.950  19.151  0.00  0.00    +0.000 A 
ATOM      6  C   UNL     1       0.563  13.073  18.769  0.00  0.00    +0.000 A 
ENDROOT
BRANCH   5   7
ATOM      7  C   UNL     1      -1.499  12.038  19.880  0.00  0.00    +0.000 C 
ATOM      8  O   UNL     1      -1.512  11.776  21.081  0.00  0.00    +0.000 OA
ATOM      9  N   UNL     1      -2.623  12.355  19.143  0.00  0.00    +0.000 N 
ATOM     10  C   UNL     1      -3.863  12.436  19.741  0.00  0.00    +0.000 A 
ATOM     11  C   UNL     1      -4.201  12.999  20.996  0.00  0.00    +0.000 A 
ATOM     12  C   UNL     1      -5.549  12.765  21.145  0.00  0.00    +0.000 A 
ATOM     13  N   UNL     1      -5.911  12.043  20.047  0.00  0.00    +0.000 N 
ATOM     14  C   UNL     1      -7.145  11.319  19.865  0.00  0.00    +0.000 C 
ATOM     15  N   UNL     1      -4.943  11.965  19.112  0.00  0.00    +0.000 NA
ATOM     16  H   UNL     1      -2.660  12.124  18.162  0.00  0.00    +0.000 HD
ENDBRANCH   5   7
BRANCH   3  17
ATOM     17  C   UNL     1       2.142   9.205  18.122  0.00  0.00    +0.000 C 
ATOM     18  C   UNL     1       2.631   8.114  17.996  0.00  0.00    +0.000 C 
BRANCH  18  19
ATOM     19  C   UNL     1       3.245   6.837  17.863  0.00  0.00    +0.000 A 
ATOM     20  C   UNL     1       4.257   6.627  16.926  0.00  0.00    +0.000 A 
ATOM     21  C   UNL     1       4.808   5.356  16.773  0.00  0.00    +0.000 A 
ATOM     22  C   UNL     1       4.368   4.303  17.579  0.00  0.00    +0.000 A 
ATOM     23  C   UNL     1       3.395   4.526  18.552  0.00  0.00    +0.000 A 
ATOM     24  C   UNL     1       2.818   5.789  18.676  0.00  0.00    +0.000 A 
BRANCH  23  25
ATOM     25  O   UNL     1       2.915   3.602  19.436  0.00  0.00    +0.000 OA
BRANCH  25  26
ATOM     26  C   UNL     1       1.501   3.536  19.653  0.00  0.00    +0.000 C 
ATOM     27  C   UNL     1       0.839   2.473  18.776  0.00  0.00    +0.000 C 
ATOM     28  C   UNL     1       1.322   3.152  21.122  0.00  0.00    +0.000 C 
ENDBRANCH  25  26
ENDBRANCH  23  25
ENDBRANCH  18  19
ENDBRANCH   3  17
BRANCH   1  29
ATOM     29  O   UNL     1       2.519  14.070  17.910  0.00  0.00    +0.000 OA
BRANCH  29  30
ATOM     30  C   UNL     1       2.680  15.048  18.960  0.00  0.00    +0.000 C 
ATOM     31  C   UNL     1       3.571  14.465  20.059  0.00  0.00    +0.000 C 
BRANCH  30  32
ATOM     32  C   UNL     1       3.350  16.316  18.404  0.00  0.00    +0.000 C 
BRANCH  32  34
ATOM     33  C   UNL     1       1.181  17.045  18.958  0.00  0.00    +0.000 C 
ATOM     34  O   UNL     1       2.485  17.446  18.554  0.00  0.00    +0.000 OA
ENDBRANCH  32  34
ENDBRANCH  30  32
ENDBRANCH  29  30
ENDBRANCH   1  29
TORSDOF 9
ENDMDL
MODEL 3
REMARK VINA RESULT:      -7.8      2.396      5.404
REMARK  Name = 
REMARK  14 active torsions:
REMARK  status: ('A' for Active; 'I' for Inactive)
REMARK    1  A    between atoms: C_1  and  O_2
REMARK    2  A    between atoms: O_2  and  C_3
REMARK    3  A    between atoms: C_3  and  C_4
REMARK    4  A    between atoms: C_4  and  C_5
REMARK    5  A    between atoms: C_4  and  O_6
REMARK    6  A    between atoms: O_6  and  C_7
REMARK    7  A    between atoms: C_9  and  C_10
REMARK    8  A    between atoms: C_11  and  C_12
REMARK    9  A    between atoms: C_16  and  O_17
REMARK   10  A    between atoms: O_17  and  C_18
REMARK   11  A    between atoms: C_18  and  C_19
REMARK   12  A    between atoms: C_18  and  C_20
REMARK   13  A    between atoms: C_23  and  C_24
REMARK   14  A    between atoms: N_30  and  C_31
REMARK                            x       y       z     vdW  Elec       q    Type
REMARK                         _______ _______ _______ _____ _____    ______ ____
ROOT
ATOM      1  C   UNL     1       7.089   5.225  15.691  0.00  0.00    +0.000 A 
ATOM      2  C   UNL     1       7.703   6.358  16.228  0.00  0.00    +0.000 A 
ATOM      3  C   UNL     1       7.171   7.002  17.345  0.00  0.00    +0.000 A 
ATOM      4  C   UNL     1       6.000   6.524  17.927  0.00  0.00    +0.000 A 
ATOM      5  C   UNL     1       5.356   5.391  17.400  0.00  0.00    +0.000 A 
ATOM      6  C   UNL     1       5.919   4.732  16.293  0.00  0.00    +0.000 A 
ENDROOT
BRANCH   5   7
ATOM      7  C   UNL     1       4.040   5.015  18.009  0.00  0.00    +0.000 C 
ATOM      8  O   UNL     1       3.114   5.821  17.934  0.00  0.00    +0.000 OA
ATOM      9  N   UNL     1       3.962   3.805  18.669  0.00  0.00    +0.000 N 
ATOM     10  C   UNL     1       2.789   3.400  19.270  0.00  0.00    +0.000 A 
ATOM     11  C   UNL     1       1.463   3.525  18.788  0.00  0.00    +0.000 A 
ATOM     12  C   UNL     1       0.666   3.023  19.792  0.00  0.00    +0.000 A 
ATOM     13  N   UNL     1       1.521   2.704  20.804  0.00  0.00    +0.000 N 
ATOM     14  C   UNL     1       1.163   2.404  22.169  0.00  0.00    +0.000 C 
ATOM     15  N   UNL     1       2.821   2.779  20.452  0.00  0.00    +0.000 NA
ATOM     16  H   UNL     1       4.790   3.408  19.086  0.00  0.00    +0.000 HD
ENDBRANCH   5   7
BRANCH   3  17
ATOM     17  C   UNL     1       7.846   8.155  17.854  0.00  0.00    +0.000 C 
ATOM     18  C   UNL     1       8.456   9.123  18.223  0.00  0.00    +0.000 C 
BRANCH  18  19
ATOM     19  C   UNL     1       9.213  10.249  18.653  0.00  0.00    +0.000 A 
ATOM     20  C   UNL     1      10.085  10.897  17.778  0.00  0.00    +0.000 A 
ATOM     21  C   UNL     1      10.859  11.963  18.232  0.00  0.00    +0.000 A 
ATOM     22  C   UNL     1      10.737  12.401  19.553  0.00  0.00    +0.000 A 
ATOM     23  C   UNL     1       9.826  11.788  20.412  0.00  0.00    +0.000 A 
ATOM     24  C   UNL     1       9.082  10.696  19.966  0.00  0.00    +0.000 A 
BRANCH  23  25
ATOM     25  O   UNL     1       9.572  12.148  21.704  0.00  0.00    +0.000 OA
BRANCH  25  26
ATOM     26  C   UNL     1       9.182  13.500  21.972  0.00  0.00    +0.000 C 
ATOM     27  C   UNL     1       8.017  13.942  21.086  0.00  0.00    +0.000 C 
ATOM     28  C   UNL     1       8.735  13.524  23.433  0.00  0.00    +0.000 C 
ENDBRANCH  25  26
ENDBRANCH  23  25
ENDBRANCH  18  19
ENDBRANCH   3  17
BRANCH   1  29
ATOM     29  O   UNL     1       7.537   4.535  14.589  0.00  0.00    +0.000 OA
BRANCH  29  30
ATOM     30  C   UNL     1       7.126   5.006  13.287  0.00  0.00    +0.000 C 
ATOM     31  C   UNL     1       8.301   5.721  12.617  0.00  0.00    +0.000 C 
BRANCH  30  32
ATOM     32  C   UNL     1       6.703   3.819  12.406  0.00  0.00    +0.000 C 
BRANCH  32  34
ATOM     33  C   UNL     1       4.828   2.721  11.501  0.00  0.00    +0.000 C 
ATOM     34  O   UNL     1       5.302   3.568  12.542  0.00  0.00    +0.000 OA
ENDBRANCH  32  34
ENDBRANCH  30  32
ENDBRANCH  29  30
ENDBRANCH   1  29
TORSDOF 9
ENDMDL
MODEL 4
REMARK VINA RESULT:      -7.8      8.215     11.843
REMARK  Name = 
REMARK  14 active torsions:
REMARK  status: ('A' for Active; 'I' for Inactive)
REMARK    1  A    between atoms: C_1  and  O_2
REMARK    2  A    between atoms: O_2  and  C_3
REMARK    3  A    between atoms: C_3  and  C_4
REMARK    4  A    between atoms: C_4  and  C_5
REMARK    5  A    between atoms: C_4  and  O_6
REMARK    6  A    between atoms: O_6  and  C_7
REMARK    7  A    between atoms: C_9  and  C_10
REMARK    8  A    between atoms: C_11  and  C_12
REMARK    9  A    between atoms: C_16  and  O_17
REMARK   10  A    between atoms: O_17  and  C_18
REMARK   11  A    between atoms: C_18  and  C_19
REMARK   12  A    between atoms: C_18  and  C_20
REMARK   13  A    between atoms: C_23  and  C_24
REMARK   14  A    between atoms: N_30  and  C_31
REMARK                            x       y       z     vdW  Elec       q    Type
REMARK                         _______ _______ _______ _____ _____    ______ ____
ROOT
ATOM      1  C   UNL     1       0.761  12.709  18.796  0.00  0.00    +0.000 A 
ATOM      2  C   UNL     1       1.416  11.480  18.715  0.00  0.00    +0.000 A 
ATOM      3  C   UNL     1       0.734  10.326  18.329  0.00  0.00    +0.000 A 
ATOM      4  C   UNL     1      -0.625  10.391  18.037  0.00  0.00    +0.000 A 
ATOM      5  C   UNL     1      -1.312  11.615  18.120  0.00  0.00    +0.000 A 
ATOM      6  C   UNL     1      -0.607  12.777  18.480  0.00  0.00    +0.000 A 
ENDROOT
BRANCH   5   7
ATOM      7  C   UNL     1      -2.794  11.577  17.907  0.00  0.00    +0.000 C 
ATOM      8  O   UNL     1      -3.214  11.199  16.815  0.00  0.00    +0.000 OA
ATOM      9  N   UNL     1      -3.600  12.023  18.936  0.00  0.00    +0.000 N 
ATOM     10  C   UNL     1      -4.973  12.035  18.805  0.00  0.00    +0.000 A 
ATOM     11  C   UNL     1      -5.812  11.056  18.217  0.00  0.00    +0.000 A 
ATOM     12  C   UNL     1      -7.082  11.580  18.288  0.00  0.00    +0.000 A 
ATOM     13  N   UNL     1      -6.929  12.821  18.830  0.00  0.00    +0.000 N 
ATOM     14  C   UNL     1      -7.915  13.874  18.856  0.00  0.00    +0.000 C 
ATOM     15  N   UNL     1      -5.684  13.056  19.292  0.00  0.00    +0.000 NA
ATOM     16  H   UNL     1      -3.249  12.708  19.587  0.00  0.00    +0.000 HD
ENDBRANCH   5   7
BRANCH   3  17
ATOM     17  C   UNL     1       1.459   9.095  18.259  0.00  0.00    +0.000 C 
ATOM     18  C   UNL     1       2.124   8.094  18.230  0.00  0.00    +0.000 C 
BRANCH  18  19
ATOM     19  C   UNL     1       2.943   6.931  18.178  0.00  0.00    +0.000 A 
ATOM     20  C   UNL     1       4.084   6.899  17.377  0.00  0.00    +0.000 A 
ATOM     21  C   UNL     1       4.843   5.732  17.296  0.00  0.00    +0.000 A 
ATOM     22  C   UNL     1       4.477   4.609  18.042  0.00  0.00    +0.000 A 
ATOM     23  C   UNL     1       3.367   4.660  18.884  0.00  0.00    +0.000 A 
ATOM     24  C   UNL     1       2.588   5.814  18.932  0.00  0.00    +0.000 A 
BRANCH  23  25
ATOM     25  O   UNL     1       2.932   3.656  19.701  0.00  0.00    +0.000 OA
BRANCH  25  26
ATOM     26  C   UNL     1       1.521   3.460  19.849  0.00  0.00    +0.000 C 
ATOM     27  C   UNL     1       0.963   2.517  18.783  0.00  0.00    +0.000 C 
ATOM     28  C   UNL     1       1.330   2.824  21.227  0.00  0.00    +0.000 C 
ENDBRANCH  25  26
ENDBRANCH  23  25
ENDBRANCH  18  19
ENDBRANCH   3  17
BRANCH   1  29
ATOM     29  O   UNL     1       1.352  13.892  19.177  0.00  0.00    +0.000 OA
BRANCH  29  30
ATOM     30  C   UNL     1       0.650  14.718  20.130  0.00  0.00    +0.000 C 
ATOM     31  C   UNL     1       0.916  14.193  21.543  0.00  0.00    +0.000 C 
BRANCH  30  32
ATOM     32  C   UNL     1       1.150  16.169  20.041  0.00  0.00    +0.000 C 
BRANCH  32  34
ATOM     33  C   UNL     1       1.262  17.861  18.409  0.00  0.00    +0.000 C 
ATOM     34  O   UNL     1       0.434  16.884  19.030  0.00  0.00    +0.000 OA
ENDBRANCH  32  34
ENDBRANCH  30  32
ENDBRANCH  29  30
ENDBRANCH   1  29
TORSDOF 9
ENDMDL
MODEL 5
REMARK VINA RESULT:      -7.8      5.728      6.760
REMARK  Name = 
REMARK  14 active torsions:
REMARK  status: ('A' for Active; 'I' for Inactive)
REMARK    1  A    between atoms: C_1  and  O_2
REMARK    2  A    between atoms: O_2  and  C_3
REMARK    3  A    between atoms: C_3  and  C_4
REMARK    4  A    between atoms: C_4  and  C_5
REMARK    5  A    between atoms: C_4  and  O_6
REMARK    6  A    between atoms: O_6  and  C_7
REMARK    7  A    between atoms: C_9  and  C_10
REMARK    8  A    between atoms: C_11  and  C_12
REMARK    9  A    between atoms: C_16  and  O_17
REMARK   10  A    between atoms: O_17  and  C_18
REMARK   11  A    between atoms: C_18  and  C_19
REMARK   12  A    between atoms: C_18  and  C_20
REMARK   13  A    between atoms: C_23  and  C_24
REMARK   14  A    between atoms: N_30  and  C_31
REMARK                            x       y       z     vdW  Elec       q    Type
REMARK                         _______ _______ _______ _____ _____    ______ ____
ROOT
ATOM      1  C   UNL     1       2.297   5.947  20.026  0.00  0.00    +0.000 A 
ATOM      2  C   UNL     1       1.719   7.217  20.037  0.00  0.00    +0.000 A 
ATOM      3  C   UNL     1       2.008   8.147  19.039  0.00  0.00    +0.000 A 
ATOM      4  C   UNL     1       2.901   7.817  18.023  0.00  0.00    +0.000 A 
ATOM      5  C   UNL     1       3.506   6.548  17.994  0.00  0.00    +0.000 A 
ATOM      6  C   UNL     1       3.182   5.608  18.988  0.00  0.00    +0.000 A 
ENDROOT
BRANCH   5   7
ATOM      7  C   UNL     1       4.543   6.316  16.938  0.00  0.00    +0.000 C 
ATOM      8  O   UNL     1       5.166   7.287  16.514  0.00  0.00    +0.000 OA
ATOM      9  N   UNL     1       4.698   5.028  16.466  0.00  0.00    +0.000 N 
ATOM     10  C   UNL     1       5.621   4.741  15.481  0.00  0.00    +0.000 A 
ATOM     11  C   UNL     1       6.940   5.237  15.338  0.00  0.00    +0.000 A 
ATOM     12  C   UNL     1       7.404   4.691  14.163  0.00  0.00    +0.000 A 
ATOM     13  N   UNL     1       6.356   3.984  13.656  0.00  0.00    +0.000 N 
ATOM     14  C   UNL     1       6.241   3.459  12.317  0.00  0.00    +0.000 C 
ATOM     15  N   UNL     1       5.318   3.874  14.511  0.00  0.00    +0.000 NA
ATOM     16  H   UNL     1       3.920   4.388  16.491  0.00  0.00    +0.000 HD
ENDBRANCH   5   7
BRANCH   3  17
ATOM     17  C   UNL     1       1.381   9.431  19.099  0.00  0.00    +0.000 C 
ATOM     18  C   UNL     1       0.901  10.528  19.203  0.00  0.00    +0.000 C 
BRANCH  18  19
ATOM     19  C   UNL     1       0.329  11.821  19.367  0.00  0.00    +0.000 A 
ATOM     20  C   UNL     1       0.742  12.889  18.570  0.00  0.00    +0.000 A 
ATOM     21  C   UNL     1       0.211  14.159  18.783  0.00  0.00    +0.000 A 
ATOM     22  C   UNL     1      -0.758  14.355  19.771  0.00  0.00    +0.000 A 
ATOM     23  C   UNL     1      -1.209  13.276  20.530  0.00  0.00    +0.000 A 
ATOM     24  C   UNL     1      -0.647  12.015  20.342  0.00  0.00    +0.000 A 
BRANCH  23  25
ATOM     25  O   UNL     1      -2.182  13.319  21.487  0.00  0.00    +0.000 OA
BRANCH  25  26
ATOM     26  C   UNL     1      -1.855  12.887  22.813  0.00  0.00    +0.000 C 
ATOM     27  C   UNL     1      -1.318  14.036  23.669  0.00  0.00    +0.000 C 
ATOM     28  C   UNL     1      -3.162  12.380  23.422  0.00  0.00    +0.000 C 
ENDBRANCH  25  26
ENDBRANCH  23  25
ENDBRANCH  18  19
ENDBRANCH   3  17
BRANCH   1  29
ATOM     29  O   UNL     1       2.078   4.974  20.973  0.00  0.00    +0.000 OA
BRANCH  29  30
ATOM     30  C   UNL     1       2.185   3.595  20.559  0.00  0.00    +0.000 C 
ATOM     31  C   UNL     1       2.361   2.710  21.796  0.00  0.00    +0.000 C 
BRANCH  30  32
ATOM     32  C   UNL     1       0.906   3.163  19.823  0.00  0.00    +0.000 C 
BRANCH  32  34
ATOM     33  C   UNL     1       2.140   2.358  17.987  0.00  0.00    +0.000 C 
ATOM     34  O   UNL     1       1.170   2.039  18.978  0.00  0.00    +0.000 OA
ENDBRANCH  32  34
ENDBRANCH  30  32
ENDBRANCH  29  30
ENDBRANCH   1  29
TORSDOF 9
ENDMDL
MODEL 6
REMARK VINA RESULT:      -7.7      7.903     11.644
REMARK  Name = 
REMARK  14 active torsions:
REMARK  status: ('A' for Active; 'I' for Inactive)
REMARK    1  A    between atoms: C_1  and  O_2
REMARK    2  A    between atoms: O_2  and  C_3
REMARK    3  A    between atoms: C_3  and  C_4
REMARK    4  A    between atoms: C_4  and  C_5
REMARK    5  A    between atoms: C_4  and  O_6
REMARK    6  A    between atoms: O_6  and  C_7
REMARK    7  A    between atoms: C_9  and  C_10
REMARK    8  A    between atoms: C_11  and  C_12
REMARK    9  A    between atoms: C_16  and  O_17
REMARK   10  A    between atoms: O_17  and  C_18
REMARK   11  A    between atoms: C_18  and  C_19
REMARK   12  A    between atoms: C_18  and  C_20
REMARK   13  A    between atoms: C_23  and  C_24
REMARK   14  A    between atoms: N_30  and  C_31
REMARK                            x       y       z     vdW  Elec       q    Type
REMARK                         _______ _______ _______ _____ _____    ______ ____
ROOT
ATOM      1  C   UNL     1       0.699  12.583  19.175  0.00  0.00    +0.000 A 
ATOM      2  C   UNL     1       1.471  11.442  18.954  0.00  0.00    +0.000 A 
ATOM      3  C   UNL     1       0.907  10.284  18.418  0.00  0.00    +0.000 A 
ATOM      4  C   UNL     1      -0.451  10.253  18.113  0.00  0.00    +0.000 A 
ATOM      5  C   UNL     1      -1.254  11.386  18.335  0.00  0.00    +0.000 A 
ATOM      6  C   UNL     1      -0.668  12.557  18.846  0.00  0.00    +0.000 A 
ENDROOT
BRANCH   5   7
ATOM      7  C   UNL     1      -2.725  11.232  18.094  0.00  0.00    +0.000 C 
ATOM      8  O   UNL     1      -3.089  10.483  17.189  0.00  0.00    +0.000 OA
ATOM      9  N   UNL     1      -3.583  11.986  18.869  0.00  0.00    +0.000 N 
ATOM     10  C   UNL     1      -4.949  11.911  18.692  0.00  0.00    +0.000 A 
ATOM     11  C   UNL     1      -5.745  10.764  18.454  0.00  0.00    +0.000 A 
ATOM     12  C   UNL     1      -7.025  11.241  18.289  0.00  0.00    +0.000 A 
ATOM     13  N   UNL     1      -6.915  12.597  18.365  0.00  0.00    +0.000 N 
ATOM     14  C   UNL     1      -7.916  13.563  17.983  0.00  0.00    +0.000 C 
ATOM     15  N   UNL     1      -5.696  13.016  18.761  0.00  0.00    +0.000 NA
ATOM     16  H   UNL     1      -3.271  12.866  19.250  0.00  0.00    +0.000 HD
ENDBRANCH   5   7
BRANCH   3  17
ATOM     17  C   UNL     1       1.748   9.147  18.210  0.00  0.00    +0.000 C 
ATOM     18  C   UNL     1       2.397   8.153  18.017  0.00  0.00    +0.000 C 
BRANCH  18  19
ATOM     19  C   UNL     1       3.138   6.955  17.812  0.00  0.00    +0.000 A 
ATOM     20  C   UNL     1       4.313   6.964  17.060  0.00  0.00    +0.000 A 
ATOM     21  C   UNL     1       4.995   5.772  16.825  0.00  0.00    +0.000 A 
ATOM     22  C   UNL     1       4.519   4.576  17.368  0.00  0.00    +0.000 A 
ATOM     23  C   UNL     1       3.374   4.577  18.164  0.00  0.00    +0.000 A 
ATOM     24  C   UNL     1       2.672   5.764  18.365  0.00  0.00    +0.000 A 
BRANCH  23  25
ATOM     25  O   UNL     1       2.833   3.493  18.794  0.00  0.00    +0.000 OA
BRANCH  25  26
ATOM     26  C   UNL     1       1.824   3.714  19.786  0.00  0.00    +0.000 C 
ATOM     27  C   UNL     1       0.586   2.849  19.541  0.00  0.00    +0.000 C 
ATOM     28  C   UNL     1       2.454   3.315  21.120  0.00  0.00    +0.000 C 
ENDBRANCH  25  26
ENDBRANCH  23  25
ENDBRANCH  18  19
ENDBRANCH   3  17
BRANCH   1  29
ATOM     29  O   UNL     1       1.169  13.760  19.707  0.00  0.00    +0.000 OA
BRANCH  29  30
ATOM     30  C   UNL     1       1.169  14.929  18.860  0.00  0.00    +0.000 C 
ATOM     31  C   UNL     1       0.745  16.148  19.685  0.00  0.00    +0.000 C 
BRANCH  30  32
ATOM     32  C   UNL     1       2.581  15.178  18.304  0.00  0.00    +0.000 C 
BRANCH  32  34
ATOM     33  C   UNL     1       4.536  16.393  18.797  0.00  0.00    +0.000 C 
ATOM     34  O   UNL     1       3.451  15.647  19.338  0.00  0.00    +0.000 OA
ENDBRANCH  32  34
ENDBRANCH  30  32
ENDBRANCH  29  30
ENDBRANCH   1  29
TORSDOF 9
ENDMDL
MODEL 7
REMARK VINA RESULT:      -7.7      7.179     11.082
REMARK  Name = 
REMARK  14 active torsions:
REMARK  status: ('A' for Active; 'I' for Inactive)
REMARK    1  A    between atoms: C_1  and  O_2
REMARK    2  A    between atoms: O_2  and  C_3
REMARK    3  A    between atoms: C_3  and  C_4
REMARK    4  A    between atoms: C_4  and  C_5
REMARK    5  A    between atoms: C_4  and  O_6
REMARK    6  A    between atoms: O_6  and  C_7
REMARK    7  A    between atoms: C_9  and  C_10
REMARK    8  A    between atoms: C_11  and  C_12
REMARK    9  A    between atoms: C_16  and  O_17
REMARK   10  A    between atoms: O_17  and  C_18
REMARK   11  A    between atoms: C_18  and  C_19
REMARK   12  A    between atoms: C_18  and  C_20
REMARK   13  A    between atoms: C_23  and  C_24
REMARK   14  A    between atoms: N_30  and  C_31
REMARK                            x       y       z     vdW  Elec       q    Type
REMARK                         _______ _______ _______ _____ _____    ______ ____
ROOT
ATOM      1  C   UNL     1      -1.119  10.088  17.669  0.00  0.00    +0.000 A 
ATOM      2  C   UNL     1      -0.095   9.145  17.567  0.00  0.00    +0.000 A 
ATOM      3  C   UNL     1       1.162   9.387  18.120  0.00  0.00    +0.000 A 
ATOM      4  C   UNL     1       1.413  10.593  18.768  0.00  0.00    +0.000 A 
ATOM      5  C   UNL     1       0.402  11.565  18.876  0.00  0.00    +0.000 A 
ATOM      6  C   UNL     1      -0.871  11.296  18.342  0.00  0.00    +0.000 A 
ENDROOT
BRANCH   5   7
ATOM      7  C   UNL     1       0.788  12.880  19.480  0.00  0.00    +0.000 C 
ATOM      8  O   UNL     1       0.683  13.012  20.699  0.00  0.00    +0.000 OA
ATOM      9  N   UNL     1       1.185  13.886  18.623  0.00  0.00    +0.000 N 
ATOM     10  C   UNL     1       1.537  15.130  19.105  0.00  0.00    +0.000 A 
ATOM     11  C   UNL     1       2.300  15.446  20.256  0.00  0.00    +0.000 A 
ATOM     12  C   UNL     1       2.305  16.820  20.320  0.00  0.00    +0.000 A 
ATOM     13  N   UNL     1       1.519  17.230  19.285  0.00  0.00    +0.000 N 
ATOM     14  C   UNL     1       0.984  18.555  19.085  0.00  0.00    +0.000 C 
ATOM     15  N   UNL     1       1.171  16.233  18.446  0.00  0.00    +0.000 NA
ATOM     16  H   UNL     1       0.843  13.901  17.675  0.00  0.00    +0.000 HD
ENDBRANCH   5   7
BRANCH   3  17
ATOM     17  C   UNL     1       2.171   8.382  17.989  0.00  0.00    +0.000 C 
ATOM     18  C   UNL     1       3.064   7.589  17.855  0.00  0.00    +0.000 C 
BRANCH  18  19
ATOM     19  C   UNL     1       4.128   6.664  17.657  0.00  0.00    +0.000 A 
ATOM     20  C   UNL     1       4.458   5.737  18.646  0.00  0.00    +0.000 A 
ATOM     21  C   UNL     1       5.538   4.876  18.457  0.00  0.00    +0.000 A 
ATOM     22  C   UNL     1       6.267   4.922  17.266  0.00  0.00    +0.000 A 
ATOM     23  C   UNL     1       5.903   5.812  16.257  0.00  0.00    +0.000 A 
ATOM     24  C   UNL     1       4.847   6.699  16.465  0.00  0.00    +0.000 A 
BRANCH  23  25
ATOM     25  O   UNL     1       6.495   5.924  15.032  0.00  0.00    +0.000 OA
BRANCH  25  26
ATOM     26  C   UNL     1       6.877   4.726  14.347  0.00  0.00    +0.000 C 
ATOM     27  C   UNL     1       5.663   3.965  13.811  0.00  0.00    +0.000 C 
ATOM     28  C   UNL     1       7.743   5.175  13.170  0.00  0.00    +0.000 C 
ENDBRANCH  25  26
ENDBRANCH  23  25
ENDBRANCH  18  19
ENDBRANCH   3  17
BRANCH   1  29
ATOM     29  O   UNL     1      -2.382   9.937  17.146  0.00  0.00    +0.000 OA
BRANCH  29  30
ATOM     30  C   UNL     1      -2.826  10.902  16.168  0.00  0.00    +0.000 C 
ATOM     31  C   UNL     1      -2.989  10.208  14.814  0.00  0.00    +0.000 C 
BRANCH  30  32
ATOM     32  C   UNL     1      -4.183  11.493  16.586  0.00  0.00    +0.000 C 
BRANCH  32  34
ATOM     33  C   UNL     1      -5.785  10.988  18.235  0.00  0.00    +0.000 C 
ATOM     34  O   UNL     1      -4.415  11.276  17.981  0.00  0.00    +0.000 OA
ENDBRANCH  32  34
ENDBRANCH  30  32
ENDBRANCH  29  30
ENDBRANCH   1  29
TORSDOF 9
ENDMDL
MODEL 8
REMARK VINA RESULT:      -7.6      5.166      7.087
REMARK  Name = 
REMARK  14 active torsions:
REMARK  status: ('A' for Active; 'I' for Inactive)
REMARK    1  A    between atoms: C_1  and  O_2
REMARK    2  A    between atoms: O_2  and  C_3
REMARK    3  A    between atoms: C_3  and  C_4
REMARK    4  A    between atoms: C_4  and  C_5
REMARK    5  A    between atoms: C_4  and  O_6
REMARK    6  A    between atoms: O_6  and  C_7
REMARK    7  A    between atoms: C_9  and  C_10
REMARK    8  A    between atoms: C_11  and  C_12
REMARK    9  A    between atoms: C_16  and  O_17
REMARK   10  A    between atoms: O_17  and  C_18
REMARK   11  A    between atoms: C_18  and  C_19
REMARK   12  A    between atoms: C_18  and  C_20
REMARK   13  A    between atoms: C_23  and  C_24
REMARK   14  A    between atoms: N_30  and  C_31
REMARK                            x       y       z     vdW  Elec       q    Type
REMARK                         _______ _______ _______ _____ _____    ______ ____
ROOT
ATOM      1  C   UNL     1       3.363   5.413  19.502  0.00  0.00    +0.000 A 
ATOM      2  C   UNL     1       2.587   6.571  19.579  0.00  0.00    +0.000 A 
ATOM      3  C   UNL     1       2.557   7.487  18.528  0.00  0.00    +0.000 A 
ATOM      4  C   UNL     1       3.325   7.260  17.390  0.00  0.00    +0.000 A 
ATOM      5  C   UNL     1       4.123   6.107  17.291  0.00  0.00    +0.000 A 
ATOM      6  C   UNL     1       4.121   5.175  18.343  0.00  0.00    +0.000 A 
ENDROOT
BRANCH   5   7
ATOM      7  C   UNL     1       5.010   5.997  16.088  0.00  0.00    +0.000 C 
ATOM      8  O   UNL     1       5.281   7.026  15.472  0.00  0.00    +0.000 OA
ATOM      9  N   UNL     1       5.423   4.736  15.710  0.00  0.00    +0.000 N 
ATOM     10  C   UNL     1       6.225   4.555  14.602  0.00  0.00    +0.000 A 
ATOM     11  C   UNL     1       7.329   5.334  14.176  0.00  0.00    +0.000 A 
ATOM     12  C   UNL     1       7.733   4.767  12.990  0.00  0.00    +0.000 A 
ATOM     13  N   UNL     1       6.843   3.765  12.748  0.00  0.00    +0.000 N 
ATOM     14  C   UNL     1       6.664   3.055  11.504  0.00  0.00    +0.000 C 
ATOM     15  N   UNL     1       6.016   3.520  13.785  0.00  0.00    +0.000 NA
ATOM     16  H   UNL     1       4.854   3.934  15.934  0.00  0.00    +0.000 HD
ENDBRANCH   5   7
BRANCH   3  17
ATOM     17  C   UNL     1       1.740   8.653  18.662  0.00  0.00    +0.000 C 
ATOM     18  C   UNL     1       1.109   9.673  18.751  0.00  0.00    +0.000 C 
BRANCH  18  19
ATOM     19  C   UNL     1       0.394  10.897  18.878  0.00  0.00    +0.000 A 
ATOM     20  C   UNL     1       1.073  12.113  18.962  0.00  0.00    +0.000 A 
ATOM     21  C   UNL     1       0.357  13.295  19.142  0.00  0.00    +0.000 A 
ATOM     22  C   UNL     1      -1.038  13.265  19.205  0.00  0.00    +0.000 A 
ATOM     23  C   UNL     1      -1.718  12.055  19.068  0.00  0.00    +0.000 A 
ATOM     24  C   UNL     1      -0.998  10.870  18.928  0.00  0.00    +0.000 A 
BRANCH  23  25
ATOM     25  O   UNL     1      -3.073  11.892  19.060  0.00  0.00    +0.000 OA
BRANCH  25  26
ATOM     26  C   UNL     1      -3.709  11.526  17.830  0.00  0.00    +0.000 C 
ATOM     27  C   UNL     1      -3.683  10.014  17.603  0.00  0.00    +0.000 C 
ATOM     28  C   UNL     1      -5.161  11.986  17.957  0.00  0.00    +0.000 C 
ENDBRANCH  25  26
ENDBRANCH  23  25
ENDBRANCH  18  19
ENDBRANCH   3  17
BRANCH   1  29
ATOM     29  O   UNL     1       3.459   4.463  20.492  0.00  0.00    +0.000 OA
BRANCH  29  30
ATOM     30  C   UNL     1       3.163   3.094  20.143  0.00  0.00    +0.000 C 
ATOM     31  C   UNL     1       4.340   2.205  20.552  0.00  0.00    +0.000 C 
BRANCH  30  32
ATOM     32  C   UNL     1       1.905   2.619  20.887  0.00  0.00    +0.000 C 
BRANCH  32  34
ATOM     33  C   UNL     1       0.911   2.572  18.754  0.00  0.00    +0.000 C 
ATOM     34  O   UNL     1       0.731   2.912  20.124  0.00  0.00    +0.000 OA
ENDBRANCH  32  34
ENDBRANCH  30  32
ENDBRANCH  29  30
ENDBRANCH   1  29
TORSDOF 9
ENDMDL
MODEL 9
REMARK VINA RESULT:      -7.6      7.013     11.223
REMARK  Name = 
REMARK  14 active torsions:
REMARK  status: ('A' for Active; 'I' for Inactive)
REMARK    1  A    between atoms: C_1  and  O_2
REMARK    2  A    between atoms: O_2  and  C_3
REMARK    3  A    between atoms: C_3  and  C_4
REMARK    4  A    between atoms: C_4  and  C_5
REMARK    5  A    between atoms: C_4  and  O_6
REMARK    6  A    between atoms: O_6  and  C_7
REMARK    7  A    between atoms: C_9  and  C_10
REMARK    8  A    between atoms: C_11  and  C_12
REMARK    9  A    between atoms: C_16  and  O_17
REMARK   10  A    between atoms: O_17  and  C_18
REMARK   11  A    between atoms: C_18  and  C_19
REMARK   12  A    between atoms: C_18  and  C_20
REMARK   13  A    between atoms: C_23  and  C_24
REMARK   14  A    between atoms: N_30  and  C_31
REMARK                            x       y       z     vdW  Elec       q    Type
REMARK                         _______ _______ _______ _____ _____    ______ ____
ROOT
ATOM      1  C   UNL     1      -1.059  11.471  18.615  0.00  0.00    +0.000 A 
ATOM      2  C   UNL     1      -0.257  10.359  18.356  0.00  0.00    +0.000 A 
ATOM      3  C   UNL     1       1.135  10.453  18.389  0.00  0.00    +0.000 A 
ATOM      4  C   UNL     1       1.739  11.676  18.666  0.00  0.00    +0.000 A 
ATOM      5  C   UNL     1       0.954  12.815  18.921  0.00  0.00    +0.000 A 
ATOM      6  C   UNL     1      -0.447  12.700  18.915  0.00  0.00    +0.000 A 
ENDROOT
BRANCH   5   7
ATOM      7  C   UNL     1       1.679  14.115  19.091  0.00  0.00    +0.000 C 
ATOM      8  O   UNL     1       1.094  15.151  18.781  0.00  0.00    +0.000 OA
ATOM      9  N   UNL     1       2.986  14.065  19.533  0.00  0.00    +0.000 N 
ATOM     10  C   UNL     1       3.723  15.219  19.695  0.00  0.00    +0.000 A 
ATOM     11  C   UNL     1       3.309  16.462  20.234  0.00  0.00    +0.000 A 
ATOM     12  C   UNL     1       4.400  17.290  20.111  0.00  0.00    +0.000 A 
ATOM     13  N   UNL     1       5.345  16.547  19.469  0.00  0.00    +0.000 N 
ATOM     14  C   UNL     1       6.557  17.039  18.861  0.00  0.00    +0.000 C 
ATOM     15  N   UNL     1       5.012  15.246  19.346  0.00  0.00    +0.000 NA
ATOM     16  H   UNL     1       3.547  13.248  19.347  0.00  0.00    +0.000 HD
ENDBRANCH   5   7
BRANCH   3  17
ATOM     17  C   UNL     1       1.905   9.279  18.120  0.00  0.00    +0.000 C 
ATOM     18  C   UNL     1       2.531   8.266  17.957  0.00  0.00    +0.000 C 
BRANCH  18  19
ATOM     19  C   UNL     1       3.287   7.070  17.802  0.00  0.00    +0.000 A 
ATOM     20  C   UNL     1       4.451   7.058  17.034  0.00  0.00    +0.000 A 
ATOM     21  C   UNL     1       5.148   5.865  16.849  0.00  0.00    +0.000 A 
ATOM     22  C   UNL     1       4.698   4.692  17.459  0.00  0.00    +0.000 A 
ATOM     23  C   UNL     1       3.565   4.716  18.270  0.00  0.00    +0.000 A 
ATOM     24  C   UNL     1       2.847   5.902  18.421  0.00  0.00    +0.000 A 
BRANCH  23  25
ATOM     25  O   UNL     1       3.049   3.658  18.963  0.00  0.00    +0.000 OA
BRANCH  25  26
ATOM     26  C   UNL     1       2.610   2.510  18.227  0.00  0.00    +0.000 C 
ATOM     27  C   UNL     1       3.538   1.312  18.434  0.00  0.00    +0.000 C 
ATOM     28  C   UNL     1       1.225   2.167  18.776  0.00  0.00    +0.000 C 
ENDBRANCH  25  26
ENDBRANCH  23  25
ENDBRANCH  18  19
ENDBRANCH   3  17
BRANCH   1  29
ATOM     29  O   UNL     1      -2.434  11.471  18.593  0.00  0.00    +0.000 OA
BRANCH  29  30
ATOM     30  C   UNL     1      -3.093  10.586  17.662  0.00  0.00    +0.000 C 
ATOM     31  C   UNL     1      -4.609  10.730  17.817  0.00  0.00    +0.000 C 
BRANCH  30  32
ATOM     32  C   UNL     1      -2.708  10.957  16.220  0.00  0.00    +0.000 C 
BRANCH  32  34
ATOM     33  C   UNL     1      -3.513  10.059  14.198  0.00  0.00    +0.000 C 
ATOM     34  O   UNL     1      -3.838  10.827  15.351  0.00  0.00    +0.000 OA
ENDBRANCH  32  34
ENDBRANCH  30  32
ENDBRANCH  29  30
ENDBRANCH   1  29
TORSDOF 9
ENDMDL
