MODEL 1
REMARK VINA RESULT:      -8.1      0.000      0.000
REMARK  Name = 
REMARK  14 active torsions:
REMARK  status: ('A' for Active; 'I' for Inactive)
REMARK    1  A    between atoms: C_1  and  C_2
REMARK    2  A    between atoms: C_2  and  C_3
REMARK    3  A    between atoms: C_3  and  C_4
REMARK    4  A    between atoms: C_4  and  O_5
REMARK    5  A    between atoms: O_5  and  C_6
REMARK    6  A    between atoms: C_9  and  C_10
REMARK    7  A    between atoms: C_10  and  N_11
REMARK    8  A    between atoms: N_14  and  S_15
REMARK    9  A    between atoms: S_15  and  C_18
REMARK   10  A    between atoms: C_21  and  O_22
REMARK   11  A    between atoms: O_22  and  C_23
REMARK   12  A    between atoms: C_23  and  C_24
REMARK   13  A    between atoms: C_24  and  C_25
REMARK   14  A    between atoms: C_24  and  C_26
REMARK                            x       y       z     vdW  Elec       q    Type
REMARK                         _______ _______ _______ _____ _____    ______ ____
ROOT
ATOM      1  N   UNL     1       8.094   8.917  18.032  0.00  0.00    +0.000 N 
ATOM      2  C   UNL     1       7.795   7.597  17.885  0.00  0.00    +0.000 C 
ATOM      3  O   UNL     1       8.129   6.732  18.682  0.00  0.00    +0.000 OA
ATOM      4  N   UNL     1       7.065   7.320  16.741  0.00  0.00    +0.000 N 
ATOM      5  H   UNL     1       7.705   9.594  17.399  0.00  0.00    +0.000 HD
ATOM      6  H   UNL     1       6.790   8.039  16.087  0.00  0.00    +0.000 HD
ENDROOT
BRANCH   4   7
ATOM      7  S   UNL     1       6.503   5.803  16.343  0.00  0.00    +0.000 S 
ATOM      8  O   UNL     1       5.761   5.975  15.110  0.00  0.00    +0.000 OA
ATOM      9  O   UNL     1       7.574   4.838  16.436  0.00  0.00    +0.000 OA
BRANCH   7  10
ATOM     10  C   UNL     1       5.315   5.501  17.626  0.00  0.00    +0.000 A 
ATOM     11  C   UNL     1       4.245   6.389  17.744  0.00  0.00    +0.000 A 
ATOM     12  C   UNL     1       3.325   6.225  18.775  0.00  0.00    +0.000 A 
ATOM     13  C   UNL     1       3.452   5.171  19.687  0.00  0.00    +0.000 A 
ATOM     14  C   UNL     1       4.510   4.265  19.537  0.00  0.00    +0.000 A 
ATOM     15  C   UNL     1       5.446   4.425  18.505  0.00  0.00    +0.000 A 
BRANCH  13  16
ATOM     16  O   UNL     1       2.604   4.947  20.748  0.00  0.00    +0.000 OA
BRANCH  16  17
ATOM     17  C   UNL     1       1.239   4.716  20.383  0.00  0.00    +0.000 C 
BRANCH  17  18
ATOM     18  C   UNL     1       0.855   3.235  20.481  0.00  0.00    +0.000 C 
ATOM     19  C   UNL     1       0.990   2.522  19.137  0.00  0.00    +0.000 C 
ATOM     20  C   UNL     1       1.747   2.562  21.528  0.00  0.00    +0.000 C 
ENDBRANCH  17  18
ENDBRANCH  16  17
ENDBRANCH  13  16
ENDBRANCH   7  10
ENDBRANCH   4   7
BRANCH   1  21
ATOM     21  C   UNL     1       8.899   9.384  19.139  0.00  0.00    +0.000 C 
BRANCH  21  25
ATOM     22  C   UNL     1      10.228  13.484  18.698  0.00  0.00    +0.000 A 
ATOM     23  C   UNL     1      10.597  12.718  19.805  0.00  0.00    +0.000 A 
ATOM     24  C   UNL     1      10.161  11.399  19.936  0.00  0.00    +0.000 A 
ATOM     25  C   UNL     1       9.346  10.812  18.963  0.00  0.00    +0.000 A 
ATOM     26  C   UNL     1       8.968  11.581  17.854  0.00  0.00    +0.000 A 
ATOM     27  C   UNL     1       9.411  12.907  17.724  0.00  0.00    +0.000 A 
BRANCH  22  28
ATOM     28  O   UNL     1      10.609  14.787  18.482  0.00  0.00    +0.000 OA
BRANCH  28  29
ATOM     29  C   UNL     1       9.965  15.744  19.328  0.00  0.00    +0.000 C 
BRANCH  29  30
ATOM     30  C   UNL     1       9.545  16.980  18.538  0.00  0.00    +0.000 C 
BRANCH  30  32
ATOM     31  C   UNL     1       7.347  16.072  19.402  0.00  0.00    +0.000 C 
ATOM     32  C   UNL     1       8.018  17.035  18.441  0.00  0.00    +0.000 C 
ENDBRANCH  30  32
ENDBRANCH  29  30
ENDBRANCH  28  29
ENDBRANCH  22  28
ENDBRANCH  21  25
ENDBRANCH   1  21
TORSDOF 11
ENDMDL
MODEL 2
REMARK VINA RESULT:      -7.7      1.111      1.403
REMARK  Name = 
REMARK  14 active torsions:
REMARK  status: ('A' for Active; 'I' for Inactive)
REMARK    1  A    between atoms: C_1  and  C_2
REMARK    2  A    between atoms: C_2  and  C_3
REMARK    3  A    between atoms: C_3  and  C_4
REMARK    4  A    between atoms: C_4  and  O_5
REMARK    5  A    between atoms: O_5  and  C_6
REMARK    6  A    between atoms: C_9  and  C_10
REMARK    7  A    between atoms: C_10  and  N_11
REMARK    8  A    between atoms: N_14  and  S_15
REMARK    9  A    between atoms: S_15  and  C_18
REMARK   10  A    between atoms: C_21  and  O_22
REMARK   11  A    between atoms: O_22  and  C_23
REMARK   12  A    between atoms: C_23  and  C_24
REMARK   13  A    between atoms: C_24  and  C_25
REMARK   14  A    between atoms: C_24  and  C_26
REMARK                            x       y       z     vdW  Elec       q    Type
REMARK                         _______ _______ _______ _____ _____    ______ ____
ROOT
ATOM      1  N   UNL     1       8.225   8.763  18.029  0.00  0.00    +0.000 N 
ATOM      2  C   UNL     1       7.996   7.427  17.903  0.00  0.00    +0.000 C 
ATOM      3  O   UNL     1       8.202   6.616  18.794  0.00  0.00    +0.000 OA
ATOM      4  N   UNL     1       7.499   7.068  16.662  0.00  0.00    +0.000 N 
ATOM      5  H   UNL     1       7.941   9.394  17.300  0.00  0.00    +0.000 HD
ATOM      6  H   UNL     1       7.328   7.742  15.930  0.00  0.00    +0.000 HD
ENDROOT
BRANCH   4   7
ATOM      7  S   UNL     1       7.063   5.512  16.252  0.00  0.00    +0.000 S 
ATOM      8  O   UNL     1       6.825   5.540  14.823  0.00  0.00    +0.000 OA
ATOM      9  O   UNL     1       7.992   4.569  16.831  0.00  0.00    +0.000 OA
BRANCH   7  10
ATOM     10  C   UNL     1       5.482   5.352  17.039  0.00  0.00    +0.000 A 
ATOM     11  C   UNL     1       4.890   4.088  17.060  0.00  0.00    +0.000 A 
ATOM     12  C   UNL     1       3.622   3.930  17.612  0.00  0.00    +0.000 A 
ATOM     13  C   UNL     1       2.939   5.022  18.160  0.00  0.00    +0.000 A 
ATOM     14  C   UNL     1       3.558   6.279  18.166  0.00  0.00    +0.000 A 
ATOM     15  C   UNL     1       4.832   6.449  17.607  0.00  0.00    +0.000 A 
BRANCH  13  16
ATOM     16  O   UNL     1       1.677   4.962  18.705  0.00  0.00    +0.000 OA
BRANCH  16  17
ATOM     17  C   UNL     1       1.643   4.955  20.136  0.00  0.00    +0.000 C 
BRANCH  17  18
ATOM     18  C   UNL     1       1.147   3.617  20.699  0.00  0.00    +0.000 C 
ATOM     19  C   UNL     1       0.746   2.647  19.589  0.00  0.00    +0.000 C 
ATOM     20  C   UNL     1       2.255   3.004  21.561  0.00  0.00    +0.000 C 
ENDBRANCH  17  18
ENDBRANCH  16  17
ENDBRANCH  13  16
ENDBRANCH   7  10
ENDBRANCH   4   7
BRANCH   1  21
ATOM     21  C   UNL     1       8.798   9.315  19.238  0.00  0.00    +0.000 C 
BRANCH  21  25
ATOM     22  C   UNL     1      10.640  13.192  18.652  0.00  0.00    +0.000 A 
ATOM     23  C   UNL     1      10.026  12.857  19.861  0.00  0.00    +0.000 A 
ATOM     24  C   UNL     1       9.436  11.605  20.036  0.00  0.00    +0.000 A 
ATOM     25  C   UNL     1       9.444  10.657  19.009  0.00  0.00    +0.000 A 
ATOM     26  C   UNL     1      10.053  10.993  17.792  0.00  0.00    +0.000 A 
ATOM     27  C   UNL     1      10.649  12.252  17.619  0.00  0.00    +0.000 A 
BRANCH  22  28
ATOM     28  O   UNL     1      11.249  14.396  18.388  0.00  0.00    +0.000 OA
BRANCH  28  29
ATOM     29  C   UNL     1      10.376  15.529  18.440  0.00  0.00    +0.000 C 
BRANCH  29  30
ATOM     30  C   UNL     1      10.861  16.550  19.463  0.00  0.00    +0.000 C 
BRANCH  30  32
ATOM     31  C   UNL     1       8.590  16.972  20.494  0.00  0.00    +0.000 C 
ATOM     32  C   UNL     1      10.000  16.463  20.726  0.00  0.00    +0.000 C 
ENDBRANCH  30  32
ENDBRANCH  29  30
ENDBRANCH  28  29
ENDBRANCH  22  28
ENDBRANCH  21  25
ENDBRANCH   1  21
TORSDOF 11
ENDMDL
MODEL 3
REMARK VINA RESULT:      -7.5      0.797      1.606
REMARK  Name = 
REMARK  14 active torsions:
REMARK  status: ('A' for Active; 'I' for Inactive)
REMARK    1  A    between atoms: C_1  and  C_2
REMARK    2  A    between atoms: C_2  and  C_3
REMARK    3  A    between atoms: C_3  and  C_4
REMARK    4  A    between atoms: C_4  and  O_5
REMARK    5  A    between atoms: O_5  and  C_6
REMARK    6  A    between atoms: C_9  and  C_10
REMARK    7  A    between atoms: C_10  and  N_11
REMARK    8  A    between atoms: N_14  and  S_15
REMARK    9  A    between atoms: S_15  and  C_18
REMARK   10  A    between atoms: C_21  and  O_22
REMARK   11  A    between atoms: O_22  and  C_23
REMARK   12  A    between atoms: C_23  and  C_24
REMARK   13  A    between atoms: C_24  and  C_25
REMARK   14  A    between atoms: C_24  and  C_26
REMARK                            x       y       z     vdW  Elec       q    Type
REMARK                         _______ _______ _______ _____ _____    ______ ____
ROOT
ATOM      1  N   UNL     1       8.405   8.911  18.109  0.00  0.00    +0.000 N 
ATOM      2  C   UNL     1       8.072   7.597  17.985  0.00  0.00    +0.000 C 
ATOM      3  O   UNL     1       8.182   6.780  18.888  0.00  0.00    +0.000 OA
ATOM      4  N   UNL     1       7.587   7.267  16.730  0.00  0.00    +0.000 N 
ATOM      5  H   UNL     1       8.196   9.556  17.366  0.00  0.00    +0.000 HD
ATOM      6  H   UNL     1       7.495   7.945  15.989  0.00  0.00    +0.000 HD
ENDROOT
BRANCH   4   7
ATOM      7  S   UNL     1       7.039   5.748  16.318  0.00  0.00    +0.000 S 
ATOM      8  O   UNL     1       6.644   5.843  14.927  0.00  0.00    +0.000 OA
ATOM      9  O   UNL     1       7.984   4.745  16.755  0.00  0.00    +0.000 OA
BRANCH   7  10
ATOM     10  C   UNL     1       5.550   5.620  17.273  0.00  0.00    +0.000 A 
ATOM     11  C   UNL     1       5.339   4.445  17.996  0.00  0.00    +0.000 A 
ATOM     12  C   UNL     1       4.155   4.278  18.709  0.00  0.00    +0.000 A 
ATOM     13  C   UNL     1       3.179   5.281  18.721  0.00  0.00    +0.000 A 
ATOM     14  C   UNL     1       3.417   6.471  18.021  0.00  0.00    +0.000 A 
ATOM     15  C   UNL     1       4.604   6.646  17.295  0.00  0.00    +0.000 A 
BRANCH  13  16
ATOM     16  O   UNL     1       1.973   5.191  19.378  0.00  0.00    +0.000 OA
BRANCH  16  17
ATOM     17  C   UNL     1       2.035   4.548  20.655  0.00  0.00    +0.000 C 
BRANCH  17  18
ATOM     18  C   UNL     1       1.677   3.059  20.572  0.00  0.00    +0.000 C 
ATOM     19  C   UNL     1       1.241   2.502  21.926  0.00  0.00    +0.000 C 
ATOM     20  C   UNL     1       0.561   2.876  19.541  0.00  0.00    +0.000 C 
ENDBRANCH  17  18
ENDBRANCH  16  17
ENDBRANCH  13  16
ENDBRANCH   7  10
ENDBRANCH   4   7
BRANCH   1  21
ATOM     21  C   UNL     1       8.981   9.427  19.332  0.00  0.00    +0.000 C 
BRANCH  21  25
ATOM     22  C   UNL     1      11.068  13.161  18.648  0.00  0.00    +0.000 A 
ATOM     23  C   UNL     1      10.585  12.396  17.585  0.00  0.00    +0.000 A 
ATOM     24  C   UNL     1       9.916  11.195  17.819  0.00  0.00    +0.000 A 
ATOM     25  C   UNL     1       9.711  10.728  19.120  0.00  0.00    +0.000 A 
ATOM     26  C   UNL     1      10.201  11.489  20.190  0.00  0.00    +0.000 A 
ATOM     27  C   UNL     1      10.872  12.700  19.952  0.00  0.00    +0.000 A 
BRANCH  22  28
ATOM     28  O   UNL     1      11.736  14.355  18.517  0.00  0.00    +0.000 OA
BRANCH  28  29
ATOM     29  C   UNL     1      11.113  15.462  19.177  0.00  0.00    +0.000 C 
BRANCH  29  30
ATOM     30  C   UNL     1       9.886  15.941  18.408  0.00  0.00    +0.000 C 
BRANCH  30  32
ATOM     31  C   UNL     1       7.606  17.002  18.681  0.00  0.00    +0.000 C 
ATOM     32  C   UNL     1       8.880  16.564  19.379  0.00  0.00    +0.000 C 
ENDBRANCH  30  32
ENDBRANCH  29  30
ENDBRANCH  28  29
ENDBRANCH  22  28
ENDBRANCH  21  25
ENDBRANCH   1  21
TORSDOF 11
ENDMDL
MODEL 4
REMARK VINA RESULT:      -7.4      6.307      9.877
REMARK  Name = 
REMARK  14 active torsions:
REMARK  status: ('A' for Active; 'I' for Inactive)
REMARK    1  A    between atoms: C_1  and  C_2
REMARK    2  A    between atoms: C_2  and  C_3
REMARK    3  A    between atoms: C_3  and  C_4
REMARK    4  A    between atoms: C_4  and  O_5
REMARK    5  A    between atoms: O_5  and  C_6
REMARK    6  A    between atoms: C_9  and  C_10
REMARK    7  A    between atoms: C_10  and  N_11
REMARK    8  A    between atoms: N_14  and  S_15
REMARK    9  A    between atoms: S_15  and  C_18
REMARK   10  A    between atoms: C_21  and  O_22
REMARK   11  A    between atoms: O_22  and  C_23
REMARK   12  A    between atoms: C_23  and  C_24
REMARK   13  A    between atoms: C_24  and  C_25
REMARK   14  A    between atoms: C_24  and  C_26
REMARK                            x       y       z     vdW  Elec       q    Type
REMARK                         _______ _______ _______ _____ _____    ______ ____
ROOT
ATOM      1  N   UNL     1       1.703   9.324  18.193  0.00  0.00    +0.000 N 
ATOM      2  C   UNL     1       1.984   8.144  18.811  0.00  0.00    +0.000 C 
ATOM      3  O   UNL     1       1.658   7.885  19.961  0.00  0.00    +0.000 OA
ATOM      4  N   UNL     1       2.675   7.252  18.009  0.00  0.00    +0.000 N 
ATOM      5  H   UNL     1       1.905   9.440  17.215  0.00  0.00    +0.000 HD
ATOM      6  H   UNL     1       2.940   7.469  17.059  0.00  0.00    +0.000 HD
ENDROOT
BRANCH   4   7
ATOM      7  S   UNL     1       3.089   5.708  18.482  0.00  0.00    +0.000 S 
ATOM      8  O   UNL     1       3.845   5.868  19.708  0.00  0.00    +0.000 OA
ATOM      9  O   UNL     1       1.930   4.847  18.431  0.00  0.00    +0.000 OA
BRANCH   7  10
ATOM     10  C   UNL     1       4.242   5.232  17.221  0.00  0.00    +0.000 A 
ATOM     11  C   UNL     1       4.745   6.232  16.387  0.00  0.00    +0.000 A 
ATOM     12  C   UNL     1       5.604   5.893  15.346  0.00  0.00    +0.000 A 
ATOM     13  C   UNL     1       5.980   4.562  15.133  0.00  0.00    +0.000 A 
ATOM     14  C   UNL     1       5.498   3.571  15.998  0.00  0.00    +0.000 A 
ATOM     15  C   UNL     1       4.628   3.902  17.047  0.00  0.00    +0.000 A 
BRANCH  13  16
ATOM     16  O   UNL     1       6.804   4.135  14.116  0.00  0.00    +0.000 OA
BRANCH  16  17
ATOM     17  C   UNL     1       6.257   4.283  12.802  0.00  0.00    +0.000 C 
BRANCH  17  18
ATOM     18  C   UNL     1       5.640   2.979  12.280  0.00  0.00    +0.000 C 
ATOM     19  C   UNL     1       4.399   3.238  11.429  0.00  0.00    +0.000 C 
ATOM     20  C   UNL     1       6.694   2.227  11.463  0.00  0.00    +0.000 C 
ENDBRANCH  17  18
ENDBRANCH  16  17
ENDBRANCH  13  16
ENDBRANCH   7  10
ENDBRANCH   4   7
BRANCH   1  21
ATOM     21  C   UNL     1       1.035  10.398  18.895  0.00  0.00    +0.000 C 
BRANCH  21  25
ATOM     22  C   UNL     1      -3.117  10.886  17.757  0.00  0.00    +0.000 A 
ATOM     23  C   UNL     1      -2.542  11.675  18.756  0.00  0.00    +0.000 A 
ATOM     24  C   UNL     1      -1.204  11.507  19.113  0.00  0.00    +0.000 A 
ATOM     25  C   UNL     1      -0.407  10.547  18.482  0.00  0.00    +0.000 A 
ATOM     26  C   UNL     1      -0.983   9.749  17.485  0.00  0.00    +0.000 A 
ATOM     27  C   UNL     1      -2.329   9.923  17.125  0.00  0.00    +0.000 A 
BRANCH  22  28
ATOM     28  O   UNL     1      -4.422  10.981  17.336  0.00  0.00    +0.000 OA
BRANCH  28  29
ATOM     29  C   UNL     1      -5.271  11.747  18.196  0.00  0.00    +0.000 C 
BRANCH  29  30
ATOM     30  C   UNL     1      -6.677  11.158  18.246  0.00  0.00    +0.000 C 
BRANCH  30  32
ATOM     31  C   UNL     1      -7.067   9.093  19.655  0.00  0.00    +0.000 C 
ATOM     32  C   UNL     1      -6.955  10.606  19.647  0.00  0.00    +0.000 C 
ENDBRANCH  30  32
ENDBRANCH  29  30
ENDBRANCH  28  29
ENDBRANCH  22  28
ENDBRANCH  21  25
ENDBRANCH   1  21
TORSDOF 11
ENDMDL
MODEL 5
REMARK VINA RESULT:      -7.1      1.394      1.937
REMARK  Name = 
REMARK  14 active torsions:
REMARK  status: ('A' for Active; 'I' for Inactive)
REMARK    1  A    between atoms: C_1  and  C_2
REMARK    2  A    between atoms: C_2  and  C_3
REMARK    3  A    between atoms: C_3  and  C_4
REMARK    4  A    between atoms: C_4  and  O_5
REMARK    5  A    between atoms: O_5  and  C_6
REMARK    6  A    between atoms: C_9  and  C_10
REMARK    7  A    between atoms: C_10  and  N_11
REMARK    8  A    between atoms: N_14  and  S_15
REMARK    9  A    between atoms: S_15  and  C_18
REMARK   10  A    between atoms: C_21  and  O_22
REMARK   11  A    between atoms: O_22  and  C_23
REMARK   12  A    between atoms: C_23  and  C_24
REMARK   13  A    between atoms: C_24  and  C_25
REMARK   14  A    between atoms: C_24  and  C_26
REMARK                            x       y       z     vdW  Elec       q    Type
REMARK                         _______ _______ _______ _____ _____    ______ ____
ROOT
ATOM      1  N   UNL     1       8.320   8.760  18.107  0.00  0.00    +0.000 N 
ATOM      2  C   UNL     1       8.103   7.419  18.017  0.00  0.00    +0.000 C 
ATOM      3  O   UNL     1       8.350   6.630  18.917  0.00  0.00    +0.000 OA
ATOM      4  N   UNL     1       7.567   7.027  16.802  0.00  0.00    +0.000 N 
ATOM      5  H   UNL     1       8.002   9.372  17.374  0.00  0.00    +0.000 HD
ATOM      6  H   UNL     1       7.362   7.683  16.063  0.00  0.00    +0.000 HD
ENDROOT
BRANCH   4   7
ATOM      7  S   UNL     1       7.136   5.458  16.442  0.00  0.00    +0.000 S 
ATOM      8  O   UNL     1       7.018   5.410  14.998  0.00  0.00    +0.000 OA
ATOM      9  O   UNL     1       7.996   4.534  17.147  0.00  0.00    +0.000 OA
BRANCH   7  10
ATOM     10  C   UNL     1       5.492   5.365  17.101  0.00  0.00    +0.000 A 
ATOM     11  C   UNL     1       5.214   6.088  18.262  0.00  0.00    +0.000 A 
ATOM     12  C   UNL     1       3.955   5.994  18.847  0.00  0.00    +0.000 A 
ATOM     13  C   UNL     1       2.959   5.193  18.276  0.00  0.00    +0.000 A 
ATOM     14  C   UNL     1       3.238   4.500  17.091  0.00  0.00    +0.000 A 
ATOM     15  C   UNL     1       4.505   4.584  16.497  0.00  0.00    +0.000 A 
BRANCH  13  16
ATOM     16  O   UNL     1       1.696   5.024  18.798  0.00  0.00    +0.000 OA
BRANCH  16  17
ATOM     17  C   UNL     1       1.667   4.614  20.170  0.00  0.00    +0.000 C 
BRANCH  17  18
ATOM     18  C   UNL     1       1.869   3.102  20.328  0.00  0.00    +0.000 C 
ATOM     19  C   UNL     1       1.499   2.622  21.730  0.00  0.00    +0.000 C 
ATOM     20  C   UNL     1       1.017   2.379  19.281  0.00  0.00    +0.000 C 
ENDBRANCH  17  18
ENDBRANCH  16  17
ENDBRANCH  13  16
ENDBRANCH   7  10
ENDBRANCH   4   7
BRANCH   1  21
ATOM     21  C   UNL     1       8.927   9.345  19.282  0.00  0.00    +0.000 C 
BRANCH  21  25
ATOM     22  C   UNL     1       9.763  13.557  18.708  0.00  0.00    +0.000 A 
ATOM     23  C   UNL     1       9.551  12.706  17.622  0.00  0.00    +0.000 A 
ATOM     24  C   UNL     1       9.283  11.351  17.820  0.00  0.00    +0.000 A 
ATOM     25  C   UNL     1       9.221  10.813  19.109  0.00  0.00    +0.000 A 
ATOM     26  C   UNL     1       9.442  11.663  20.201  0.00  0.00    +0.000 A 
ATOM     27  C   UNL     1       9.708  13.026  19.998  0.00  0.00    +0.000 A 
BRANCH  22  28
ATOM     28  O   UNL     1      10.030  14.902  18.611  0.00  0.00    +0.000 OA
BRANCH  28  29
ATOM     29  C   UNL     1      11.421  15.230  18.542  0.00  0.00    +0.000 C 
BRANCH  29  30
ATOM     30  C   UNL     1      11.779  15.823  17.183  0.00  0.00    +0.000 C 
BRANCH  30  32
ATOM     31  C   UNL     1      11.918  17.965  18.523  0.00  0.00    +0.000 C 
ATOM     32  C   UNL     1      11.530  17.334  17.199  0.00  0.00    +0.000 C 
ENDBRANCH  30  32
ENDBRANCH  29  30
ENDBRANCH  28  29
ENDBRANCH  22  28
ENDBRANCH  21  25
ENDBRANCH   1  21
TORSDOF 11
ENDMDL
MODEL 6
REMARK VINA RESULT:      -7.0      1.862      2.582
REMARK  Name = 
REMARK  14 active torsions:
REMARK  status: ('A' for Active; 'I' for Inactive)
REMARK    1  A    between atoms: C_1  and  C_2
REMARK    2  A    between atoms: C_2  and  C_3
REMARK    3  A    between atoms: C_3  and  C_4
REMARK    4  A    between atoms: C_4  and  O_5
REMARK    5  A    between atoms: O_5  and  C_6
REMARK    6  A    between atoms: C_9  and  C_10
REMARK    7  A    between atoms: C_10  and  N_11
REMARK    8  A    between atoms: N_14  and  S_15
REMARK    9  A    between atoms: S_15  and  C_18
REMARK   10  A    between atoms: C_21  and  O_22
REMARK   11  A    between atoms: O_22  and  C_23
REMARK   12  A    between atoms: C_23  and  C_24
REMARK   13  A    between atoms: C_24  and  C_25
REMARK   14  A    between atoms: C_24  and  C_26
REMARK                            x       y       z     vdW  Elec       q    Type
REMARK                         _______ _______ _______ _____ _____    ______ ____
ROOT
ATOM      1  N   UNL     1       8.191   9.129  17.977  0.00  0.00    +0.000 N 
ATOM      2  C   UNL     1       7.694   7.864  17.899  0.00  0.00    +0.000 C 
ATOM      3  O   UNL     1       7.998   6.966  18.671  0.00  0.00    +0.000 OA
ATOM      4  N   UNL     1       6.800   7.685  16.857  0.00  0.00    +0.000 N 
ATOM      5  H   UNL     1       7.827   9.850  17.378  0.00  0.00    +0.000 HD
ATOM      6  H   UNL     1       6.550   8.431  16.223  0.00  0.00    +0.000 HD
ENDROOT
BRANCH   4   7
ATOM      7  S   UNL     1       5.986   6.260  16.567  0.00  0.00    +0.000 S 
ATOM      8  O   UNL     1       5.432   6.394  15.235  0.00  0.00    +0.000 OA
ATOM      9  O   UNL     1       6.822   5.133  16.913  0.00  0.00    +0.000 OA
BRANCH   7  10
ATOM     10  C   UNL     1       4.631   6.370  17.706  0.00  0.00    +0.000 A 
ATOM     11  C   UNL     1       3.674   7.361  17.486  0.00  0.00    +0.000 A 
ATOM     12  C   UNL     1       2.628   7.522  18.390  0.00  0.00    +0.000 A 
ATOM     13  C   UNL     1       2.517   6.691  19.511  0.00  0.00    +0.000 A 
ATOM     14  C   UNL     1       3.463   5.676  19.703  0.00  0.00    +0.000 A 
ATOM     15  C   UNL     1       4.524   5.510  18.800  0.00  0.00    +0.000 A 
BRANCH  13  16
ATOM     16  O   UNL     1       1.531   6.793  20.466  0.00  0.00    +0.000 OA
BRANCH  16  17
ATOM     17  C   UNL     1       1.539   8.020  21.205  0.00  0.00    +0.000 C 
BRANCH  17  18
ATOM     18  C   UNL     1       0.140   8.636  21.320  0.00  0.00    +0.000 C 
ATOM     19  C   UNL     1      -0.102   9.243  22.701  0.00  0.00    +0.000 C 
ATOM     20  C   UNL     1      -0.018   9.707  20.238  0.00  0.00    +0.000 C 
ENDBRANCH  17  18
ENDBRANCH  16  17
ENDBRANCH  13  16
ENDBRANCH   7  10
ENDBRANCH   4   7
BRANCH   1  21
ATOM     21  C   UNL     1       9.182   9.486  18.969  0.00  0.00    +0.000 C 
BRANCH  21  25
ATOM     22  C   UNL     1      10.483  13.597  18.550  0.00  0.00    +0.000 A 
ATOM     23  C   UNL     1      10.689  12.665  17.532  0.00  0.00    +0.000 A 
ATOM     24  C   UNL     1      10.266  11.344  17.679  0.00  0.00    +0.000 A 
ATOM     25  C   UNL     1       9.626  10.921  18.848  0.00  0.00    +0.000 A 
ATOM     26  C   UNL     1       9.425  11.852  19.876  0.00  0.00    +0.000 A 
ATOM     27  C   UNL     1       9.849  13.182  19.723  0.00  0.00    +0.000 A 
BRANCH  22  28
ATOM     28  O   UNL     1      10.862  14.917  18.495  0.00  0.00    +0.000 OA
BRANCH  28  29
ATOM     29  C   UNL     1      10.603  15.662  19.690  0.00  0.00    +0.000 C 
BRANCH  29  30
ATOM     30  C   UNL     1       9.914  16.985  19.373  0.00  0.00    +0.000 C 
BRANCH  30  32
ATOM     31  C   UNL     1       7.551  16.668  18.527  0.00  0.00    +0.000 C 
ATOM     32  C   UNL     1       9.012  16.817  18.148  0.00  0.00    +0.000 C 
ENDBRANCH  30  32
ENDBRANCH  29  30
ENDBRANCH  28  29
ENDBRANCH  22  28
ENDBRANCH  21  25
ENDBRANCH   1  21
TORSDOF 11
ENDMDL
MODEL 7
REMARK VINA RESULT:      -7.0      1.952      2.674
REMARK  Name = 
REMARK  14 active torsions:
REMARK  status: ('A' for Active; 'I' for Inactive)
REMARK    1  A    between atoms: C_1  and  C_2
REMARK    2  A    between atoms: C_2  and  C_3
REMARK    3  A    between atoms: C_3  and  C_4
REMARK    4  A    between atoms: C_4  and  O_5
REMARK    5  A    between atoms: O_5  and  C_6
REMARK    6  A    between atoms: C_9  and  C_10
REMARK    7  A    between atoms: C_10  and  N_11
REMARK    8  A    between atoms: N_14  and  S_15
REMARK    9  A    between atoms: S_15  and  C_18
REMARK   10  A    between atoms: C_21  and  O_22
REMARK   11  A    between atoms: O_22  and  C_23
REMARK   12  A    between atoms: C_23  and  C_24
REMARK   13  A    between atoms: C_24  and  C_25
REMARK   14  A    between atoms: C_24  and  C_26
REMARK                            x       y       z     vdW  Elec       q    Type
REMARK                         _______ _______ _______ _____ _____    ______ ____
ROOT
ATOM      1  N   UNL     1       8.161   8.913  17.965  0.00  0.00    +0.000 N 
ATOM      2  C   UNL     1       7.575   7.688  17.859  0.00  0.00    +0.000 C 
ATOM      3  O   UNL     1       7.804   6.757  18.617  0.00  0.00    +0.000 OA
ATOM      4  N   UNL     1       6.681   7.595  16.805  0.00  0.00    +0.000 N 
ATOM      5  H   UNL     1       7.856   9.669  17.377  0.00  0.00    +0.000 HD
ATOM      6  H   UNL     1       6.493   8.367  16.183  0.00  0.00    +0.000 HD
ENDROOT
BRANCH   4   7
ATOM      7  S   UNL     1       5.769   6.238  16.480  0.00  0.00    +0.000 S 
ATOM      8  O   UNL     1       5.179   6.470  15.177  0.00  0.00    +0.000 OA
ATOM      9  O   UNL     1       6.544   5.046  16.742  0.00  0.00    +0.000 OA
BRANCH   7  10
ATOM     10  C   UNL     1       4.464   6.375  17.674  0.00  0.00    +0.000 A 
ATOM     11  C   UNL     1       3.537   7.405  17.509  0.00  0.00    +0.000 A 
ATOM     12  C   UNL     1       2.534   7.586  18.456  0.00  0.00    +0.000 A 
ATOM     13  C   UNL     1       2.435   6.738  19.566  0.00  0.00    +0.000 A 
ATOM     14  C   UNL     1       3.349   5.685  19.701  0.00  0.00    +0.000 A 
ATOM     15  C   UNL     1       4.367   5.498  18.755  0.00  0.00    +0.000 A 
BRANCH  13  16
ATOM     16  O   UNL     1       1.491   6.858  20.561  0.00  0.00    +0.000 OA
BRANCH  16  17
ATOM     17  C   UNL     1       1.517   8.105  21.262  0.00  0.00    +0.000 C 
BRANCH  17  18
ATOM     18  C   UNL     1       0.115   8.699  21.442  0.00  0.00    +0.000 C 
ATOM     19  C   UNL     1      -0.043   9.385  22.797  0.00  0.00    +0.000 C 
ATOM     20  C   UNL     1      -0.147   9.697  20.311  0.00  0.00    +0.000 C 
ENDBRANCH  17  18
ENDBRANCH  16  17
ENDBRANCH  13  16
ENDBRANCH   7  10
ENDBRANCH   4   7
BRANCH   1  21
ATOM     21  C   UNL     1       9.164   9.179  18.973  0.00  0.00    +0.000 C 
BRANCH  21  25
ATOM     22  C   UNL     1      10.100  13.389  19.377  0.00  0.00    +0.000 A 
ATOM     23  C   UNL     1       9.786  12.607  20.490  0.00  0.00    +0.000 A 
ATOM     24  C   UNL     1       9.485  11.252  20.346  0.00  0.00    +0.000 A 
ATOM     25  C   UNL     1       9.491  10.645  19.087  0.00  0.00    +0.000 A 
ATOM     26  C   UNL     1       9.798  11.429  17.967  0.00  0.00    +0.000 A 
ATOM     27  C   UNL     1      10.104  12.792  18.115  0.00  0.00    +0.000 A 
BRANCH  22  28
ATOM     28  O   UNL     1      10.411  14.727  19.420  0.00  0.00    +0.000 OA
BRANCH  28  29
ATOM     29  C   UNL     1       9.398  15.592  18.896  0.00  0.00    +0.000 C 
BRANCH  29  30
ATOM     30  C   UNL     1       9.817  17.055  19.001  0.00  0.00    +0.000 C 
BRANCH  30  32
ATOM     31  C   UNL     1      10.778  16.475  16.733  0.00  0.00    +0.000 C 
ATOM     32  C   UNL     1      10.222  17.575  17.619  0.00  0.00    +0.000 C 
ENDBRANCH  30  32
ENDBRANCH  29  30
ENDBRANCH  28  29
ENDBRANCH  22  28
ENDBRANCH  21  25
ENDBRANCH   1  21
TORSDOF 11
ENDMDL
MODEL 8
REMARK VINA RESULT:      -6.8      6.836     10.254
REMARK  Name = 
REMARK  14 active torsions:
REMARK  status: ('A' for Active; 'I' for Inactive)
REMARK    1  A    between atoms: C_1  and  C_2
REMARK    2  A    between atoms: C_2  and  C_3
REMARK    3  A    between atoms: C_3  and  C_4
REMARK    4  A    between atoms: C_4  and  O_5
REMARK    5  A    between atoms: O_5  and  C_6
REMARK    6  A    between atoms: C_9  and  C_10
REMARK    7  A    between atoms: C_10  and  N_11
REMARK    8  A    between atoms: N_14  and  S_15
REMARK    9  A    between atoms: S_15  and  C_18
REMARK   10  A    between atoms: C_21  and  O_22
REMARK   11  A    between atoms: O_22  and  C_23
REMARK   12  A    between atoms: C_23  and  C_24
REMARK   13  A    between atoms: C_24  and  C_25
REMARK   14  A    between atoms: C_24  and  C_26
REMARK                            x       y       z     vdW  Elec       q    Type
REMARK                         _______ _______ _______ _____ _____    ______ ____
ROOT
ATOM      1  N   UNL     1       2.213   8.353  18.100  0.00  0.00    +0.000 N 
ATOM      2  C   UNL     1       1.566   9.285  18.852  0.00  0.00    +0.000 C 
ATOM      3  O   UNL     1       1.097   9.060  19.958  0.00  0.00    +0.000 OA
ATOM      4  N   UNL     1       1.490  10.528  18.244  0.00  0.00    +0.000 N 
ATOM      5  H   UNL     1       2.666   8.623  17.244  0.00  0.00    +0.000 HD
ATOM      6  H   UNL     1       1.880  10.710  17.332  0.00  0.00    +0.000 HD
ENDROOT
BRANCH   4   7
ATOM      7  S   UNL     1       0.816  11.872  18.963  0.00  0.00    +0.000 S 
ATOM      8  O   UNL     1       1.032  11.700  20.386  0.00  0.00    +0.000 OA
ATOM      9  O   UNL     1       1.256  13.069  18.286  0.00  0.00    +0.000 OA
BRANCH   7  10
ATOM     10  C   UNL     1      -0.915  11.621  18.667  0.00  0.00    +0.000 A 
ATOM     11  C   UNL     1      -1.820  12.324  19.463  0.00  0.00    +0.000 A 
ATOM     12  C   UNL     1      -3.186  12.110  19.306  0.00  0.00    +0.000 A 
ATOM     13  C   UNL     1      -3.664  11.208  18.348  0.00  0.00    +0.000 A 
ATOM     14  C   UNL     1      -2.747  10.535  17.530  0.00  0.00    +0.000 A 
ATOM     15  C   UNL     1      -1.369  10.740  17.685  0.00  0.00    +0.000 A 
BRANCH  13  16
ATOM     16  O   UNL     1      -4.994  10.918  18.140  0.00  0.00    +0.000 OA
BRANCH  16  17
ATOM     17  C   UNL     1      -5.630  11.719  17.139  0.00  0.00    +0.000 C 
BRANCH  17  18
ATOM     18  C   UNL     1      -6.911  12.385  17.656  0.00  0.00    +0.000 C 
ATOM     19  C   UNL     1      -7.278  11.901  19.057  0.00  0.00    +0.000 C 
ATOM     20  C   UNL     1      -6.710  13.903  17.658  0.00  0.00    +0.000 C 
ENDBRANCH  17  18
ENDBRANCH  16  17
ENDBRANCH  13  16
ENDBRANCH   7  10
ENDBRANCH   4   7
BRANCH   1  21
ATOM     21  C   UNL     1       2.339   6.984  18.549  0.00  0.00    +0.000 C 
BRANCH  21  25
ATOM     22  C   UNL     1       5.504   4.905  16.443  0.00  0.00    +0.000 A 
ATOM     23  C   UNL     1       5.455   6.300  16.484  0.00  0.00    +0.000 A 
ATOM     24  C   UNL     1       4.430   6.957  17.165  0.00  0.00    +0.000 A 
ATOM     25  C   UNL     1       3.428   6.237  17.822  0.00  0.00    +0.000 A 
ATOM     26  C   UNL     1       3.470   4.838  17.777  0.00  0.00    +0.000 A 
ATOM     27  C   UNL     1       4.505   4.179  17.094  0.00  0.00    +0.000 A 
BRANCH  22  28
ATOM     28  O   UNL     1       6.474   4.172  15.802  0.00  0.00    +0.000 OA
BRANCH  28  29
ATOM     29  C   UNL     1       6.129   3.760  14.476  0.00  0.00    +0.000 C 
BRANCH  29  30
ATOM     30  C   UNL     1       6.980   4.485  13.438  0.00  0.00    +0.000 C 
BRANCH  30  32
ATOM     31  C   UNL     1       5.487   3.100  11.936  0.00  0.00    +0.000 C 
ATOM     32  C   UNL     1       6.825   3.801  12.076  0.00  0.00    +0.000 C 
ENDBRANCH  30  32
ENDBRANCH  29  30
ENDBRANCH  28  29
ENDBRANCH  22  28
ENDBRANCH  21  25
ENDBRANCH   1  21
TORSDOF 11
ENDMDL
MODEL 9
REMARK VINA RESULT:      -6.8      6.273      9.963
REMARK  Name = 
REMARK  14 active torsions:
REMARK  status: ('A' for Active; 'I' for Inactive)
REMARK    1  A    between atoms: C_1  and  C_2
REMARK    2  A    between atoms: C_2  and  C_3
REMARK    3  A    between atoms: C_3  and  C_4
REMARK    4  A    between atoms: C_4  and  O_5
REMARK    5  A    between atoms: O_5  and  C_6
REMARK    6  A    between atoms: C_9  and  C_10
REMARK    7  A    between atoms: C_10  and  N_11
REMARK    8  A    between atoms: N_14  and  S_15
REMARK    9  A    between atoms: S_15  and  C_18
REMARK   10  A    between atoms: C_21  and  O_22
REMARK   11  A    between atoms: O_22  and  C_23
REMARK   12  A    between atoms: C_23  and  C_24
REMARK   13  A    between atoms: C_24  and  C_25
REMARK   14  A    between atoms: C_24  and  C_26
REMARK                            x       y       z     vdW  Elec       q    Type
REMARK                         _______ _______ _______ _____ _____    ______ ____
ROOT
ATOM      1  N   UNL     1       1.461   9.482  18.650  0.00  0.00    +0.000 N 
ATOM      2  C   UNL     1       1.847   8.297  19.198  0.00  0.00    +0.000 C 
ATOM      3  O   UNL     1       1.709   8.017  20.380  0.00  0.00    +0.000 OA
ATOM      4  N   UNL     1       2.413   7.425  18.283  0.00  0.00    +0.000 N 
ATOM      5  H   UNL     1       1.506   9.615  17.655  0.00  0.00    +0.000 HD
ATOM      6  H   UNL     1       2.523   7.660  17.307  0.00  0.00    +0.000 HD
ENDROOT
BRANCH   4   7
ATOM      7  S   UNL     1       2.912   5.880  18.659  0.00  0.00    +0.000 S 
ATOM      8  O   UNL     1       3.749   6.019  19.834  0.00  0.00    +0.000 OA
ATOM      9  O   UNL     1       1.781   4.980  18.656  0.00  0.00    +0.000 OA
BRANCH   7  10
ATOM     10  C   UNL     1       3.984   5.496  17.300  0.00  0.00    +0.000 A 
ATOM     11  C   UNL     1       4.224   4.149  17.021  0.00  0.00    +0.000 A 
ATOM     12  C   UNL     1       5.107   3.804  16.003  0.00  0.00    +0.000 A 
ATOM     13  C   UNL     1       5.748   4.792  15.246  0.00  0.00    +0.000 A 
ATOM     14  C   UNL     1       5.473   6.139  15.511  0.00  0.00    +0.000 A 
ATOM     15  C   UNL     1       4.588   6.497  16.539  0.00  0.00    +0.000 A 
BRANCH  13  16
ATOM     16  O   UNL     1       6.652   4.542  14.238  0.00  0.00    +0.000 OA
BRANCH  16  17
ATOM     17  C   UNL     1       6.506   3.265  13.607  0.00  0.00    +0.000 C 
BRANCH  17  18
ATOM     18  C   UNL     1       6.336   3.384  12.088  0.00  0.00    +0.000 C 
ATOM     19  C   UNL     1       4.865   3.460  11.684  0.00  0.00    +0.000 C 
ATOM     20  C   UNL     1       7.081   4.632  11.605  0.00  0.00    +0.000 C 
ENDBRANCH  17  18
ENDBRANCH  16  17
ENDBRANCH  13  16
ENDBRANCH   7  10
ENDBRANCH   4   7
BRANCH   1  21
ATOM     21  C   UNL     1       0.901  10.537  19.466  0.00  0.00    +0.000 C 
BRANCH  21  25
ATOM     22  C   UNL     1      -3.161  11.586  18.383  0.00  0.00    +0.000 A 
ATOM     23  C   UNL     1      -2.521  12.191  19.466  0.00  0.00    +0.000 A 
ATOM     24  C   UNL     1      -1.213  11.844  19.805  0.00  0.00    +0.000 A 
ATOM     25  C   UNL     1      -0.511  10.883  19.070  0.00  0.00    +0.000 A 
ATOM     26  C   UNL     1      -1.154  10.268  17.987  0.00  0.00    +0.000 A 
ATOM     27  C   UNL     1      -2.469  10.622  17.646  0.00  0.00    +0.000 A 
BRANCH  22  28
ATOM     28  O   UNL     1      -4.443  11.864  17.973  0.00  0.00    +0.000 OA
BRANCH  28  29
ATOM     29  C   UNL     1      -5.302  10.723  17.887  0.00  0.00    +0.000 C 
BRANCH  29  30
ATOM     30  C   UNL     1      -6.702  11.049  18.397  0.00  0.00    +0.000 C 
BRANCH  30  32
ATOM     31  C   UNL     1      -7.693  10.815  20.713  0.00  0.00    +0.000 C 
ATOM     32  C   UNL     1      -7.074  10.092  19.532  0.00  0.00    +0.000 C 
ENDBRANCH  30  32
ENDBRANCH  29  30
ENDBRANCH  28  29
ENDBRANCH  22  28
ENDBRANCH  21  25
ENDBRANCH   1  21
TORSDOF 11
ENDMDL
