MODEL 1
REMARK VINA RESULT:      -7.1      0.000      0.000
REMARK  Name = 
REMARK  7 active torsions:
REMARK  status: ('A' for Active; 'I' for Inactive)
REMARK    1  A    between atoms: C_1  and  C_2
REMARK    2  A    between atoms: C_3  and  O_4
REMARK    3  A    between atoms: C_9  and  S_10
REMARK    4  A    between atoms: S_10  and  C_11
REMARK    5  A    between atoms: C_11  and  C_12
REMARK    6  A    between atoms: N_14  and  C_15
REMARK    7  A    between atoms: C_21  and  C_22
REMARK                            x       y       z     vdW  Elec       q    Type
REMARK                         _______ _______ _______ _____ _____    ______ ____
ROOT
ATOM      1  C   UNL     1       2.314   1.688  18.727  0.00  0.00    +0.000 C 
ATOM      2  C   UNL     1       2.258   3.157  19.037  0.00  0.00    +0.000 A 
ATOM      3  C   UNL     1       1.501   3.715  20.199  0.00  0.00    +0.000 A 
ATOM      4  N   UNL     1       1.427   4.951  20.551  0.00  0.00    +0.000 NA
ATOM      5  C   UNL     1       2.109   5.843  19.792  0.00  0.00    +0.000 A 
ATOM      6  N   UNL     1       2.229   7.145  19.970  0.00  0.00    +0.000 NA
ATOM      7  N   UNL     1       3.018   7.647  18.980  0.00  0.00    +0.000 NA
ATOM      8  C   UNL     1       3.359   6.652  18.196  0.00  0.00    +0.000 A 
ATOM      9  N   UNL     1       2.839   5.453  18.661  0.00  0.00    +0.000 N 
ATOM     10  C   UNL     1       2.913   4.084  18.286  0.00  0.00    +0.000 A 
ATOM     11  C   UNL     1       3.709   3.625  17.094  0.00  0.00    +0.000 C 
ENDROOT
BRANCH   3  12
ATOM     12  O   UNL     1       0.823   2.845  20.962  0.00  0.00    +0.000 OA
ATOM     13  H   UNL     1       0.560   3.143  21.836  0.00  0.00    +0.000 HD
ENDBRANCH   3  12
BRANCH   8  14
ATOM     14  S   UNL     1       4.330   6.901  16.786  0.00  0.00    +0.000 S 
BRANCH  14  15
ATOM     15  C   UNL     1       5.963   6.396  17.404  0.00  0.00    +0.000 C 
BRANCH  15  16
ATOM     16  C   UNL     1       6.615   5.436  16.427  0.00  0.00    +0.000 C 
ATOM     17  O   UNL     1       7.599   4.768  16.738  0.00  0.00    +0.000 OA
ATOM     18  N   UNL     1       6.062   5.407  15.161  0.00  0.00    +0.000 N 
ATOM     19  H   UNL     1       5.234   5.960  14.954  0.00  0.00    +0.000 HD
BRANCH  18  20
ATOM     20  C   UNL     1       6.629   4.561  14.137  0.00  0.00    +0.000 C 
ATOM     21  C   UNL     1       5.602   3.752  13.350  0.00  0.00    +0.000 C 
ATOM     22  C   UNL     1       6.445   3.185  12.210  0.00  0.00    +0.000 C 
ATOM     23  C   UNL     1       7.542   4.227  11.956  0.00  0.00    +0.000 C 
ATOM     24  C   UNL     1       7.350   5.306  13.022  0.00  0.00    +0.000 C 
ENDBRANCH  18  20
ENDBRANCH  15  16
ENDBRANCH  14  15
ENDBRANCH   8  14
TORSDOF 5
ENDMDL
MODEL 2
REMARK VINA RESULT:      -7.0      2.496      6.640
REMARK  Name = 
REMARK  7 active torsions:
REMARK  status: ('A' for Active; 'I' for Inactive)
REMARK    1  A    between atoms: C_1  and  C_2
REMARK    2  A    between atoms: C_3  and  O_4
REMARK    3  A    between atoms: C_9  and  S_10
REMARK    4  A    between atoms: S_10  and  C_11
REMARK    5  A    between atoms: C_11  and  C_12
REMARK    6  A    between atoms: N_14  and  C_15
REMARK    7  A    between atoms: C_21  and  C_22
REMARK                            x       y       z     vdW  Elec       q    Type
REMARK                         _______ _______ _______ _____ _____    ______ ____
ROOT
ATOM      1  C   UNL     1       5.383   4.066  13.946  0.00  0.00    +0.000 C 
ATOM      2  C   UNL     1       5.841   4.324  15.355  0.00  0.00    +0.000 A 
ATOM      3  C   UNL     1       7.099   5.063  15.678  0.00  0.00    +0.000 A 
ATOM      4  N   UNL     1       7.546   5.352  16.851  0.00  0.00    +0.000 NA
ATOM      5  C   UNL     1       6.796   4.947  17.905  0.00  0.00    +0.000 A 
ATOM      6  N   UNL     1       7.011   5.158  19.190  0.00  0.00    +0.000 NA
ATOM      7  N   UNL     1       5.997   4.589  19.898  0.00  0.00    +0.000 NA
ATOM      8  C   UNL     1       5.181   4.019  19.043  0.00  0.00    +0.000 A 
ATOM      9  N   UNL     1       5.606   4.225  17.739  0.00  0.00    +0.000 N 
ATOM     10  C   UNL     1       5.125   3.915  16.438  0.00  0.00    +0.000 A 
ATOM     11  C   UNL     1       3.839   3.165  16.220  0.00  0.00    +0.000 C 
ENDROOT
BRANCH   3  12
ATOM     12  O   UNL     1       7.850   5.473  14.646  0.00  0.00    +0.000 OA
ATOM     13  H   UNL     1       8.734   5.791  14.848  0.00  0.00    +0.000 HD
ENDBRANCH   3  12
BRANCH   8  14
ATOM     14  S   UNL     1       3.784   3.144  19.568  0.00  0.00    +0.000 S 
BRANCH  14  15
ATOM     15  C   UNL     1       3.156   4.252  20.864  0.00  0.00    +0.000 C 
BRANCH  15  16
ATOM     16  C   UNL     1       2.165   5.237  20.272  0.00  0.00    +0.000 C 
ATOM     17  O   UNL     1       1.001   4.917  20.035  0.00  0.00    +0.000 OA
ATOM     18  N   UNL     1       2.673   6.486  19.972  0.00  0.00    +0.000 N 
ATOM     19  H   UNL     1       3.636   6.713  20.205  0.00  0.00    +0.000 HD
BRANCH  18  20
ATOM     20  C   UNL     1       1.830   7.489  19.365  0.00  0.00    +0.000 C 
ATOM     21  C   UNL     1       1.516   8.677  20.269  0.00  0.00    +0.000 C 
ATOM     22  C   UNL     1       0.859   9.655  19.298  0.00  0.00    +0.000 C 
ATOM     23  C   UNL     1       1.504   9.374  17.935  0.00  0.00    +0.000 C 
ATOM     24  C   UNL     1       2.436   8.180  18.151  0.00  0.00    +0.000 C 
ENDBRANCH  18  20
ENDBRANCH  15  16
ENDBRANCH  14  15
ENDBRANCH   8  14
TORSDOF 5
ENDMDL
MODEL 3
REMARK VINA RESULT:      -6.8      2.034      3.122
REMARK  Name = 
REMARK  7 active torsions:
REMARK  status: ('A' for Active; 'I' for Inactive)
REMARK    1  A    between atoms: C_1  and  C_2
REMARK    2  A    between atoms: C_3  and  O_4
REMARK    3  A    between atoms: C_9  and  S_10
REMARK    4  A    between atoms: S_10  and  C_11
REMARK    5  A    between atoms: C_11  and  C_12
REMARK    6  A    between atoms: N_14  and  C_15
REMARK    7  A    between atoms: C_21  and  C_22
REMARK                            x       y       z     vdW  Elec       q    Type
REMARK                         _______ _______ _______ _____ _____    ______ ____
ROOT
ATOM      1  C   UNL     1       2.216   9.211  18.060  0.00  0.00    +0.000 C 
ATOM      2  C   UNL     1       2.251   7.968  18.904  0.00  0.00    +0.000 A 
ATOM      3  C   UNL     1       1.599   7.879  20.246  0.00  0.00    +0.000 A 
ATOM      4  N   UNL     1       1.555   6.849  21.017  0.00  0.00    +0.000 NA
ATOM      5  C   UNL     1       2.162   5.724  20.565  0.00  0.00    +0.000 A 
ATOM      6  N   UNL     1       2.216   4.537  21.140  0.00  0.00    +0.000 NA
ATOM      7  N   UNL     1       2.913   3.694  20.329  0.00  0.00    +0.000 NA
ATOM      8  C   UNL     1       3.294   4.375  19.275  0.00  0.00    +0.000 A 
ATOM      9  N   UNL     1       2.830   5.681  19.334  0.00  0.00    +0.000 N 
ATOM     10  C   UNL     1       2.868   6.827  18.493  0.00  0.00    +0.000 A 
ATOM     11  C   UNL     1       3.552   6.811  17.153  0.00  0.00    +0.000 C 
ENDROOT
BRANCH   3  12
ATOM     12  O   UNL     1       0.991   8.982  20.706  0.00  0.00    +0.000 OA
ATOM     13  H   UNL     1       1.549   9.652  21.111  0.00  0.00    +0.000 HD
ENDBRANCH   3  12
BRANCH   8  14
ATOM     14  S   UNL     1       4.251   3.654  18.026  0.00  0.00    +0.000 S 
BRANCH  14  15
ATOM     15  C   UNL     1       5.845   4.482  18.299  0.00  0.00    +0.000 C 
BRANCH  15  16
ATOM     16  C   UNL     1       6.714   4.358  17.061  0.00  0.00    +0.000 C 
ATOM     17  O   UNL     1       7.941   4.423  17.125  0.00  0.00    +0.000 OA
ATOM     18  N   UNL     1       6.034   4.223  15.866  0.00  0.00    +0.000 N 
ATOM     19  H   UNL     1       5.020   4.151  15.863  0.00  0.00    +0.000 HD
BRANCH  18  20
ATOM     20  C   UNL     1       6.759   4.139  14.621  0.00  0.00    +0.000 C 
ATOM     21  C   UNL     1       5.909   3.718  13.425  0.00  0.00    +0.000 C 
ATOM     22  C   UNL     1       6.854   3.972  12.253  0.00  0.00    +0.000 C 
ATOM     23  C   UNL     1       7.740   5.145  12.690  0.00  0.00    +0.000 C 
ATOM     24  C   UNL     1       7.340   5.459  14.132  0.00  0.00    +0.000 C 
ENDBRANCH  18  20
ENDBRANCH  15  16
ENDBRANCH  14  15
ENDBRANCH   8  14
TORSDOF 5
ENDMDL
MODEL 4
REMARK VINA RESULT:      -6.5      4.622      7.313
REMARK  Name = 
REMARK  7 active torsions:
REMARK  status: ('A' for Active; 'I' for Inactive)
REMARK    1  A    between atoms: C_1  and  C_2
REMARK    2  A    between atoms: C_3  and  O_4
REMARK    3  A    between atoms: C_9  and  S_10
REMARK    4  A    between atoms: S_10  and  C_11
REMARK    5  A    between atoms: C_11  and  C_12
REMARK    6  A    between atoms: N_14  and  C_15
REMARK    7  A    between atoms: C_21  and  C_22
REMARK                            x       y       z     vdW  Elec       q    Type
REMARK                         _______ _______ _______ _____ _____    ______ ____
ROOT
ATOM      1  C   UNL     1       2.494   2.263  19.628  0.00  0.00    +0.000 C 
ATOM      2  C   UNL     1       2.938   3.543  18.978  0.00  0.00    +0.000 A 
ATOM      3  C   UNL     1       3.929   3.586  17.859  0.00  0.00    +0.000 A 
ATOM      4  N   UNL     1       4.339   4.631  17.229  0.00  0.00    +0.000 NA
ATOM      5  C   UNL     1       3.816   5.819  17.616  0.00  0.00    +0.000 A 
ATOM      6  N   UNL     1       4.036   7.015  17.103  0.00  0.00    +0.000 NA
ATOM      7  N   UNL     1       3.290   7.925  17.789  0.00  0.00    +0.000 NA
ATOM      8  C   UNL     1       2.635   7.282  18.726  0.00  0.00    +0.000 A 
ATOM      9  N   UNL     1       2.894   5.921  18.668  0.00  0.00    +0.000 N 
ATOM     10  C   UNL     1       2.451   4.757  19.353  0.00  0.00    +0.000 A 
ATOM     11  C   UNL     1       1.443   4.824  20.469  0.00  0.00    +0.000 C 
ENDROOT
BRANCH   3  12
ATOM     12  O   UNL     1       4.453   2.417  17.462  0.00  0.00    +0.000 OA
ATOM     13  H   UNL     1       4.020   1.617  17.769  0.00  0.00    +0.000 HD
ENDBRANCH   3  12
BRANCH   8  14
ATOM     14  S   UNL     1       1.606   8.110  19.845  0.00  0.00    +0.000 S 
BRANCH  14  15
ATOM     15  C   UNL     1       1.327   9.671  18.958  0.00  0.00    +0.000 C 
BRANCH  15  16
ATOM     16  C   UNL     1      -0.162   9.935  18.825  0.00  0.00    +0.000 C 
ATOM     17  O   UNL     1      -0.886  10.062  19.811  0.00  0.00    +0.000 OA
ATOM     18  N   UNL     1      -0.648   9.967  17.532  0.00  0.00    +0.000 N 
ATOM     19  H   UNL     1      -0.009   9.879  16.746  0.00  0.00    +0.000 HD
BRANCH  18  20
ATOM     20  C   UNL     1      -2.056  10.169  17.288  0.00  0.00    +0.000 C 
ATOM     21  C   UNL     1      -2.511  11.621  17.395  0.00  0.00    +0.000 C 
ATOM     22  C   UNL     1      -3.933  11.555  16.843  0.00  0.00    +0.000 C 
ATOM     23  C   UNL     1      -3.918  10.418  15.813  0.00  0.00    +0.000 C 
ATOM     24  C   UNL     1      -2.517   9.808  15.882  0.00  0.00    +0.000 C 
ENDBRANCH  18  20
ENDBRANCH  15  16
ENDBRANCH  14  15
ENDBRANCH   8  14
TORSDOF 5
ENDMDL
MODEL 5
REMARK VINA RESULT:      -6.5      3.719      5.365
REMARK  Name = 
REMARK  7 active torsions:
REMARK  status: ('A' for Active; 'I' for Inactive)
REMARK    1  A    between atoms: C_1  and  C_2
REMARK    2  A    between atoms: C_3  and  O_4
REMARK    3  A    between atoms: C_9  and  S_10
REMARK    4  A    between atoms: S_10  and  C_11
REMARK    5  A    between atoms: C_11  and  C_12
REMARK    6  A    between atoms: N_14  and  C_15
REMARK    7  A    between atoms: C_21  and  C_22
REMARK                            x       y       z     vdW  Elec       q    Type
REMARK                         _______ _______ _______ _____ _____    ______ ____
ROOT
ATOM      1  C   UNL     1      -0.377  10.834  22.187  0.00  0.00    +0.000 C 
ATOM      2  C   UNL     1       0.267  10.422  20.894  0.00  0.00    +0.000 A 
ATOM      3  C   UNL     1       0.318  11.310  19.692  0.00  0.00    +0.000 A 
ATOM      4  N   UNL     1       0.874  11.049  18.560  0.00  0.00    +0.000 NA
ATOM      5  C   UNL     1       1.481   9.842  18.445  0.00  0.00    +0.000 A 
ATOM      6  N   UNL     1       2.154   9.361  17.417  0.00  0.00    +0.000 NA
ATOM      7  N   UNL     1       2.607   8.118  17.739  0.00  0.00    +0.000 NA
ATOM      8  C   UNL     1       2.193   7.842  18.952  0.00  0.00    +0.000 A 
ATOM      9  N   UNL     1       1.485   8.907  19.489  0.00  0.00    +0.000 N 
ATOM     10  C   UNL     1       0.868   9.212  20.733  0.00  0.00    +0.000 A 
ATOM     11  C   UNL     1       0.876   8.244  21.886  0.00  0.00    +0.000 C 
ENDROOT
BRANCH   3  12
ATOM     12  O   UNL     1      -0.276  12.509  19.792  0.00  0.00    +0.000 OA
ATOM     13  H   UNL     1       0.275  13.282  19.645  0.00  0.00    +0.000 HD
ENDBRANCH   3  12
BRANCH   8  14
ATOM     14  S   UNL     1       2.533   6.320  19.702  0.00  0.00    +0.000 S 
BRANCH  14  15
ATOM     15  C   UNL     1       1.894   5.172  18.447  0.00  0.00    +0.000 C 
BRANCH  15  16
ATOM     16  C   UNL     1       3.043   4.446  17.773  0.00  0.00    +0.000 C 
ATOM     17  O   UNL     1       3.129   3.219  17.788  0.00  0.00    +0.000 OA
ATOM     18  N   UNL     1       4.003   5.255  17.194  0.00  0.00    +0.000 N 
ATOM     19  H   UNL     1       3.879   6.264  17.186  0.00  0.00    +0.000 HD
BRANCH  18  20
ATOM     20  C   UNL     1       5.162   4.673  16.562  0.00  0.00    +0.000 C 
ATOM     21  C   UNL     1       5.333   5.050  15.093  0.00  0.00    +0.000 C 
ATOM     22  C   UNL     1       6.733   4.524  14.787  0.00  0.00    +0.000 C 
ATOM     23  C   UNL     1       7.506   4.626  16.108  0.00  0.00    +0.000 C 
ATOM     24  C   UNL     1       6.497   5.114  17.148  0.00  0.00    +0.000 C 
ENDBRANCH  18  20
ENDBRANCH  15  16
ENDBRANCH  14  15
ENDBRANCH   8  14
TORSDOF 5
ENDMDL
MODEL 6
REMARK VINA RESULT:      -6.4      4.140      7.229
REMARK  Name = 
REMARK  7 active torsions:
REMARK  status: ('A' for Active; 'I' for Inactive)
REMARK    1  A    between atoms: C_1  and  C_2
REMARK    2  A    between atoms: C_3  and  O_4
REMARK    3  A    between atoms: C_9  and  S_10
REMARK    4  A    between atoms: S_10  and  C_11
REMARK    5  A    between atoms: C_11  and  C_12
REMARK    6  A    between atoms: N_14  and  C_15
REMARK    7  A    between atoms: C_21  and  C_22
REMARK                            x       y       z     vdW  Elec       q    Type
REMARK                         _______ _______ _______ _____ _____    ______ ____
ROOT
ATOM      1  C   UNL     1       5.075   3.705  16.393  0.00  0.00    +0.000 C 
ATOM      2  C   UNL     1       4.151   3.787  17.575  0.00  0.00    +0.000 A 
ATOM      3  C   UNL     1       3.719   2.586  18.353  0.00  0.00    +0.000 A 
ATOM      4  N   UNL     1       2.958   2.571  19.392  0.00  0.00    +0.000 NA
ATOM      5  C   UNL     1       2.503   3.769  19.830  0.00  0.00    +0.000 A 
ATOM      6  N   UNL     1       1.755   4.022  20.888  0.00  0.00    +0.000 NA
ATOM      7  N   UNL     1       1.548   5.366  20.961  0.00  0.00    +0.000 NA
ATOM      8  C   UNL     1       2.154   5.922  19.939  0.00  0.00    +0.000 A 
ATOM      9  N   UNL     1       2.815   4.970  19.177  0.00  0.00    +0.000 N 
ATOM     10  C   UNL     1       3.657   4.970  18.032  0.00  0.00    +0.000 A 
ATOM     11  C   UNL     1       4.036   6.241  17.320  0.00  0.00    +0.000 C 
ENDROOT
BRANCH   3  12
ATOM     12  O   UNL     1       4.164   1.393  17.934  0.00  0.00    +0.000 OA
ATOM     13  H   UNL     1       3.538   0.831  17.469  0.00  0.00    +0.000 HD
ENDBRANCH   3  12
BRANCH   8  14
ATOM     14  S   UNL     1       2.081   7.628  19.659  0.00  0.00    +0.000 S 
BRANCH  14  15
ATOM     15  C   UNL     1       1.229   8.184  21.164  0.00  0.00    +0.000 C 
BRANCH  15  16
ATOM     16  C   UNL     1       0.958   9.675  21.088  0.00  0.00    +0.000 C 
ATOM     17  O   UNL     1       0.616  10.320  22.078  0.00  0.00    +0.000 OA
ATOM     18  N   UNL     1       1.070  10.238  19.832  0.00  0.00    +0.000 N 
ATOM     19  H   UNL     1       1.377   9.671  19.045  0.00  0.00    +0.000 HD
BRANCH  18  20
ATOM     20  C   UNL     1       0.793  11.641  19.635  0.00  0.00    +0.000 C 
ATOM     21  C   UNL     1       1.833  12.375  18.794  0.00  0.00    +0.000 C 
ATOM     22  C   UNL     1       1.155  13.720  18.545  0.00  0.00    +0.000 C 
ATOM     23  C   UNL     1      -0.350  13.421  18.527  0.00  0.00    +0.000 C 
ATOM     24  C   UNL     1      -0.486  11.936  18.863  0.00  0.00    +0.000 C 
ENDBRANCH  18  20
ENDBRANCH  15  16
ENDBRANCH  14  15
ENDBRANCH   8  14
TORSDOF 5
ENDMDL
MODEL 7
REMARK VINA RESULT:      -6.4      1.631      1.725
REMARK  Name = 
REMARK  7 active torsions:
REMARK  status: ('A' for Active; 'I' for Inactive)
REMARK    1  A    between atoms: C_1  and  C_2
REMARK    2  A    between atoms: C_3  and  O_4
REMARK    3  A    between atoms: C_9  and  S_10
REMARK    4  A    between atoms: S_10  and  C_11
REMARK    5  A    between atoms: C_11  and  C_12
REMARK    6  A    between atoms: N_14  and  C_15
REMARK    7  A    between atoms: C_21  and  C_22
REMARK                            x       y       z     vdW  Elec       q    Type
REMARK                         _______ _______ _______ _____ _____    ______ ____
ROOT
ATOM      1  C   UNL     1       2.432   1.539  19.381  0.00  0.00    +0.000 C 
ATOM      2  C   UNL     1       2.609   2.940  18.866  0.00  0.00    +0.000 A 
ATOM      3  C   UNL     1       1.509   3.709  18.209  0.00  0.00    +0.000 A 
ATOM      4  N   UNL     1       1.566   4.918  17.769  0.00  0.00    +0.000 NA
ATOM      5  C   UNL     1       2.747   5.565  17.921  0.00  0.00    +0.000 A 
ATOM      6  N   UNL     1       3.043   6.810  17.601  0.00  0.00    +0.000 NA
ATOM      7  N   UNL     1       4.339   7.049  17.943  0.00  0.00    +0.000 NA
ATOM      8  C   UNL     1       4.830   5.945  18.453  0.00  0.00    +0.000 A 
ATOM      9  N   UNL     1       3.865   4.949  18.501  0.00  0.00    +0.000 N 
ATOM     10  C   UNL     1       3.785   3.614  18.982  0.00  0.00    +0.000 A 
ATOM     11  C   UNL     1       4.956   2.930  19.634  0.00  0.00    +0.000 C 
ENDROOT
BRANCH   3  12
ATOM     12  O   UNL     1       0.332   3.083  18.054  0.00  0.00    +0.000 OA
ATOM     13  H   UNL     1      -0.092   2.749  18.848  0.00  0.00    +0.000 HD
ENDBRANCH   3  12
BRANCH   8  14
ATOM     14  S   UNL     1       6.478   5.837  18.968  0.00  0.00    +0.000 S 
BRANCH  14  15
ATOM     15  C   UNL     1       7.344   6.295  17.438  0.00  0.00    +0.000 C 
BRANCH  15  16
ATOM     16  C   UNL     1       7.194   5.193  16.406  0.00  0.00    +0.000 C 
ATOM     17  O   UNL     1       7.041   4.018  16.734  0.00  0.00    +0.000 OA
ATOM     18  N   UNL     1       7.296   5.594  15.087  0.00  0.00    +0.000 N 
ATOM     19  H   UNL     1       7.400   6.580  14.862  0.00  0.00    +0.000 HD
BRANCH  18  20
ATOM     20  C   UNL     1       7.211   4.623  14.022  0.00  0.00    +0.000 C 
ATOM     21  C   UNL     1       5.798   4.123  13.738  0.00  0.00    +0.000 C 
ATOM     22  C   UNL     1       5.987   3.345  12.438  0.00  0.00    +0.000 C 
ATOM     23  C   UNL     1       7.138   4.048  11.705  0.00  0.00    +0.000 C 
ATOM     24  C   UNL     1       7.633   5.141  12.653  0.00  0.00    +0.000 C 
ENDBRANCH  18  20
ENDBRANCH  15  16
ENDBRANCH  14  15
ENDBRANCH   8  14
TORSDOF 5
ENDMDL
MODEL 8
REMARK VINA RESULT:      -6.4      2.348      4.260
REMARK  Name = 
REMARK  7 active torsions:
REMARK  status: ('A' for Active; 'I' for Inactive)
REMARK    1  A    between atoms: C_1  and  C_2
REMARK    2  A    between atoms: C_3  and  O_4
REMARK    3  A    between atoms: C_9  and  S_10
REMARK    4  A    between atoms: S_10  and  C_11
REMARK    5  A    between atoms: C_11  and  C_12
REMARK    6  A    between atoms: N_14  and  C_15
REMARK    7  A    between atoms: C_21  and  C_22
REMARK                            x       y       z     vdW  Elec       q    Type
REMARK                         _______ _______ _______ _____ _____    ______ ____
ROOT
ATOM      1  C   UNL     1       1.505   5.891  21.007  0.00  0.00    +0.000 C 
ATOM      2  C   UNL     1       2.190   4.705  20.389  0.00  0.00    +0.000 A 
ATOM      3  C   UNL     1       2.346   3.397  21.096  0.00  0.00    +0.000 A 
ATOM      4  N   UNL     1       2.889   2.327  20.631  0.00  0.00    +0.000 NA
ATOM      5  C   UNL     1       3.369   2.389  19.365  0.00  0.00    +0.000 A 
ATOM      6  N   UNL     1       3.923   1.426  18.652  0.00  0.00    +0.000 NA
ATOM      7  N   UNL     1       4.244   1.923  17.426  0.00  0.00    +0.000 NA
ATOM      8  C   UNL     1       3.901   3.189  17.405  0.00  0.00    +0.000 A 
ATOM      9  N   UNL     1       3.307   3.563  18.601  0.00  0.00    +0.000 N 
ATOM     10  C   UNL     1       2.703   4.736  19.128  0.00  0.00    +0.000 A 
ATOM     11  C   UNL     1       2.594   6.006  18.329  0.00  0.00    +0.000 C 
ENDROOT
BRANCH   3  12
ATOM     12  O   UNL     1       1.873   3.319  22.348  0.00  0.00    +0.000 OA
ATOM     13  H   UNL     1       0.936   3.132  22.451  0.00  0.00    +0.000 HD
ENDBRANCH   3  12
BRANCH   8  14
ATOM     14  S   UNL     1       4.195   4.185  16.020  0.00  0.00    +0.000 S 
BRANCH  14  15
ATOM     15  C   UNL     1       5.902   3.712  15.617  0.00  0.00    +0.000 C 
BRANCH  15  16
ATOM     16  C   UNL     1       6.830   4.897  15.809  0.00  0.00    +0.000 C 
ATOM     17  O   UNL     1       7.678   5.196  14.969  0.00  0.00    +0.000 OA
ATOM     18  N   UNL     1       6.691   5.575  17.005  0.00  0.00    +0.000 N 
ATOM     19  H   UNL     1       5.961   5.307  17.660  0.00  0.00    +0.000 HD
BRANCH  18  20
ATOM     20  C   UNL     1       7.550   6.694  17.312  0.00  0.00    +0.000 C 
ATOM     21  C   UNL     1       6.870   8.056  17.211  0.00  0.00    +0.000 C 
ATOM     22  C   UNL     1       7.913   8.983  17.830  0.00  0.00    +0.000 C 
ATOM     23  C   UNL     1       8.651   8.131  18.870  0.00  0.00    +0.000 C 
ATOM     24  C   UNL     1       8.074   6.720  18.742  0.00  0.00    +0.000 C 
ENDBRANCH  18  20
ENDBRANCH  15  16
ENDBRANCH  14  15
ENDBRANCH   8  14
TORSDOF 5
ENDMDL
MODEL 9
REMARK VINA RESULT:      -6.4      2.076      3.229
REMARK  Name = 
REMARK  7 active torsions:
REMARK  status: ('A' for Active; 'I' for Inactive)
REMARK    1  A    between atoms: C_1  and  C_2
REMARK    2  A    between atoms: C_3  and  O_4
REMARK    3  A    between atoms: C_9  and  S_10
REMARK    4  A    between atoms: S_10  and  C_11
REMARK    5  A    between atoms: C_11  and  C_12
REMARK    6  A    between atoms: N_14  and  C_15
REMARK    7  A    between atoms: C_21  and  C_22
REMARK                            x       y       z     vdW  Elec       q    Type
REMARK                         _______ _______ _______ _____ _____    ______ ____
ROOT
ATOM      1  C   UNL     1       0.370  10.090  19.606  0.00  0.00    +0.000 C 
ATOM      2  C   UNL     1       1.123   8.798  19.759  0.00  0.00    +0.000 A 
ATOM      3  C   UNL     1       0.903   7.859  20.901  0.00  0.00    +0.000 A 
ATOM      4  N   UNL     1       1.481   6.724  21.091  0.00  0.00    +0.000 NA
ATOM      5  C   UNL     1       2.381   6.335  20.155  0.00  0.00    +0.000 A 
ATOM      6  N   UNL     1       3.064   5.208  20.097  0.00  0.00    +0.000 NA
ATOM      7  N   UNL     1       3.841   5.228  18.979  0.00  0.00    +0.000 NA
ATOM      8  C   UNL     1       3.640   6.374  18.373  0.00  0.00    +0.000 A 
ATOM      9  N   UNL     1       2.697   7.134  19.048  0.00  0.00    +0.000 N 
ATOM     10  C   UNL     1       2.049   8.384  18.852  0.00  0.00    +0.000 A 
ATOM     11  C   UNL     1       2.342   9.257  17.661  0.00  0.00    +0.000 C 
ENDROOT
BRANCH   3  12
ATOM     12  O   UNL     1       0.013   8.228  21.833  0.00  0.00    +0.000 OA
ATOM     13  H   UNL     1       0.148   7.893  22.724  0.00  0.00    +0.000 HD
ENDBRANCH   3  12
BRANCH   8  14
ATOM     14  S   UNL     1       4.491   6.796  16.926  0.00  0.00    +0.000 S 
BRANCH  14  15
ATOM     15  C   UNL     1       6.179   6.284  17.363  0.00  0.00    +0.000 C 
BRANCH  15  16
ATOM     16  C   UNL     1       6.697   5.279  16.351  0.00  0.00    +0.000 C 
ATOM     17  O   UNL     1       7.648   4.541  16.603  0.00  0.00    +0.000 OA
ATOM     18  N   UNL     1       6.064   5.290  15.123  0.00  0.00    +0.000 N 
ATOM     19  H   UNL     1       5.268   5.902  14.966  0.00  0.00    +0.000 HD
BRANCH  18  20
ATOM     20  C   UNL     1       6.502   4.404  14.070  0.00  0.00    +0.000 C 
ATOM     21  C   UNL     1       5.371   3.817  13.231  0.00  0.00    +0.000 C 
ATOM     22  C   UNL     1       6.130   3.164  12.079  0.00  0.00    +0.000 C 
ATOM     23  C   UNL     1       7.394   4.013  11.889  0.00  0.00    +0.000 C 
ATOM     24  C   UNL     1       7.364   5.063  13.001  0.00  0.00    +0.000 C 
ENDBRANCH  18  20
ENDBRANCH  15  16
ENDBRANCH  14  15
ENDBRANCH   8  14
TORSDOF 5
ENDMDL
