MODEL 1
REMARK VINA RESULT:      -8.2      0.000      0.000
REMARK  Name = 
REMARK  6 active torsions:
REMARK  status: ('A' for Active; 'I' for Inactive)
REMARK    1  A    between atoms: C_1  and  N_2
REMARK    2  A    between atoms: N_2  and  C_3
REMARK    3  A    between atoms: C_3  and  C_4
REMARK    4  A    between atoms: C_3  and  C_5
REMARK    5  A    between atoms: C_15  and  C_16
REMARK    6  A    between atoms: N_18  and  C_19
REMARK                            x       y       z     vdW  Elec       q    Type
REMARK                         _______ _______ _______ _____ _____    ______ ____
ROOT
ATOM      1  C   UNL     1       5.865   5.215  15.702  0.00  0.00    +0.000 C 
ATOM      2  O   UNL     1       5.947   6.436  15.574  0.00  0.00    +0.000 OA
ATOM      3  N   UNL     1       5.048   4.535  16.570  0.00  0.00    +0.000 N 
ATOM      4  C   UNL     1       4.145   5.168  17.382  0.00  0.00    +0.000 A 
ATOM      5  N   UNL     1       3.763   6.434  17.418  0.00  0.00    +0.000 NA
ATOM      6  C   UNL     1       2.884   6.581  18.459  0.00  0.00    +0.000 A 
ATOM      7  C   UNL     1       2.654   5.443  19.192  0.00  0.00    +0.000 A 
ATOM      8  S   UNL     1       3.452   4.113  18.565  0.00  0.00    +0.000 S 
ATOM      9  C   UNL     1       1.915   5.664  20.451  0.00  0.00    +0.000 C 
ATOM     10  C   UNL     1       1.393   7.110  20.213  0.00  0.00    +0.000 C 
ATOM     11  C   UNL     1       2.391   7.784  19.189  0.00  0.00    +0.000 C 
ATOM     12  H   UNL     1       5.212   3.550  16.714  0.00  0.00    +0.000 HD
ENDROOT
BRANCH  11  13
ATOM     13  C   UNL     1       1.681   8.943  18.527  0.00  0.00    +0.000 C 
ATOM     14  O   UNL     1       1.901   9.138  17.324  0.00  0.00    +0.000 OA
ATOM     15  N   UNL     1       0.894   9.807  19.248  0.00  0.00    +0.000 N 
ATOM     16  H   UNL     1       0.459   9.460  20.098  0.00  0.00    +0.000 HD
BRANCH  15  17
ATOM     17  C   UNL     1       0.303  10.978  18.579  0.00  0.00    +0.000 C 
ATOM     18  C   UNL     1       0.464  12.267  19.418  0.00  0.00    +0.000 C 
ATOM     19  C   UNL     1      -0.374  12.166  20.686  0.00  0.00    +0.000 C 
ATOM     20  C   UNL     1      -1.858  12.120  20.336  0.00  0.00    +0.000 C 
ATOM     21  C   UNL     1      -2.179  11.303  19.106  0.00  0.00    +0.000 A 
ATOM     22  C   UNL     1      -3.529  11.161  18.748  0.00  0.00    +0.000 A 
ATOM     23  C   UNL     1      -3.886  10.526  17.559  0.00  0.00    +0.000 A 
ATOM     24  C   UNL     1      -2.898  10.023  16.720  0.00  0.00    +0.000 A 
ATOM     25  C   UNL     1      -1.550  10.141  17.072  0.00  0.00    +0.000 A 
ATOM     26  C   UNL     1      -1.172  10.783  18.263  0.00  0.00    +0.000 A 
ENDBRANCH  15  17
ENDBRANCH  11  13
BRANCH   1  27
ATOM     27  C   UNL     1       6.719   4.283  14.808  0.00  0.00    +0.000 C 
ATOM     28  C   UNL     1       7.549   5.139  13.852  0.00  0.00    +0.000 C 
BRANCH  27  30
ATOM     29  C   UNL     1       5.957   3.458  12.644  0.00  0.00    +0.000 C 
ATOM     30  N   UNL     1       5.832   3.322  14.098  0.00  0.00    +0.000 NA
ATOM     31  H   UNL     1       6.154   2.380  14.338  0.00  0.00    +0.000 HD
ENDBRANCH  27  30
ENDBRANCH   1  27
TORSDOF 4
ENDMDL
MODEL 2
REMARK VINA RESULT:      -8.0      1.124      1.526
REMARK  Name = 
REMARK  6 active torsions:
REMARK  status: ('A' for Active; 'I' for Inactive)
REMARK    1  A    between atoms: C_1  and  N_2
REMARK    2  A    between atoms: N_2  and  C_3
REMARK    3  A    between atoms: C_3  and  C_4
REMARK    4  A    between atoms: C_3  and  C_5
REMARK    5  A    between atoms: C_15  and  C_16
REMARK    6  A    between atoms: N_18  and  C_19
REMARK                            x       y       z     vdW  Elec       q    Type
REMARK                         _______ _______ _______ _____ _____    ______ ____
ROOT
ATOM      1  C   UNL     1       5.877   5.800  16.492  0.00  0.00    +0.000 C 
ATOM      2  O   UNL     1       5.931   7.014  16.301  0.00  0.00    +0.000 OA
ATOM      3  N   UNL     1       5.003   5.138  17.317  0.00  0.00    +0.000 N 
ATOM      4  C   UNL     1       4.006   5.779  18.004  0.00  0.00    +0.000 A 
ATOM      5  N   UNL     1       3.582   7.030  17.930  0.00  0.00    +0.000 NA
ATOM      6  C   UNL     1       2.603   7.201  18.873  0.00  0.00    +0.000 A 
ATOM      7  C   UNL     1       2.342   6.096  19.647  0.00  0.00    +0.000 A 
ATOM      8  S   UNL     1       3.238   4.766  19.176  0.00  0.00    +0.000 S 
ATOM      9  C   UNL     1       1.479   6.358  20.816  0.00  0.00    +0.000 C 
ATOM     10  C   UNL     1       0.935   7.768  20.447  0.00  0.00    +0.000 C 
ATOM     11  C   UNL     1       2.004   8.422  19.483  0.00  0.00    +0.000 C 
ATOM     12  H   UNL     1       5.185   4.169  17.533  0.00  0.00    +0.000 HD
ENDROOT
BRANCH  11  13
ATOM     13  C   UNL     1       1.323   9.515  18.692  0.00  0.00    +0.000 C 
ATOM     14  O   UNL     1       1.784   9.786  17.575  0.00  0.00    +0.000 OA
ATOM     15  N   UNL     1       0.290  10.248  19.224  0.00  0.00    +0.000 N 
ATOM     16  H   UNL     1      -0.279   9.816  19.945  0.00  0.00    +0.000 HD
BRANCH  15  17
ATOM     17  C   UNL     1      -0.275  11.367  18.452  0.00  0.00    +0.000 C 
ATOM     18  C   UNL     1      -0.131  12.715  19.197  0.00  0.00    +0.000 C 
ATOM     19  C   UNL     1      -1.005  12.711  20.445  0.00  0.00    +0.000 C 
ATOM     20  C   UNL     1      -2.479  12.644  20.057  0.00  0.00    +0.000 C 
ATOM     21  C   UNL     1      -2.770  11.739  18.883  0.00  0.00    +0.000 A 
ATOM     22  C   UNL     1      -4.110  11.575  18.497  0.00  0.00    +0.000 A 
ATOM     23  C   UNL     1      -4.437  10.854  17.350  0.00  0.00    +0.000 A 
ATOM     24  C   UNL     1      -3.427  10.286  16.579  0.00  0.00    +0.000 A 
ATOM     25  C   UNL     1      -2.090  10.426  16.960  0.00  0.00    +0.000 A 
ATOM     26  C   UNL     1      -1.742  11.154  18.110  0.00  0.00    +0.000 A 
ENDBRANCH  15  17
ENDBRANCH  11  13
BRANCH   1  27
ATOM     27  C   UNL     1       6.842   4.853  15.737  0.00  0.00    +0.000 C 
ATOM     28  C   UNL     1       6.034   4.001  14.759  0.00  0.00    +0.000 C 
BRANCH  27  30
ATOM     29  C   UNL     1       7.866   4.789  17.949  0.00  0.00    +0.000 C 
ATOM     30  N   UNL     1       7.608   4.036  16.717  0.00  0.00    +0.000 NA
ATOM     31  H   UNL     1       7.016   3.240  16.973  0.00  0.00    +0.000 HD
ENDBRANCH  27  30
ENDBRANCH   1  27
TORSDOF 4
ENDMDL
MODEL 3
REMARK VINA RESULT:      -7.8      1.061      1.194
REMARK  Name = 
REMARK  6 active torsions:
REMARK  status: ('A' for Active; 'I' for Inactive)
REMARK    1  A    between atoms: C_1  and  N_2
REMARK    2  A    between atoms: N_2  and  C_3
REMARK    3  A    between atoms: C_3  and  C_4
REMARK    4  A    between atoms: C_3  and  C_5
REMARK    5  A    between atoms: C_15  and  C_16
REMARK    6  A    between atoms: N_18  and  C_19
REMARK                            x       y       z     vdW  Elec       q    Type
REMARK                         _______ _______ _______ _____ _____    ______ ____
ROOT
ATOM      1  C   UNL     1       5.288   5.804  15.742  0.00  0.00    +0.000 C 
ATOM      2  O   UNL     1       5.361   7.013  15.522  0.00  0.00    +0.000 OA
ATOM      3  N   UNL     1       4.539   5.192  16.715  0.00  0.00    +0.000 N 
ATOM      4  C   UNL     1       3.701   5.886  17.547  0.00  0.00    +0.000 A 
ATOM      5  N   UNL     1       3.324   7.153  17.523  0.00  0.00    +0.000 NA
ATOM      6  C   UNL     1       2.528   7.379  18.615  0.00  0.00    +0.000 A 
ATOM      7  C   UNL     1       2.354   6.296  19.441  0.00  0.00    +0.000 A 
ATOM      8  S   UNL     1       3.099   4.921  18.851  0.00  0.00    +0.000 S 
ATOM      9  C   UNL     1       1.713   6.610  20.734  0.00  0.00    +0.000 C 
ATOM     10  C   UNL     1       1.176   8.038  20.436  0.00  0.00    +0.000 C 
ATOM     11  C   UNL     1       2.093   8.632  19.294  0.00  0.00    +0.000 C 
ATOM     12  H   UNL     1       4.713   4.218  16.915  0.00  0.00    +0.000 HD
ENDROOT
BRANCH  11  13
ATOM     13  C   UNL     1       1.336   9.747  18.608  0.00  0.00    +0.000 C 
ATOM     14  O   UNL     1       1.668  10.039  17.452  0.00  0.00    +0.000 OA
ATOM     15  N   UNL     1       0.377  10.475  19.270  0.00  0.00    +0.000 N 
ATOM     16  H   UNL     1      -0.110  10.031  20.043  0.00  0.00    +0.000 HD
BRANCH  15  17
ATOM     17  C   UNL     1      -0.263  11.614  18.592  0.00  0.00    +0.000 C 
ATOM     18  C   UNL     1      -0.205  12.903  19.444  0.00  0.00    +0.000 C 
ATOM     19  C   UNL     1      -1.073  12.740  20.686  0.00  0.00    +0.000 C 
ATOM     20  C   UNL     1      -2.540  12.608  20.291  0.00  0.00    +0.000 C 
ATOM     21  C   UNL     1      -2.775  11.785  19.046  0.00  0.00    +0.000 A 
ATOM     22  C   UNL     1      -4.103  11.565  18.646  0.00  0.00    +0.000 A 
ATOM     23  C   UNL     1      -4.386  10.921  17.443  0.00  0.00    +0.000 A 
ATOM     24  C   UNL     1      -3.344  10.486  16.630  0.00  0.00    +0.000 A 
ATOM     25  C   UNL     1      -2.017  10.681  17.024  0.00  0.00    +0.000 A 
ATOM     26  C   UNL     1      -1.714  11.334  18.230  0.00  0.00    +0.000 A 
ENDBRANCH  15  17
ENDBRANCH  11  13
BRANCH   1  27
ATOM     27  C   UNL     1       6.070   4.806  14.853  0.00  0.00    +0.000 C 
ATOM     28  C   UNL     1       6.041   3.428  15.513  0.00  0.00    +0.000 C 
BRANCH  27  30
ATOM     29  C   UNL     1       7.815   5.265  13.213  0.00  0.00    +0.000 C 
ATOM     30  N   UNL     1       7.453   5.311  14.633  0.00  0.00    +0.000 NA
ATOM     31  H   UNL     1       7.461   6.297  14.911  0.00  0.00    +0.000 HD
ENDBRANCH  27  30
ENDBRANCH   1  27
TORSDOF 4
ENDMDL
MODEL 4
REMARK VINA RESULT:      -7.8      4.198      8.330
REMARK  Name = 
REMARK  6 active torsions:
REMARK  status: ('A' for Active; 'I' for Inactive)
REMARK    1  A    between atoms: C_1  and  N_2
REMARK    2  A    between atoms: N_2  and  C_3
REMARK    3  A    between atoms: C_3  and  C_4
REMARK    4  A    between atoms: C_3  and  C_5
REMARK    5  A    between atoms: C_15  and  C_16
REMARK    6  A    between atoms: N_18  and  C_19
REMARK                            x       y       z     vdW  Elec       q    Type
REMARK                         _______ _______ _______ _____ _____    ______ ____
ROOT
ATOM      1  C   UNL     1      -2.378  10.556  16.826  0.00  0.00    +0.000 C 
ATOM      2  O   UNL     1      -2.059   9.368  16.818  0.00  0.00    +0.000 OA
ATOM      3  N   UNL     1      -2.236  11.436  17.870  0.00  0.00    +0.000 N 
ATOM      4  C   UNL     1      -1.636  11.089  19.051  0.00  0.00    +0.000 A 
ATOM      5  N   UNL     1      -0.976   9.993  19.388  0.00  0.00    +0.000 NA
ATOM      6  C   UNL     1      -0.628  10.099  20.709  0.00  0.00    +0.000 A 
ATOM      7  C   UNL     1      -1.059  11.243  21.335  0.00  0.00    +0.000 A 
ATOM      8  S   UNL     1      -1.839  12.285  20.284  0.00  0.00    +0.000 S 
ATOM      9  C   UNL     1      -0.905  11.233  22.803  0.00  0.00    +0.000 C 
ATOM     10  C   UNL     1       0.043  10.012  22.972  0.00  0.00    +0.000 C 
ATOM     11  C   UNL     1      -0.189   9.087  21.712  0.00  0.00    +0.000 C 
ATOM     12  H   UNL     1      -2.709  12.326  17.817  0.00  0.00    +0.000 HD
ENDROOT
BRANCH  11  13
ATOM     13  C   UNL     1       1.024   8.201  21.544  0.00  0.00    +0.000 C 
ATOM     14  O   UNL     1       2.075   8.557  22.092  0.00  0.00    +0.000 OA
ATOM     15  N   UNL     1       0.993   7.088  20.738  0.00  0.00    +0.000 N 
ATOM     16  H   UNL     1       0.098   6.632  20.590  0.00  0.00    +0.000 HD
BRANCH  15  17
ATOM     17  C   UNL     1       2.226   6.311  20.528  0.00  0.00    +0.000 C 
ATOM     18  C   UNL     1       3.068   6.868  19.357  0.00  0.00    +0.000 C 
ATOM     19  C   UNL     1       2.328   6.655  18.042  0.00  0.00    +0.000 C 
ATOM     20  C   UNL     1       2.196   5.166  17.745  0.00  0.00    +0.000 C 
ATOM     21  C   UNL     1       1.913   4.314  18.961  0.00  0.00    +0.000 A 
ATOM     22  C   UNL     1       1.719   2.937  18.767  0.00  0.00    +0.000 A 
ATOM     23  C   UNL     1       1.578   2.078  19.855  0.00  0.00    +0.000 A 
ATOM     24  C   UNL     1       1.623   2.588  21.149  0.00  0.00    +0.000 A 
ATOM     25  C   UNL     1       1.797   3.959  21.358  0.00  0.00    +0.000 A 
ATOM     26  C   UNL     1       1.948   4.838  20.272  0.00  0.00    +0.000 A 
ENDBRANCH  15  17
ENDBRANCH  11  13
BRANCH   1  27
ATOM     27  C   UNL     1      -2.983  11.205  15.557  0.00  0.00    +0.000 C 
ATOM     28  C   UNL     1      -4.457  11.514  15.814  0.00  0.00    +0.000 C 
BRANCH  27  30
ATOM     29  C   UNL     1      -4.052   9.966  13.750  0.00  0.00    +0.000 C 
ATOM     30  N   UNL     1      -2.777  10.305  14.390  0.00  0.00    +0.000 NA
ATOM     31  H   UNL     1      -2.227  10.827  13.700  0.00  0.00    +0.000 HD
ENDBRANCH  27  30
ENDBRANCH   1  27
TORSDOF 4
ENDMDL
MODEL 5
REMARK VINA RESULT:      -7.5      3.599      9.796
REMARK  Name = 
REMARK  6 active torsions:
REMARK  status: ('A' for Active; 'I' for Inactive)
REMARK    1  A    between atoms: C_1  and  N_2
REMARK    2  A    between atoms: N_2  and  C_3
REMARK    3  A    between atoms: C_3  and  C_4
REMARK    4  A    between atoms: C_3  and  C_5
REMARK    5  A    between atoms: C_15  and  C_16
REMARK    6  A    between atoms: N_18  and  C_19
REMARK                            x       y       z     vdW  Elec       q    Type
REMARK                         _______ _______ _______ _____ _____    ______ ____
ROOT
ATOM      1  C   UNL     1      -1.194  13.088  22.831  0.00  0.00    +0.000 C 
ATOM      2  O   UNL     1      -0.052  12.722  23.109  0.00  0.00    +0.000 OA
ATOM      3  N   UNL     1      -1.918  12.738  21.720  0.00  0.00    +0.000 N 
ATOM      4  C   UNL     1      -1.454  11.852  20.784  0.00  0.00    +0.000 A 
ATOM      5  N   UNL     1      -0.383  11.077  20.795  0.00  0.00    +0.000 NA
ATOM      6  C   UNL     1      -0.322  10.424  19.592  0.00  0.00    +0.000 A 
ATOM      7  C   UNL     1      -1.320  10.745  18.704  0.00  0.00    +0.000 A 
ATOM      8  S   UNL     1      -2.433  11.807  19.358  0.00  0.00    +0.000 S 
ATOM      9  C   UNL     1      -1.107  10.237  17.334  0.00  0.00    +0.000 C 
ATOM     10  C   UNL     1       0.039   9.218  17.593  0.00  0.00    +0.000 C 
ATOM     11  C   UNL     1       0.784   9.704  18.899  0.00  0.00    +0.000 C 
ATOM     12  H   UNL     1      -2.762  13.254  21.514  0.00  0.00    +0.000 HD
ENDROOT
BRANCH  11  13
ATOM     13  C   UNL     1       1.527   8.527  19.488  0.00  0.00    +0.000 C 
ATOM     14  O   UNL     1       1.597   8.453  20.722  0.00  0.00    +0.000 OA
ATOM     15  N   UNL     1       2.181   7.619  18.691  0.00  0.00    +0.000 N 
ATOM     16  H   UNL     1       1.844   7.489  17.742  0.00  0.00    +0.000 HD
BRANCH  15  17
ATOM     17  C   UNL     1       2.972   6.545  19.314  0.00  0.00    +0.000 C 
ATOM     18  C   UNL     1       4.356   6.383  18.644  0.00  0.00    +0.000 C 
ATOM     19  C   UNL     1       4.184   5.869  17.220  0.00  0.00    +0.000 C 
ATOM     20  C   UNL     1       3.599   4.462  17.234  0.00  0.00    +0.000 C 
ATOM     21  C   UNL     1       2.540   4.241  18.289  0.00  0.00    +0.000 A 
ATOM     22  C   UNL     1       1.907   2.988  18.332  0.00  0.00    +0.000 A 
ATOM     23  C   UNL     1       1.014   2.678  19.356  0.00  0.00    +0.000 A 
ATOM     24  C   UNL     1       0.739   3.619  20.343  0.00  0.00    +0.000 A 
ATOM     25  C   UNL     1       1.347   4.877  20.304  0.00  0.00    +0.000 A 
ATOM     26  C   UNL     1       2.256   5.204  19.283  0.00  0.00    +0.000 A 
ENDBRANCH  15  17
ENDBRANCH  11  13
BRANCH   1  27
ATOM     27  C   UNL     1      -1.968  14.014  23.801  0.00  0.00    +0.000 C 
ATOM     28  C   UNL     1      -3.003  14.808  23.005  0.00  0.00    +0.000 C 
BRANCH  27  30
ATOM     29  C   UNL     1      -1.710  15.836  25.400  0.00  0.00    +0.000 C 
ATOM     30  N   UNL     1      -1.008  14.887  24.530  0.00  0.00    +0.000 NA
ATOM     31  H   UNL     1      -0.451  14.280  25.139  0.00  0.00    +0.000 HD
ENDBRANCH  27  30
ENDBRANCH   1  27
TORSDOF 4
ENDMDL
MODEL 6
REMARK VINA RESULT:      -7.5      3.517      9.692
REMARK  Name = 
REMARK  6 active torsions:
REMARK  status: ('A' for Active; 'I' for Inactive)
REMARK    1  A    between atoms: C_1  and  N_2
REMARK    2  A    between atoms: N_2  and  C_3
REMARK    3  A    between atoms: C_3  and  C_4
REMARK    4  A    between atoms: C_3  and  C_5
REMARK    5  A    between atoms: C_15  and  C_16
REMARK    6  A    between atoms: N_18  and  C_19
REMARK                            x       y       z     vdW  Elec       q    Type
REMARK                         _______ _______ _______ _____ _____    ______ ____
ROOT
ATOM      1  C   UNL     1      -1.587  11.733  22.864  0.00  0.00    +0.000 C 
ATOM      2  O   UNL     1      -0.673  11.173  23.469  0.00  0.00    +0.000 OA
ATOM      3  N   UNL     1      -1.810  11.710  21.510  0.00  0.00    +0.000 N 
ATOM      4  C   UNL     1      -1.040  10.975  20.648  0.00  0.00    +0.000 A 
ATOM      5  N   UNL     1      -0.098  10.079  20.891  0.00  0.00    +0.000 NA
ATOM      6  C   UNL     1       0.422   9.675  19.689  0.00  0.00    +0.000 A 
ATOM      7  C   UNL     1      -0.114  10.295  18.586  0.00  0.00    +0.000 A 
ATOM      8  S   UNL     1      -1.354  11.343  18.987  0.00  0.00    +0.000 S 
ATOM      9  C   UNL     1       0.618  10.046  17.329  0.00  0.00    +0.000 C 
ATOM     10  C   UNL     1       1.517   8.854  17.764  0.00  0.00    +0.000 C 
ATOM     11  C   UNL     1       1.685   8.969  19.332  0.00  0.00    +0.000 C 
ATOM     12  H   UNL     1      -2.475  12.362  21.121  0.00  0.00    +0.000 HD
ENDROOT
BRANCH  11  13
ATOM     13  C   UNL     1       2.075   7.611  19.868  0.00  0.00    +0.000 C 
ATOM     14  O   UNL     1       1.702   7.318  21.012  0.00  0.00    +0.000 OA
ATOM     15  N   UNL     1       2.892   6.766  19.156  0.00  0.00    +0.000 N 
ATOM     16  H   UNL     1       2.899   6.852  18.144  0.00  0.00    +0.000 HD
BRANCH  15  17
ATOM     17  C   UNL     1       3.324   5.496  19.762  0.00  0.00    +0.000 C 
ATOM     18  C   UNL     1       4.803   5.176  19.441  0.00  0.00    +0.000 C 
ATOM     19  C   UNL     1       4.958   4.891  17.953  0.00  0.00    +0.000 C 
ATOM     20  C   UNL     1       4.202   3.621  17.576  0.00  0.00    +0.000 C 
ATOM     21  C   UNL     1       2.874   3.460  18.280  0.00  0.00    +0.000 A 
ATOM     22  C   UNL     1       2.086   2.347  17.946  0.00  0.00    +0.000 A 
ATOM     23  C   UNL     1       0.912   2.072  18.645  0.00  0.00    +0.000 A 
ATOM     24  C   UNL     1       0.510   2.910  19.680  0.00  0.00    +0.000 A 
ATOM     25  C   UNL     1       1.275   4.033  20.011  0.00  0.00    +0.000 A 
ATOM     26  C   UNL     1       2.464   4.321  19.322  0.00  0.00    +0.000 A 
ENDBRANCH  15  17
ENDBRANCH  11  13
BRANCH   1  27
ATOM     27  C   UNL     1      -2.652  12.542  23.646  0.00  0.00    +0.000 C 
ATOM     28  C   UNL     1      -3.919  12.639  22.798  0.00  0.00    +0.000 C 
BRANCH  27  30
ATOM     29  C   UNL     1      -3.051  14.642  24.818  0.00  0.00    +0.000 C 
ATOM     30  N   UNL     1      -2.098  13.874  24.010  0.00  0.00    +0.000 NA
ATOM     31  H   UNL     1      -1.275  13.708  24.597  0.00  0.00    +0.000 HD
ENDBRANCH  27  30
ENDBRANCH   1  27
TORSDOF 4
ENDMDL
MODEL 7
REMARK VINA RESULT:      -7.4      3.573      9.207
REMARK  Name = 
REMARK  6 active torsions:
REMARK  status: ('A' for Active; 'I' for Inactive)
REMARK    1  A    between atoms: C_1  and  N_2
REMARK    2  A    between atoms: N_2  and  C_3
REMARK    3  A    between atoms: C_3  and  C_4
REMARK    4  A    between atoms: C_3  and  C_5
REMARK    5  A    between atoms: C_15  and  C_16
REMARK    6  A    between atoms: N_18  and  C_19
REMARK                            x       y       z     vdW  Elec       q    Type
REMARK                         _______ _______ _______ _____ _____    ______ ____
ROOT
ATOM      1  C   UNL     1       2.268  14.280  21.315  0.00  0.00    +0.000 C 
ATOM      2  O   UNL     1       3.277  13.583  21.212  0.00  0.00    +0.000 OA
ATOM      3  N   UNL     1       1.019  13.992  20.825  0.00  0.00    +0.000 N 
ATOM      4  C   UNL     1       0.728  12.812  20.193  0.00  0.00    +0.000 A 
ATOM      5  N   UNL     1       1.451  11.714  20.053  0.00  0.00    +0.000 NA
ATOM      6  C   UNL     1       0.740  10.835  19.278  0.00  0.00    +0.000 A 
ATOM      7  C   UNL     1      -0.472  11.302  18.833  0.00  0.00    +0.000 A 
ATOM      8  S   UNL     1      -0.825  12.823  19.432  0.00  0.00    +0.000 S 
ATOM      9  C   UNL     1      -1.111  10.461  17.801  0.00  0.00    +0.000 C 
ATOM     10  C   UNL     1      -0.253   9.170  17.929  0.00  0.00    +0.000 C 
ATOM     11  C   UNL     1       1.143   9.617  18.520  0.00  0.00    +0.000 C 
ATOM     12  H   UNL     1       0.328  14.727  20.807  0.00  0.00    +0.000 HD
ENDROOT
BRANCH  11  13
ATOM     13  C   UNL     1       1.802   8.410  19.146  0.00  0.00    +0.000 C 
ATOM     14  O   UNL     1       1.791   8.328  20.382  0.00  0.00    +0.000 OA
ATOM     15  N   UNL     1       2.471   7.482  18.385  0.00  0.00    +0.000 N 
ATOM     16  H   UNL     1       2.190   7.369  17.416  0.00  0.00    +0.000 HD
BRANCH  15  17
ATOM     17  C   UNL     1       3.180   6.376  19.050  0.00  0.00    +0.000 C 
ATOM     18  C   UNL     1       4.559   6.104  18.406  0.00  0.00    +0.000 C 
ATOM     19  C   UNL     1       4.372   5.562  16.995  0.00  0.00    +0.000 C 
ATOM     20  C   UNL     1       3.694   4.197  17.038  0.00  0.00    +0.000 C 
ATOM     21  C   UNL     1       2.609   4.077  18.083  0.00  0.00    +0.000 A 
ATOM     22  C   UNL     1       1.893   2.871  18.151  0.00  0.00    +0.000 A 
ATOM     23  C   UNL     1       0.967   2.650  19.168  0.00  0.00    +0.000 A 
ATOM     24  C   UNL     1       0.743   3.635  20.125  0.00  0.00    +0.000 A 
ATOM     25  C   UNL     1       1.434   4.848  20.060  0.00  0.00    +0.000 A 
ATOM     26  C   UNL     1       2.376   5.085  19.045  0.00  0.00    +0.000 A 
ENDBRANCH  15  17
ENDBRANCH  11  13
BRANCH   1  27
ATOM     27  C   UNL     1       2.328  15.621  22.087  0.00  0.00    +0.000 C 
ATOM     28  C   UNL     1       3.691  15.739  22.768  0.00  0.00    +0.000 C 
BRANCH  27  30
ATOM     29  C   UNL     1       0.740  17.076  23.229  0.00  0.00    +0.000 C 
ATOM     30  N   UNL     1       1.195  15.694  23.049  0.00  0.00    +0.000 NA
ATOM     31  H   UNL     1       0.415  15.174  22.636  0.00  0.00    +0.000 HD
ENDBRANCH  27  30
ENDBRANCH   1  27
TORSDOF 4
ENDMDL
MODEL 8
REMARK VINA RESULT:      -7.4      1.590      2.065
REMARK  Name = 
REMARK  6 active torsions:
REMARK  status: ('A' for Active; 'I' for Inactive)
REMARK    1  A    between atoms: C_1  and  N_2
REMARK    2  A    between atoms: N_2  and  C_3
REMARK    3  A    between atoms: C_3  and  C_4
REMARK    4  A    between atoms: C_3  and  C_5
REMARK    5  A    between atoms: C_15  and  C_16
REMARK    6  A    between atoms: N_18  and  C_19
REMARK                            x       y       z     vdW  Elec       q    Type
REMARK                         _______ _______ _______ _____ _____    ______ ____
ROOT
ATOM      1  C   UNL     1       4.755   6.040  16.567  0.00  0.00    +0.000 C 
ATOM      2  O   UNL     1       4.908   7.225  16.274  0.00  0.00    +0.000 OA
ATOM      3  N   UNL     1       3.948   5.538  17.557  0.00  0.00    +0.000 N 
ATOM      4  C   UNL     1       3.137   6.333  18.322  0.00  0.00    +0.000 A 
ATOM      5  N   UNL     1       2.840   7.617  18.208  0.00  0.00    +0.000 NA
ATOM      6  C   UNL     1       2.035   7.960  19.262  0.00  0.00    +0.000 A 
ATOM      7  C   UNL     1       1.776   6.946  20.151  0.00  0.00    +0.000 A 
ATOM      8  S   UNL     1       2.447   5.493  19.667  0.00  0.00    +0.000 S 
ATOM      9  C   UNL     1       1.128   7.380  21.404  0.00  0.00    +0.000 C 
ATOM     10  C   UNL     1       0.687   8.816  21.003  0.00  0.00    +0.000 C 
ATOM     11  C   UNL     1       1.664   9.279  19.850  0.00  0.00    +0.000 C 
ATOM     12  H   UNL     1       4.056   4.570  17.822  0.00  0.00    +0.000 HD
ENDROOT
BRANCH  11  13
ATOM     13  C   UNL     1       0.994  10.391  19.077  0.00  0.00    +0.000 C 
ATOM     14  O   UNL     1       1.709  11.101  18.357  0.00  0.00    +0.000 OA
ATOM     15  N   UNL     1      -0.343  10.669  19.233  0.00  0.00    +0.000 N 
ATOM     16  H   UNL     1      -0.955   9.914  19.527  0.00  0.00    +0.000 HD
BRANCH  15  17
ATOM     17  C   UNL     1      -0.929  11.823  18.533  0.00  0.00    +0.000 C 
ATOM     18  C   UNL     1      -1.090  13.045  19.466  0.00  0.00    +0.000 C 
ATOM     19  C   UNL     1      -2.140  12.748  20.529  0.00  0.00    +0.000 C 
ATOM     20  C   UNL     1      -3.511  12.576  19.884  0.00  0.00    +0.000 C 
ATOM     21  C   UNL     1      -3.487  11.838  18.565  0.00  0.00    +0.000 A 
ATOM     22  C   UNL     1      -4.715  11.585  17.932  0.00  0.00    +0.000 A 
ATOM     23  C   UNL     1      -4.755  11.021  16.658  0.00  0.00    +0.000 A 
ATOM     24  C   UNL     1      -3.569  10.698  16.007  0.00  0.00    +0.000 A 
ATOM     25  C   UNL     1      -2.340  10.927  16.632  0.00  0.00    +0.000 A 
ATOM     26  C   UNL     1      -2.280  11.501  17.913  0.00  0.00    +0.000 A 
ENDBRANCH  15  17
ENDBRANCH  11  13
BRANCH   1  27
ATOM     27  C   UNL     1       5.493   4.941  15.763  0.00  0.00    +0.000 C 
ATOM     28  C   UNL     1       5.016   3.571  16.245  0.00  0.00    +0.000 C 
BRANCH  27  30
ATOM     29  C   UNL     1       7.448   4.563  17.169  0.00  0.00    +0.000 C 
ATOM     30  N   UNL     1       6.963   5.122  15.903  0.00  0.00    +0.000 NA
ATOM     31  H   UNL     1       7.406   4.585  15.151  0.00  0.00    +0.000 HD
ENDBRANCH  27  30
ENDBRANCH   1  27
TORSDOF 4
ENDMDL
MODEL 9
REMARK VINA RESULT:      -7.3      3.773      8.583
REMARK  Name = 
REMARK  6 active torsions:
REMARK  status: ('A' for Active; 'I' for Inactive)
REMARK    1  A    between atoms: C_1  and  N_2
REMARK    2  A    between atoms: N_2  and  C_3
REMARK    3  A    between atoms: C_3  and  C_4
REMARK    4  A    between atoms: C_3  and  C_5
REMARK    5  A    between atoms: C_15  and  C_16
REMARK    6  A    between atoms: N_18  and  C_19
REMARK                            x       y       z     vdW  Elec       q    Type
REMARK                         _______ _______ _______ _____ _____    ______ ____
ROOT
ATOM      1  C   UNL     1       3.693  14.651  18.190  0.00  0.00    +0.000 C 
ATOM      2  O   UNL     1       4.416  13.690  17.926  0.00  0.00    +0.000 OA
ATOM      3  N   UNL     1       2.355  14.610  18.492  0.00  0.00    +0.000 N 
ATOM      4  C   UNL     1       1.658  13.436  18.601  0.00  0.00    +0.000 A 
ATOM      5  N   UNL     1       2.082  12.184  18.600  0.00  0.00    +0.000 NA
ATOM      6  C   UNL     1       0.985  11.365  18.668  0.00  0.00    +0.000 A 
ATOM      7  C   UNL     1      -0.225  12.015  18.684  0.00  0.00    +0.000 A 
ATOM      8  S   UNL     1      -0.052  13.678  18.708  0.00  0.00    +0.000 S 
ATOM      9  C   UNL     1      -1.395  11.134  18.500  0.00  0.00    +0.000 C 
ATOM     10  C   UNL     1      -0.732   9.745  18.727  0.00  0.00    +0.000 C 
ATOM     11  C   UNL     1       0.799   9.916  18.373  0.00  0.00    +0.000 C 
ATOM     12  H   UNL     1       1.837  15.477  18.499  0.00  0.00    +0.000 HD
ENDROOT
BRANCH  11  13
ATOM     13  C   UNL     1       1.570   8.809  19.053  0.00  0.00    +0.000 C 
ATOM     14  O   UNL     1       1.658   8.846  20.287  0.00  0.00    +0.000 OA
ATOM     15  N   UNL     1       2.229   7.845  18.329  0.00  0.00    +0.000 N 
ATOM     16  H   UNL     1       1.881   7.625  17.400  0.00  0.00    +0.000 HD
BRANCH  15  17
ATOM     17  C   UNL     1       3.048   6.844  19.032  0.00  0.00    +0.000 C 
ATOM     18  C   UNL     1       4.420   6.636  18.350  0.00  0.00    +0.000 C 
ATOM     19  C   UNL     1       4.225   5.988  16.985  0.00  0.00    +0.000 C 
ATOM     20  C   UNL     1       3.659   4.581  17.144  0.00  0.00    +0.000 C 
ATOM     21  C   UNL     1       2.626   4.448  18.239  0.00  0.00    +0.000 A 
ATOM     22  C   UNL     1       2.012   3.198  18.414  0.00  0.00    +0.000 A 
ATOM     23  C   UNL     1       1.144   2.975  19.482  0.00  0.00    +0.000 A 
ATOM     24  C   UNL     1       0.877   4.001  20.382  0.00  0.00    +0.000 A 
ATOM     25  C   UNL     1       1.467   5.257  20.211  0.00  0.00    +0.000 A 
ATOM     26  C   UNL     1       2.349   5.497  19.144  0.00  0.00    +0.000 A 
ENDBRANCH  15  17
ENDBRANCH  11  13
BRANCH   1  27
ATOM     27  C   UNL     1       4.287  16.080  18.233  0.00  0.00    +0.000 C 
ATOM     28  C   UNL     1       5.739  15.997  18.702  0.00  0.00    +0.000 C 
BRANCH  27  30
ATOM     29  C   UNL     1       4.107  17.199  20.391  0.00  0.00    +0.000 C 
ATOM     30  N   UNL     1       3.448  16.943  19.107  0.00  0.00    +0.000 NA
ATOM     31  H   UNL     1       3.352  17.848  18.635  0.00  0.00    +0.000 HD
ENDBRANCH  27  30
ENDBRANCH   1  27
TORSDOF 4
ENDMDL
