MODEL 1
REMARK VINA RESULT:      -8.1      0.000      0.000
REMARK  Name = 
REMARK  3 active torsions:
REMARK  status: ('A' for Active; 'I' for Inactive)
REMARK    1  A    between atoms: O_1  and  C_2
REMARK    2  A    between atoms: C_5  and  N_6
REMARK    3  A    between atoms: C_11  and  C_12
REMARK                            x       y       z     vdW  Elec       q    Type
REMARK                         _______ _______ _______ _____ _____    ______ ____
ROOT
ATOM      1  N   UNL     1       2.976   6.252  19.187  0.00  0.00    +0.000 N 
ATOM      2  C   UNL     1       2.392   7.509  19.059  0.00  0.00    +0.000 A 
ATOM      3  N   UNL     1       2.491   8.163  17.891  0.00  0.00    +0.000 NA
ATOM      4  C   UNL     1       1.846   9.333  17.789  0.00  0.00    +0.000 A 
ATOM      5  C   UNL     1       1.109   9.877  18.807  0.00  0.00    +0.000 A 
ATOM      6  C   UNL     1       1.083   9.154  19.981  0.00  0.00    +0.000 A 
ATOM      7  N   UNL     1       1.734   7.984  20.126  0.00  0.00    +0.000 NA
ATOM      8  H   UNL     1       3.847   6.417  19.681  0.00  0.00    +0.000 HD
ENDROOT
BRANCH   6   9
ATOM      9  C   UNL     1       0.310   9.624  21.128  0.00  0.00    +0.000 A 
ATOM     10  C   UNL     1      -0.208   8.778  22.097  0.00  0.00    +0.000 A 
ATOM     11  N   UNL     1      -0.841   9.539  23.044  0.00  0.00    +0.000 N 
ATOM     12  C   UNL     1      -0.750  10.859  22.715  0.00  0.00    +0.000 A 
ATOM     13  N   UNL     1      -1.261  11.854  23.462  0.00  0.00    +0.000 NA
ATOM     14  C   UNL     1      -1.045  13.077  22.922  0.00  0.00    +0.000 A 
ATOM     15  C   UNL     1      -0.376  13.329  21.734  0.00  0.00    +0.000 A 
ATOM     16  C   UNL     1       0.139  12.256  21.003  0.00  0.00    +0.000 A 
ATOM     17  C   UNL     1      -0.053  10.959  21.514  0.00  0.00    +0.000 A 
ATOM     18  H   UNL     1      -1.313   9.205  23.872  0.00  0.00    +0.000 HD
ENDBRANCH   6   9
BRANCH   1  22
ATOM     19  C   UNL     1       4.474   3.005  18.909  0.00  0.00    +0.000 C 
ATOM     20  C   UNL     1       2.980   3.249  19.100  0.00  0.00    +0.000 C 
ATOM     21  C   UNL     1       2.427   4.148  17.996  0.00  0.00    +0.000 C 
ATOM     22  C   UNL     1       3.162   5.503  17.939  0.00  0.00    +0.000 C 
ATOM     23  C   UNL     1       4.665   5.248  17.730  0.00  0.00    +0.000 C 
ATOM     24  C   UNL     1       5.258   4.310  18.782  0.00  0.00    +0.000 C 
BRANCH  19  25
ATOM     25  O   UNL     1       4.991   2.264  20.008  0.00  0.00    +0.000 OA
ATOM     26  H   UNL     1       4.468   2.498  20.795  0.00  0.00    +0.000 HD
ENDBRANCH  19  25
ENDBRANCH   1  22
TORSDOF 3
ENDMDL
MODEL 2
REMARK VINA RESULT:      -7.9      2.216      3.465
REMARK  Name = 
REMARK  3 active torsions:
REMARK  status: ('A' for Active; 'I' for Inactive)
REMARK    1  A    between atoms: O_1  and  C_2
REMARK    2  A    between atoms: C_5  and  N_6
REMARK    3  A    between atoms: C_11  and  C_12
REMARK                            x       y       z     vdW  Elec       q    Type
REMARK                         _______ _______ _______ _____ _____    ______ ____
ROOT
ATOM      1  N   UNL     1       4.190   5.653  17.857  0.00  0.00    +0.000 N 
ATOM      2  C   UNL     1       3.223   5.872  18.835  0.00  0.00    +0.000 A 
ATOM      3  N   UNL     1       2.885   4.870  19.660  0.00  0.00    +0.000 NA
ATOM      4  C   UNL     1       2.010   5.150  20.636  0.00  0.00    +0.000 A 
ATOM      5  C   UNL     1       1.457   6.389  20.817  0.00  0.00    +0.000 A 
ATOM      6  C   UNL     1       1.837   7.354  19.908  0.00  0.00    +0.000 A 
ATOM      7  N   UNL     1       2.700   7.104  18.905  0.00  0.00    +0.000 NA
ATOM      8  H   UNL     1       3.666   5.506  17.001  0.00  0.00    +0.000 HD
ENDROOT
BRANCH   6   9
ATOM      9  C   UNL     1       1.329   8.720  20.016  0.00  0.00    +0.000 A 
ATOM     10  C   UNL     1       1.431   9.654  18.996  0.00  0.00    +0.000 A 
ATOM     11  N   UNL     1       0.826  10.812  19.408  0.00  0.00    +0.000 N 
ATOM     12  C   UNL     1       0.335  10.656  20.670  0.00  0.00    +0.000 A 
ATOM     13  N   UNL     1      -0.329  11.616  21.340  0.00  0.00    +0.000 NA
ATOM     14  C   UNL     1      -0.710  11.221  22.577  0.00  0.00    +0.000 A 
ATOM     15  C   UNL     1      -0.470   9.976  23.139  0.00  0.00    +0.000 A 
ATOM     16  C   UNL     1       0.219   9.016  22.394  0.00  0.00    +0.000 A 
ATOM     17  C   UNL     1       0.642   9.367  21.098  0.00  0.00    +0.000 A 
ATOM     18  H   UNL     1       0.739  11.669  18.880  0.00  0.00    +0.000 HD
ENDBRANCH   6   9
BRANCH   1  22
ATOM     19  C   UNL     1       7.083   4.877  15.884  0.00  0.00    +0.000 C 
ATOM     20  C   UNL     1       7.084   5.833  17.074  0.00  0.00    +0.000 C 
ATOM     21  C   UNL     1       6.568   5.139  18.333  0.00  0.00    +0.000 C 
ATOM     22  C   UNL     1       5.146   4.575  18.134  0.00  0.00    +0.000 C 
ATOM     23  C   UNL     1       5.158   3.601  16.943  0.00  0.00    +0.000 C 
ATOM     24  C   UNL     1       5.715   4.233  15.666  0.00  0.00    +0.000 C 
BRANCH  19  25
ATOM     25  O   UNL     1       7.455   5.573  14.700  0.00  0.00    +0.000 OA
ATOM     26  H   UNL     1       7.742   6.465  14.959  0.00  0.00    +0.000 HD
ENDBRANCH  19  25
ENDBRANCH   1  22
TORSDOF 3
ENDMDL
MODEL 3
REMARK VINA RESULT:      -7.8      0.880      1.089
REMARK  Name = 
REMARK  3 active torsions:
REMARK  status: ('A' for Active; 'I' for Inactive)
REMARK    1  A    between atoms: O_1  and  C_2
REMARK    2  A    between atoms: C_5  and  N_6
REMARK    3  A    between atoms: C_11  and  C_12
REMARK                            x       y       z     vdW  Elec       q    Type
REMARK                         _______ _______ _______ _____ _____    ______ ____
ROOT
ATOM      1  N   UNL     1       3.074   6.206  19.534  0.00  0.00    +0.000 N 
ATOM      2  C   UNL     1       2.436   7.419  19.292  0.00  0.00    +0.000 A 
ATOM      3  N   UNL     1       2.489   7.957  18.064  0.00  0.00    +0.000 NA
ATOM      4  C   UNL     1       1.793   9.083  17.859  0.00  0.00    +0.000 A 
ATOM      5  C   UNL     1       1.049   9.695  18.831  0.00  0.00    +0.000 A 
ATOM      6  C   UNL     1       1.072   9.092  20.071  0.00  0.00    +0.000 A 
ATOM      7  N   UNL     1       1.774   7.970  20.319  0.00  0.00    +0.000 NA
ATOM      8  H   UNL     1       3.945   6.455  19.992  0.00  0.00    +0.000 HD
ENDROOT
BRANCH   6   9
ATOM      9  C   UNL     1       0.296   9.643  21.181  0.00  0.00    +0.000 A 
ATOM     10  C   UNL     1      -0.281   8.860  22.170  0.00  0.00    +0.000 A 
ATOM     11  N   UNL     1      -0.899   9.687  23.070  0.00  0.00    +0.000 N 
ATOM     12  C   UNL     1      -0.742  10.987  22.692  0.00  0.00    +0.000 A 
ATOM     13  N   UNL     1      -1.224  12.034  23.387  0.00  0.00    +0.000 NA
ATOM     14  C   UNL     1      -0.941  13.222  22.803  0.00  0.00    +0.000 A 
ATOM     15  C   UNL     1      -0.236  13.396  21.622  0.00  0.00    +0.000 A 
ATOM     16  C   UNL     1       0.246  12.272  20.947  0.00  0.00    +0.000 A 
ATOM     17  C   UNL     1      -0.015  11.007  21.504  0.00  0.00    +0.000 A 
ATOM     18  H   UNL     1      -1.403   9.408  23.900  0.00  0.00    +0.000 HD
ENDBRANCH   6   9
BRANCH   1  22
ATOM     19  C   UNL     1       2.292   2.710  19.361  0.00  0.00    +0.000 C 
ATOM     20  C   UNL     1       1.328   3.827  18.972  0.00  0.00    +0.000 C 
ATOM     21  C   UNL     1       1.938   4.728  17.901  0.00  0.00    +0.000 C 
ATOM     22  C   UNL     1       3.274   5.345  18.363  0.00  0.00    +0.000 C 
ATOM     23  C   UNL     1       4.245   4.211  18.737  0.00  0.00    +0.000 C 
ATOM     24  C   UNL     1       3.661   3.249  19.772  0.00  0.00    +0.000 C 
BRANCH  19  25
ATOM     25  O   UNL     1       1.753   1.955  20.440  0.00  0.00    +0.000 OA
ATOM     26  H   UNL     1       1.511   1.078  20.097  0.00  0.00    +0.000 HD
ENDBRANCH  19  25
ENDBRANCH   1  22
TORSDOF 3
ENDMDL
MODEL 4
REMARK VINA RESULT:      -7.8      1.809      2.546
REMARK  Name = 
REMARK  3 active torsions:
REMARK  status: ('A' for Active; 'I' for Inactive)
REMARK    1  A    between atoms: O_1  and  C_2
REMARK    2  A    between atoms: C_5  and  N_6
REMARK    3  A    between atoms: C_11  and  C_12
REMARK                            x       y       z     vdW  Elec       q    Type
REMARK                         _______ _______ _______ _____ _____    ______ ____
ROOT
ATOM      1  N   UNL     1       2.637   5.812  20.065  0.00  0.00    +0.000 N 
ATOM      2  C   UNL     1       2.493   6.972  19.310  0.00  0.00    +0.000 A 
ATOM      3  N   UNL     1       2.996   7.014  18.067  0.00  0.00    +0.000 NA
ATOM      4  C   UNL     1       2.763   8.122  17.351  0.00  0.00    +0.000 A 
ATOM      5  C   UNL     1       2.050   9.190  17.827  0.00  0.00    +0.000 A 
ATOM      6  C   UNL     1       1.594   9.076  19.123  0.00  0.00    +0.000 A 
ATOM      7  N   UNL     1       1.824   7.985  19.879  0.00  0.00    +0.000 NA
ATOM      8  H   UNL     1       3.411   6.002  20.693  0.00  0.00    +0.000 HD
ENDROOT
BRANCH   6   9
ATOM      9  C   UNL     1       0.801  10.143  19.730  0.00  0.00    +0.000 A 
ATOM     10  C   UNL     1       0.500  11.332  19.082  0.00  0.00    +0.000 A 
ATOM     11  N   UNL     1      -0.283  12.091  19.910  0.00  0.00    +0.000 N 
ATOM     12  C   UNL     1      -0.497  11.428  21.082  0.00  0.00    +0.000 A 
ATOM     13  N   UNL     1      -1.245  11.912  22.091  0.00  0.00    +0.000 NA
ATOM     14  C   UNL     1      -1.302  11.070  23.149  0.00  0.00    +0.000 A 
ATOM     15  C   UNL     1      -0.678   9.834  23.234  0.00  0.00    +0.000 A 
ATOM     16  C   UNL     1       0.081   9.381  22.153  0.00  0.00    +0.000 A 
ATOM     17  C   UNL     1       0.178  10.212  21.022  0.00  0.00    +0.000 A 
ATOM     18  H   UNL     1      -0.662  13.006  19.713  0.00  0.00    +0.000 HD
ENDBRANCH   6   9
BRANCH   1  22
ATOM     19  C   UNL     1       1.526   2.558  21.089  0.00  0.00    +0.000 C 
ATOM     20  C   UNL     1       0.699   3.523  20.245  0.00  0.00    +0.000 C 
ATOM     21  C   UNL     1       1.452   3.925  18.978  0.00  0.00    +0.000 C 
ATOM     22  C   UNL     1       2.814   4.571  19.302  0.00  0.00    +0.000 C 
ATOM     23  C   UNL     1       3.648   3.585  20.139  0.00  0.00    +0.000 C 
ATOM     24  C   UNL     1       2.917   3.110  21.396  0.00  0.00    +0.000 C 
BRANCH  19  25
ATOM     25  O   UNL     1       0.859   2.289  22.316  0.00  0.00    +0.000 OA
ATOM     26  H   UNL     1       0.163   1.634  22.138  0.00  0.00    +0.000 HD
ENDBRANCH  19  25
ENDBRANCH   1  22
TORSDOF 3
ENDMDL
MODEL 5
REMARK VINA RESULT:      -7.8      6.528      7.964
REMARK  Name = 
REMARK  3 active torsions:
REMARK  status: ('A' for Active; 'I' for Inactive)
REMARK    1  A    between atoms: O_1  and  C_2
REMARK    2  A    between atoms: C_5  and  N_6
REMARK    3  A    between atoms: C_11  and  C_12
REMARK                            x       y       z     vdW  Elec       q    Type
REMARK                         _______ _______ _______ _____ _____    ______ ____
ROOT
ATOM      1  N   UNL     1       6.312   3.562  13.917  0.00  0.00    +0.000 N 
ATOM      2  C   UNL     1       5.825   4.395  14.921  0.00  0.00    +0.000 A 
ATOM      3  N   UNL     1       5.770   5.718  14.707  0.00  0.00    +0.000 NA
ATOM      4  C   UNL     1       5.219   6.470  15.670  0.00  0.00    +0.000 A 
ATOM      5  C   UNL     1       4.725   5.954  16.838  0.00  0.00    +0.000 A 
ATOM      6  C   UNL     1       4.847   4.589  16.988  0.00  0.00    +0.000 A 
ATOM      7  N   UNL     1       5.410   3.804  16.050  0.00  0.00    +0.000 NA
ATOM      8  H   UNL     1       7.268   3.357  14.189  0.00  0.00    +0.000 HD
ENDROOT
BRANCH   6   9
ATOM      9  C   UNL     1       4.334   3.923  18.184  0.00  0.00    +0.000 A 
ATOM     10  C   UNL     1       5.135   3.554  19.254  0.00  0.00    +0.000 A 
ATOM     11  N   UNL     1       4.339   2.992  20.217  0.00  0.00    +0.000 N 
ATOM     12  C   UNL     1       3.041   2.984  19.800  0.00  0.00    +0.000 A 
ATOM     13  N   UNL     1       2.020   2.510  20.538  0.00  0.00    +0.000 NA
ATOM     14  C   UNL     1       0.829   2.607  19.903  0.00  0.00    +0.000 A 
ATOM     15  C   UNL     1       0.628   3.131  18.635  0.00  0.00    +0.000 A 
ATOM     16  C   UNL     1       1.725   3.614  17.918  0.00  0.00    +0.000 A 
ATOM     17  C   UNL     1       2.992   3.541  18.525  0.00  0.00    +0.000 A 
ATOM     18  H   UNL     1       4.637   2.630  21.112  0.00  0.00    +0.000 HD
ENDBRANCH   6   9
BRANCH   1  22
ATOM     19  C   UNL     1       6.265   1.575  10.931  0.00  0.00    +0.000 C 
ATOM     20  C   UNL     1       5.018   2.002  11.700  0.00  0.00    +0.000 C 
ATOM     21  C   UNL     1       4.957   3.521  11.842  0.00  0.00    +0.000 C 
ATOM     22  C   UNL     1       6.208   4.082  12.549  0.00  0.00    +0.000 C 
ATOM     23  C   UNL     1       7.459   3.660  11.758  0.00  0.00    +0.000 C 
ATOM     24  C   UNL     1       7.542   2.148  11.544  0.00  0.00    +0.000 C 
BRANCH  19  25
ATOM     25  O   UNL     1       6.363   0.155  10.913  0.00  0.00    +0.000 OA
ATOM     26  H   UNL     1       5.770  -0.173  10.215  0.00  0.00    +0.000 HD
ENDBRANCH  19  25
ENDBRANCH   1  22
TORSDOF 3
ENDMDL
MODEL 6
REMARK VINA RESULT:      -7.7      2.103      2.522
REMARK  Name = 
REMARK  3 active torsions:
REMARK  status: ('A' for Active; 'I' for Inactive)
REMARK    1  A    between atoms: O_1  and  C_2
REMARK    2  A    between atoms: C_5  and  N_6
REMARK    3  A    between atoms: C_11  and  C_12
REMARK                            x       y       z     vdW  Elec       q    Type
REMARK                         _______ _______ _______ _____ _____    ______ ____
ROOT
ATOM      1  N   UNL     1       2.579   5.885  20.062  0.00  0.00    +0.000 N 
ATOM      2  C   UNL     1       2.371   7.079  19.378  0.00  0.00    +0.000 A 
ATOM      3  N   UNL     1       2.838   7.210  18.127  0.00  0.00    +0.000 NA
ATOM      4  C   UNL     1       2.544   8.347  17.480  0.00  0.00    +0.000 A 
ATOM      5  C   UNL     1       1.804   9.357  18.034  0.00  0.00    +0.000 A 
ATOM      6  C   UNL     1       1.387   9.152  19.332  0.00  0.00    +0.000 A 
ATOM      7  N   UNL     1       1.679   8.032  20.019  0.00  0.00    +0.000 NA
ATOM      8  H   UNL     1       3.362   6.071  20.680  0.00  0.00    +0.000 HD
ENDROOT
BRANCH   6   9
ATOM      9  C   UNL     1       0.570  10.152  20.018  0.00  0.00    +0.000 A 
ATOM     10  C   UNL     1       0.930  10.732  21.225  0.00  0.00    +0.000 A 
ATOM     11  N   UNL     1      -0.029  11.647  21.569  0.00  0.00    +0.000 N 
ATOM     12  C   UNL     1      -1.006  11.676  20.618  0.00  0.00    +0.000 A 
ATOM     13  N   UNL     1      -2.076  12.490  20.667  0.00  0.00    +0.000 NA
ATOM     14  C   UNL     1      -2.905  12.327  19.608  0.00  0.00    +0.000 A 
ATOM     15  C   UNL     1      -2.716  11.436  18.563  0.00  0.00    +0.000 A 
ATOM     16  C   UNL     1      -1.582  10.621  18.561  0.00  0.00    +0.000 A 
ATOM     17  C   UNL     1      -0.681  10.743  19.636  0.00  0.00    +0.000 A 
ATOM     18  H   UNL     1      -0.042  12.229  22.394  0.00  0.00    +0.000 HD
ENDBRANCH   6   9
BRANCH   1  22
ATOM     19  C   UNL     1       1.743   2.520  20.981  0.00  0.00    +0.000 C 
ATOM     20  C   UNL     1       0.804   3.468  20.241  0.00  0.00    +0.000 C 
ATOM     21  C   UNL     1       1.446   3.979  18.953  0.00  0.00    +0.000 C 
ATOM     22  C   UNL     1       2.784   4.697  19.225  0.00  0.00    +0.000 C 
ATOM     23  C   UNL     1       3.730   3.728  19.957  0.00  0.00    +0.000 C 
ATOM     24  C   UNL     1       3.114   3.147  21.230  0.00  0.00    +0.000 C 
BRANCH  19  25
ATOM     25  O   UNL     1       1.175   2.149  22.231  0.00  0.00    +0.000 OA
ATOM     26  H   UNL     1       0.222   2.010  22.094  0.00  0.00    +0.000 HD
ENDBRANCH  19  25
ENDBRANCH   1  22
TORSDOF 3
ENDMDL
MODEL 7
REMARK VINA RESULT:      -7.6      1.823      2.708
REMARK  Name = 
REMARK  3 active torsions:
REMARK  status: ('A' for Active; 'I' for Inactive)
REMARK    1  A    between atoms: O_1  and  C_2
REMARK    2  A    between atoms: C_5  and  N_6
REMARK    3  A    between atoms: C_11  and  C_12
REMARK                            x       y       z     vdW  Elec       q    Type
REMARK                         _______ _______ _______ _____ _____    ______ ____
ROOT
ATOM      1  N   UNL     1       3.276   5.300  19.986  0.00  0.00    +0.000 N 
ATOM      2  C   UNL     1       3.082   6.472  19.261  0.00  0.00    +0.000 A 
ATOM      3  N   UNL     1       3.730   6.640  18.098  0.00  0.00    +0.000 NA
ATOM      4  C   UNL     1       3.450   7.747  17.397  0.00  0.00    +0.000 A 
ATOM      5  C   UNL     1       2.551   8.694  17.812  0.00  0.00    +0.000 A 
ATOM      6  C   UNL     1       1.951   8.456  19.030  0.00  0.00    +0.000 A 
ATOM      7  N   UNL     1       2.221   7.364  19.771  0.00  0.00    +0.000 NA
ATOM      8  H   UNL     1       3.933   5.551  20.718  0.00  0.00    +0.000 HD
ENDROOT
BRANCH   6   9
ATOM      9  C   UNL     1       0.957   9.385  19.564  0.00  0.00    +0.000 A 
ATOM     10  C   UNL     1       0.236  10.267  18.773  0.00  0.00    +0.000 A 
ATOM     11  N   UNL     1      -0.629  10.961  19.576  0.00  0.00    +0.000 N 
ATOM     12  C   UNL     1      -0.488  10.556  20.870  0.00  0.00    +0.000 A 
ATOM     13  N   UNL     1      -1.216  11.044  21.891  0.00  0.00    +0.000 NA
ATOM     14  C   UNL     1      -0.886  10.486  23.080  0.00  0.00    +0.000 A 
ATOM     15  C   UNL     1       0.084   9.515  23.277  0.00  0.00    +0.000 A 
ATOM     16  C   UNL     1       0.804   9.042  22.177  0.00  0.00    +0.000 A 
ATOM     17  C   UNL     1       0.507   9.583  20.913  0.00  0.00    +0.000 A 
ATOM     18  H   UNL     1      -1.287  11.671  19.285  0.00  0.00    +0.000 HD
ENDBRANCH   6   9
BRANCH   1  22
ATOM     19  C   UNL     1       1.218   2.489  19.131  0.00  0.00    +0.000 C 
ATOM     20  C   UNL     1       1.385   3.731  18.259  0.00  0.00    +0.000 C 
ATOM     21  C   UNL     1       2.856   3.976  17.933  0.00  0.00    +0.000 C 
ATOM     22  C   UNL     1       3.708   4.133  19.210  0.00  0.00    +0.000 C 
ATOM     23  C   UNL     1       3.547   2.870  20.075  0.00  0.00    +0.000 C 
ATOM     24  C   UNL     1       2.084   2.550  20.389  0.00  0.00    +0.000 C 
BRANCH  19  25
ATOM     25  O   UNL     1      -0.143   2.346  19.520  0.00  0.00    +0.000 OA
ATOM     26  H   UNL     1      -0.575   3.211  19.412  0.00  0.00    +0.000 HD
ENDBRANCH  19  25
ENDBRANCH   1  22
TORSDOF 3
ENDMDL
MODEL 8
REMARK VINA RESULT:      -7.5      2.359      3.658
REMARK  Name = 
REMARK  3 active torsions:
REMARK  status: ('A' for Active; 'I' for Inactive)
REMARK    1  A    between atoms: O_1  and  C_2
REMARK    2  A    between atoms: C_5  and  N_6
REMARK    3  A    between atoms: C_11  and  C_12
REMARK                            x       y       z     vdW  Elec       q    Type
REMARK                         _______ _______ _______ _____ _____    ______ ____
ROOT
ATOM      1  N   UNL     1       4.404   5.583  17.999  0.00  0.00    +0.000 N 
ATOM      2  C   UNL     1       3.353   5.610  18.912  0.00  0.00    +0.000 A 
ATOM      3  N   UNL     1       2.893   4.456  19.419  0.00  0.00    +0.000 NA
ATOM      4  C   UNL     1       1.936   4.537  20.354  0.00  0.00    +0.000 A 
ATOM      5  C   UNL     1       1.419   5.724  20.800  0.00  0.00    +0.000 A 
ATOM      6  C   UNL     1       1.928   6.860  20.206  0.00  0.00    +0.000 A 
ATOM      7  N   UNL     1       2.876   6.816  19.251  0.00  0.00    +0.000 NA
ATOM      8  H   UNL     1       3.964   5.691  17.091  0.00  0.00    +0.000 HD
ENDROOT
BRANCH   6   9
ATOM      9  C   UNL     1       1.468   8.184  20.619  0.00  0.00    +0.000 A 
ATOM     10  C   UNL     1       1.346   8.570  21.945  0.00  0.00    +0.000 A 
ATOM     11  N   UNL     1       0.930   9.874  21.981  0.00  0.00    +0.000 N 
ATOM     12  C   UNL     1       0.776  10.347  20.711  0.00  0.00    +0.000 A 
ATOM     13  N   UNL     1       0.393  11.604  20.421  0.00  0.00    +0.000 NA
ATOM     14  C   UNL     1       0.308  11.830  19.089  0.00  0.00    +0.000 A 
ATOM     15  C   UNL     1       0.577  10.903  18.093  0.00  0.00    +0.000 A 
ATOM     16  C   UNL     1       0.978   9.614  18.454  0.00  0.00    +0.000 A 
ATOM     17  C   UNL     1       1.085   9.318  19.825  0.00  0.00    +0.000 A 
ATOM     18  H   UNL     1       0.756  10.431  22.805  0.00  0.00    +0.000 HD
ENDBRANCH   6   9
BRANCH   1  22
ATOM     19  C   UNL     1       7.051   4.819  15.703  0.00  0.00    +0.000 C 
ATOM     20  C   UNL     1       7.231   5.628  16.984  0.00  0.00    +0.000 C 
ATOM     21  C   UNL     1       6.759   4.836  18.201  0.00  0.00    +0.000 C 
ATOM     22  C   UNL     1       5.282   4.410  18.071  0.00  0.00    +0.000 C 
ATOM     23  C   UNL     1       5.113   3.581  16.785  0.00  0.00    +0.000 C 
ATOM     24  C   UNL     1       5.619   4.311  15.540  0.00  0.00    +0.000 C 
BRANCH  19  25
ATOM     25  O   UNL     1       7.385   5.616  14.572  0.00  0.00    +0.000 OA
ATOM     26  H   UNL     1       6.585   5.708  14.028  0.00  0.00    +0.000 HD
ENDBRANCH  19  25
ENDBRANCH   1  22
TORSDOF 3
ENDMDL
MODEL 9
REMARK VINA RESULT:      -7.4      0.925      1.169
REMARK  Name = 
REMARK  3 active torsions:
REMARK  status: ('A' for Active; 'I' for Inactive)
REMARK    1  A    between atoms: O_1  and  C_2
REMARK    2  A    between atoms: C_5  and  N_6
REMARK    3  A    between atoms: C_11  and  C_12
REMARK                            x       y       z     vdW  Elec       q    Type
REMARK                         _______ _______ _______ _____ _____    ______ ____
ROOT
ATOM      1  N   UNL     1       3.144   6.270  19.077  0.00  0.00    +0.000 N 
ATOM      2  C   UNL     1       2.478   7.487  18.963  0.00  0.00    +0.000 A 
ATOM      3  N   UNL     1       2.500   8.142  17.792  0.00  0.00    +0.000 NA
ATOM      4  C   UNL     1       1.779   9.268  17.707  0.00  0.00    +0.000 A 
ATOM      5  C   UNL     1       1.039   9.767  18.745  0.00  0.00    +0.000 A 
ATOM      6  C   UNL     1       1.093   9.048  19.920  0.00  0.00    +0.000 A 
ATOM      7  N   UNL     1       1.821   7.923  20.048  0.00  0.00    +0.000 NA
ATOM      8  H   UNL     1       4.016   6.493  19.546  0.00  0.00    +0.000 HD
ENDROOT
BRANCH   6   9
ATOM      9  C   UNL     1       0.325   9.473  21.088  0.00  0.00    +0.000 A 
ATOM     10  C   UNL     1      -0.136   8.595  22.058  0.00  0.00    +0.000 A 
ATOM     11  N   UNL     1      -0.781   9.318  23.026  0.00  0.00    +0.000 N 
ATOM     12  C   UNL     1      -0.754  10.644  22.710  0.00  0.00    +0.000 A 
ATOM     13  N   UNL     1      -1.292  11.608  23.479  0.00  0.00    +0.000 NA
ATOM     14  C   UNL     1      -1.141  12.845  22.948  0.00  0.00    +0.000 A 
ATOM     15  C   UNL     1      -0.508  13.138  21.750  0.00  0.00    +0.000 A 
ATOM     16  C   UNL     1       0.037  12.096  20.996  0.00  0.00    +0.000 A 
ATOM     17  C   UNL     1      -0.087  10.787  21.496  0.00  0.00    +0.000 A 
ATOM     18  H   UNL     1      -1.220   8.955  23.860  0.00  0.00    +0.000 HD
ENDBRANCH   6   9
BRANCH   1  22
ATOM     19  C   UNL     1       6.168   4.612  18.093  0.00  0.00    +0.000 C 
ATOM     20  C   UNL     1       5.034   3.945  18.867  0.00  0.00    +0.000 C 
ATOM     21  C   UNL     1       3.713   4.061  18.110  0.00  0.00    +0.000 C 
ATOM     22  C   UNL     1       3.341   5.531  17.826  0.00  0.00    +0.000 C 
ATOM     23  C   UNL     1       4.483   6.190  17.031  0.00  0.00    +0.000 C 
ATOM     24  C   UNL     1       5.840   6.058  17.724  0.00  0.00    +0.000 C 
BRANCH  19  25
ATOM     25  O   UNL     1       7.361   4.597  18.868  0.00  0.00    +0.000 OA
ATOM     26  H   UNL     1       8.012   5.165  18.421  0.00  0.00    +0.000 HD
ENDBRANCH  19  25
ENDBRANCH   1  22
TORSDOF 3
ENDMDL
