MODEL 1
REMARK VINA RESULT:      -8.6      0.000      0.000
REMARK  Name = 
REMARK  9 active torsions:
REMARK  status: ('A' for Active; 'I' for Inactive)
REMARK    1  A    between atoms: C_3  and  O_4
REMARK    2  A    between atoms: O_4  and  C_5
REMARK    3  A    between atoms: C_5  and  C_6
REMARK    4  A    between atoms: C_6  and  C_7
REMARK    5  A    between atoms: C_7  and  N_8
REMARK    6  A    between atoms: C_11  and  C_12
REMARK    7  A    between atoms: C_12  and  C_13
REMARK    8  A    between atoms: C_21  and  O_22
REMARK    9  A    between atoms: O_22  and  C_23
REMARK                            x       y       z     vdW  Elec       q    Type
REMARK                         _______ _______ _______ _____ _____    ______ ____
ROOT
ATOM      1  C   UNL     1       7.218   8.027  17.541  0.00  0.00    +0.000 C 
ENDROOT
BRANCH   1   2
ATOM      2  O   UNL     1       7.599   6.901  16.738  0.00  0.00    +0.000 OA
BRANCH   2   5
ATOM      3  C   UNL     1       5.947   3.970  15.379  0.00  0.00    +0.000 A 
ATOM      4  C   UNL     1       6.806   5.054  15.540  0.00  0.00    +0.000 A 
ATOM      5  C   UNL     1       6.718   5.855  16.680  0.00  0.00    +0.000 A 
ATOM      6  C   UNL     1       5.773   5.545  17.661  0.00  0.00    +0.000 A 
ATOM      7  C   UNL     1       4.923   4.440  17.530  0.00  0.00    +0.000 A 
ATOM      8  C   UNL     1       5.007   3.664  16.373  0.00  0.00    +0.000 A 
BRANCH   7   9
ATOM      9  O   UNL     1       4.008   4.024  18.472  0.00  0.00    +0.000 OA
BRANCH   9  10
ATOM     10  C   UNL     1       2.843   4.844  18.667  0.00  0.00    +0.000 C 
ATOM     11  C   UNL     1       1.642   4.236  17.932  0.00  0.00    +0.000 C 
ATOM     12  C   UNL     1       1.023   3.028  18.627  0.00  0.00    +0.000 C 
ATOM     13  C   UNL     1       0.719   3.291  20.096  0.00  0.00    +0.000 C 
ATOM     14  C   UNL     1       1.931   3.827  20.844  0.00  0.00    +0.000 C 
ATOM     15  C   UNL     1       2.542   5.048  20.161  0.00  0.00    +0.000 C 
ENDBRANCH   9  10
ENDBRANCH   7   9
ENDBRANCH   2   5
ENDBRANCH   1   2
BRANCH   1  16
ATOM     16  C   UNL     1       8.470   8.544  18.237  0.00  0.00    +0.000 C 
BRANCH  16  17
ATOM     17  C   UNL     1       8.588  10.070  18.209  0.00  0.00    +0.000 C 
BRANCH  17  18
ATOM     18  N   UNL     1       9.843  10.623  18.755  0.00  0.00    +0.000 NA
ATOM     19  C   UNL     1      10.463  11.586  17.824  0.00  0.00    +0.000 C 
ATOM     20  C   UNL     1      11.738  12.191  18.413  0.00  0.00    +0.000 C 
ATOM     21  C   UNL     1      11.474  12.906  19.744  0.00  0.00    +0.000 C 
ATOM     22  C   UNL     1      10.811  11.892  20.689  0.00  0.00    +0.000 C 
ATOM     23  C   UNL     1       9.571  11.240  20.067  0.00  0.00    +0.000 C 
BRANCH  21  24
ATOM     24  C   UNL     1      10.612  14.180  19.608  0.00  0.00    +0.000 C 
BRANCH  24  25
ATOM     25  C   UNL     1      11.104  15.126  18.567  0.00  0.00    +0.000 A 
ATOM     26  C   UNL     1      12.260  15.870  18.538  0.00  0.00    +0.000 A 
ATOM     27  N   UNL     1      12.214  16.565  17.359  0.00  0.00    +0.000 N 
ATOM     28  C   UNL     1      11.050  16.226  16.730  0.00  0.00    +0.000 A 
ATOM     29  N   UNL     1      10.353  15.369  17.438  0.00  0.00    +0.000 NA
ATOM     30  H   UNL     1      12.907  17.208  17.009  0.00  0.00    +0.000 HD
ENDBRANCH  24  25
ENDBRANCH  21  24
ENDBRANCH  17  18
ENDBRANCH  16  17
ENDBRANCH   1  16
TORSDOF 9
ENDMDL
MODEL 2
REMARK VINA RESULT:      -8.2      1.241      1.532
REMARK  Name = 
REMARK  9 active torsions:
REMARK  status: ('A' for Active; 'I' for Inactive)
REMARK    1  A    between atoms: C_3  and  O_4
REMARK    2  A    between atoms: O_4  and  C_5
REMARK    3  A    between atoms: C_5  and  C_6
REMARK    4  A    between atoms: C_6  and  C_7
REMARK    5  A    between atoms: C_7  and  N_8
REMARK    6  A    between atoms: C_11  and  C_12
REMARK    7  A    between atoms: C_12  and  C_13
REMARK    8  A    between atoms: C_21  and  O_22
REMARK    9  A    between atoms: O_22  and  C_23
REMARK                            x       y       z     vdW  Elec       q    Type
REMARK                         _______ _______ _______ _____ _____    ______ ____
ROOT
ATOM      1  C   UNL     1       7.896   7.697  18.037  0.00  0.00    +0.000 C 
ENDROOT
BRANCH   1   2
ATOM      2  O   UNL     1       7.726   6.959  16.819  0.00  0.00    +0.000 OA
BRANCH   2   5
ATOM      3  C   UNL     1       5.814   4.139  15.570  0.00  0.00    +0.000 A 
ATOM      4  C   UNL     1       6.727   5.187  15.664  0.00  0.00    +0.000 A 
ATOM      5  C   UNL     1       6.804   5.947  16.832  0.00  0.00    +0.000 A 
ATOM      6  C   UNL     1       5.970   5.633  17.907  0.00  0.00    +0.000 A 
ATOM      7  C   UNL     1       5.070   4.562  17.842  0.00  0.00    +0.000 A 
ATOM      8  C   UNL     1       4.987   3.829  16.658  0.00  0.00    +0.000 A 
BRANCH   7   9
ATOM      9  O   UNL     1       4.257   4.142  18.872  0.00  0.00    +0.000 OA
BRANCH   9  10
ATOM     10  C   UNL     1       3.054   4.895  19.112  0.00  0.00    +0.000 C 
ATOM     11  C   UNL     1       1.987   4.526  18.073  0.00  0.00    +0.000 C 
ATOM     12  C   UNL     1       1.308   3.183  18.316  0.00  0.00    +0.000 C 
ATOM     13  C   UNL     1       0.790   3.040  19.742  0.00  0.00    +0.000 C 
ATOM     14  C   UNL     1       1.868   3.335  20.775  0.00  0.00    +0.000 C 
ATOM     15  C   UNL     1       2.538   4.687  20.545  0.00  0.00    +0.000 C 
ENDBRANCH   9  10
ENDBRANCH   7   9
ENDBRANCH   2   5
ENDBRANCH   1   2
BRANCH   1  16
ATOM     16  C   UNL     1       8.179   9.147  17.665  0.00  0.00    +0.000 C 
BRANCH  16  17
ATOM     17  C   UNL     1       8.879   9.928  18.780  0.00  0.00    +0.000 C 
BRANCH  17  18
ATOM     18  N   UNL     1       9.848  10.948  18.332  0.00  0.00    +0.000 NA
ATOM     19  C   UNL     1       9.172  12.122  17.747  0.00  0.00    +0.000 C 
ATOM     20  C   UNL     1      10.177  13.195  17.327  0.00  0.00    +0.000 C 
ATOM     21  C   UNL     1      11.037  13.669  18.505  0.00  0.00    +0.000 C 
ATOM     22  C   UNL     1      11.715  12.430  19.111  0.00  0.00    +0.000 C 
ATOM     23  C   UNL     1      10.707  11.332  19.468  0.00  0.00    +0.000 C 
BRANCH  21  24
ATOM     24  C   UNL     1      10.248  14.448  19.580  0.00  0.00    +0.000 C 
BRANCH  24  25
ATOM     25  C   UNL     1       9.489  15.611  19.039  0.00  0.00    +0.000 A 
ATOM     26  C   UNL     1       8.131  15.833  19.016  0.00  0.00    +0.000 A 
ATOM     27  N   UNL     1       7.974  17.049  18.406  0.00  0.00    +0.000 N 
ATOM     28  C   UNL     1       9.219  17.509  18.085  0.00  0.00    +0.000 A 
ATOM     29  N   UNL     1      10.152  16.659  18.442  0.00  0.00    +0.000 NA
ATOM     30  H   UNL     1       7.105  17.527  18.227  0.00  0.00    +0.000 HD
ENDBRANCH  24  25
ENDBRANCH  21  24
ENDBRANCH  17  18
ENDBRANCH  16  17
ENDBRANCH   1  16
TORSDOF 9
ENDMDL
MODEL 3
REMARK VINA RESULT:      -8.1      0.839      1.073
REMARK  Name = 
REMARK  9 active torsions:
REMARK  status: ('A' for Active; 'I' for Inactive)
REMARK    1  A    between atoms: C_3  and  O_4
REMARK    2  A    between atoms: O_4  and  C_5
REMARK    3  A    between atoms: C_5  and  C_6
REMARK    4  A    between atoms: C_6  and  C_7
REMARK    5  A    between atoms: C_7  and  N_8
REMARK    6  A    between atoms: C_11  and  C_12
REMARK    7  A    between atoms: C_12  and  C_13
REMARK    8  A    between atoms: C_21  and  O_22
REMARK    9  A    between atoms: O_22  and  C_23
REMARK                            x       y       z     vdW  Elec       q    Type
REMARK                         _______ _______ _______ _____ _____    ______ ____
ROOT
ATOM      1  C   UNL     1       7.372   7.925  17.644  0.00  0.00    +0.000 C 
ENDROOT
BRANCH   1   2
ATOM      2  O   UNL     1       7.791   6.888  16.746  0.00  0.00    +0.000 OA
BRANCH   2   5
ATOM      3  C   UNL     1       6.169   4.151  15.000  0.00  0.00    +0.000 A 
ATOM      4  C   UNL     1       7.020   5.209  15.310  0.00  0.00    +0.000 A 
ATOM      5  C   UNL     1       6.916   5.854  16.543  0.00  0.00    +0.000 A 
ATOM      6  C   UNL     1       5.965   5.414  17.466  0.00  0.00    +0.000 A 
ATOM      7  C   UNL     1       5.123   4.331  17.184  0.00  0.00    +0.000 A 
ATOM      8  C   UNL     1       5.222   3.714  15.936  0.00  0.00    +0.000 A 
BRANCH   7   9
ATOM      9  O   UNL     1       4.203   3.790  18.055  0.00  0.00    +0.000 OA
BRANCH   9  10
ATOM     10  C   UNL     1       2.832   3.740  17.619  0.00  0.00    +0.000 C 
ATOM     11  C   UNL     1       2.238   2.356  17.911  0.00  0.00    +0.000 C 
ATOM     12  C   UNL     1       1.879   2.120  19.374  0.00  0.00    +0.000 C 
ATOM     13  C   UNL     1       1.027   3.242  19.955  0.00  0.00    +0.000 C 
ATOM     14  C   UNL     1       1.652   4.611  19.729  0.00  0.00    +0.000 C 
ATOM     15  C   UNL     1       1.996   4.858  18.262  0.00  0.00    +0.000 C 
ENDBRANCH   9  10
ENDBRANCH   7   9
ENDBRANCH   2   5
ENDBRANCH   1   2
BRANCH   1  16
ATOM     16  C   UNL     1       8.400   9.046  17.568  0.00  0.00    +0.000 C 
BRANCH  16  17
ATOM     17  C   UNL     1       8.656   9.720  18.918  0.00  0.00    +0.000 C 
BRANCH  17  18
ATOM     18  N   UNL     1       9.909  10.493  19.017  0.00  0.00    +0.000 NA
ATOM     19  C   UNL     1      10.115  11.351  17.835  0.00  0.00    +0.000 C 
ATOM     20  C   UNL     1      11.390  12.185  17.963  0.00  0.00    +0.000 C 
ATOM     21  C   UNL     1      11.371  13.077  19.210  0.00  0.00    +0.000 C 
ATOM     22  C   UNL     1      11.136  12.167  20.426  0.00  0.00    +0.000 C 
ATOM     23  C   UNL     1       9.893  11.286  20.262  0.00  0.00    +0.000 C 
BRANCH  21  24
ATOM     24  C   UNL     1      10.320  14.206  19.154  0.00  0.00    +0.000 C 
BRANCH  24  25
ATOM     25  C   UNL     1      10.767  15.403  18.387  0.00  0.00    +0.000 A 
ATOM     26  C   UNL     1      10.575  15.712  17.060  0.00  0.00    +0.000 A 
ATOM     27  N   UNL     1      11.191  16.922  16.879  0.00  0.00    +0.000 N 
ATOM     28  C   UNL     1      11.726  17.292  18.079  0.00  0.00    +0.000 A 
ATOM     29  N   UNL     1      11.498  16.392  19.005  0.00  0.00    +0.000 NA
ATOM     30  H   UNL     1      11.242  17.452  16.022  0.00  0.00    +0.000 HD
ENDBRANCH  24  25
ENDBRANCH  21  24
ENDBRANCH  17  18
ENDBRANCH  16  17
ENDBRANCH   1  16
TORSDOF 9
ENDMDL
MODEL 4
REMARK VINA RESULT:      -7.8      1.028      1.439
REMARK  Name = 
REMARK  9 active torsions:
REMARK  status: ('A' for Active; 'I' for Inactive)
REMARK    1  A    between atoms: C_3  and  O_4
REMARK    2  A    between atoms: O_4  and  C_5
REMARK    3  A    between atoms: C_5  and  C_6
REMARK    4  A    between atoms: C_6  and  C_7
REMARK    5  A    between atoms: C_7  and  N_8
REMARK    6  A    between atoms: C_11  and  C_12
REMARK    7  A    between atoms: C_12  and  C_13
REMARK    8  A    between atoms: C_21  and  O_22
REMARK    9  A    between atoms: O_22  and  C_23
REMARK                            x       y       z     vdW  Elec       q    Type
REMARK                         _______ _______ _______ _____ _____    ______ ____
ROOT
ATOM      1  C   UNL     1       7.428   7.986  18.039  0.00  0.00    +0.000 C 
ENDROOT
BRANCH   1   2
ATOM      2  O   UNL     1       7.115   7.523  16.718  0.00  0.00    +0.000 OA
BRANCH   2   5
ATOM      3  C   UNL     1       6.356   4.130  15.678  0.00  0.00    +0.000 A 
ATOM      4  C   UNL     1       6.998   5.354  15.848  0.00  0.00    +0.000 A 
ATOM      5  C   UNL     1       6.408   6.354  16.623  0.00  0.00    +0.000 A 
ATOM      6  C   UNL     1       5.180   6.104  17.239  0.00  0.00    +0.000 A 
ATOM      7  C   UNL     1       4.537   4.868  17.106  0.00  0.00    +0.000 A 
ATOM      8  C   UNL     1       5.127   3.889  16.307  0.00  0.00    +0.000 A 
BRANCH   7   9
ATOM      9  O   UNL     1       3.359   4.513  17.727  0.00  0.00    +0.000 OA
BRANCH   9  10
ATOM     10  C   UNL     1       3.391   3.369  18.599  0.00  0.00    +0.000 C 
ATOM     11  C   UNL     1       3.527   3.823  20.058  0.00  0.00    +0.000 C 
ATOM     12  C   UNL     1       2.243   4.370  20.671  0.00  0.00    +0.000 C 
ATOM     13  C   UNL     1       1.056   3.436  20.471  0.00  0.00    +0.000 C 
ATOM     14  C   UNL     1       0.876   3.043  19.013  0.00  0.00    +0.000 C 
ATOM     15  C   UNL     1       2.155   2.476  18.401  0.00  0.00    +0.000 C 
ENDBRANCH   9  10
ENDBRANCH   7   9
ENDBRANCH   2   5
ENDBRANCH   1   2
BRANCH   1  16
ATOM     16  C   UNL     1       8.542   9.017  17.917  0.00  0.00    +0.000 C 
BRANCH  16  17
ATOM     17  C   UNL     1       8.865   9.714  19.240  0.00  0.00    +0.000 C 
BRANCH  17  18
ATOM     18  N   UNL     1       9.976  10.686  19.194  0.00  0.00    +0.000 NA
ATOM     19  C   UNL     1      10.051  11.365  17.887  0.00  0.00    +0.000 C 
ATOM     20  C   UNL     1      11.173  12.403  17.860  0.00  0.00    +0.000 C 
ATOM     21  C   UNL     1      10.997  13.469  18.949  0.00  0.00    +0.000 C 
ATOM     22  C   UNL     1      10.901  12.740  20.297  0.00  0.00    +0.000 C 
ATOM     23  C   UNL     1       9.818  11.654  20.296  0.00  0.00    +0.000 C 
BRANCH  21  24
ATOM     24  C   UNL     1       9.777  14.389  18.729  0.00  0.00    +0.000 C 
BRANCH  24  25
ATOM     25  C   UNL     1      10.113  15.682  18.069  0.00  0.00    +0.000 A 
ATOM     26  C   UNL     1      11.082  15.959  17.132  0.00  0.00    +0.000 A 
ATOM     27  N   UNL     1      10.958  17.297  16.869  0.00  0.00    +0.000 N 
ATOM     28  C   UNL     1       9.940  17.774  17.644  0.00  0.00    +0.000 A 
ATOM     29  N   UNL     1       9.418  16.828  18.387  0.00  0.00    +0.000 NA
ATOM     30  H   UNL     1      11.509  17.839  16.221  0.00  0.00    +0.000 HD
ENDBRANCH  24  25
ENDBRANCH  21  24
ENDBRANCH  17  18
ENDBRANCH  16  17
ENDBRANCH   1  16
TORSDOF 9
ENDMDL
MODEL 5
REMARK VINA RESULT:      -7.8      0.960      1.370
REMARK  Name = 
REMARK  9 active torsions:
REMARK  status: ('A' for Active; 'I' for Inactive)
REMARK    1  A    between atoms: C_3  and  O_4
REMARK    2  A    between atoms: O_4  and  C_5
REMARK    3  A    between atoms: C_5  and  C_6
REMARK    4  A    between atoms: C_6  and  C_7
REMARK    5  A    between atoms: C_7  and  N_8
REMARK    6  A    between atoms: C_11  and  C_12
REMARK    7  A    between atoms: C_12  and  C_13
REMARK    8  A    between atoms: C_21  and  O_22
REMARK    9  A    between atoms: O_22  and  C_23
REMARK                            x       y       z     vdW  Elec       q    Type
REMARK                         _______ _______ _______ _____ _____    ______ ____
ROOT
ATOM      1  C   UNL     1       7.869   7.834  17.926  0.00  0.00    +0.000 C 
ENDROOT
BRANCH   1   2
ATOM      2  O   UNL     1       7.217   7.476  16.699  0.00  0.00    +0.000 OA
BRANCH   2   5
ATOM      3  C   UNL     1       6.227   4.157  15.617  0.00  0.00    +0.000 A 
ATOM      4  C   UNL     1       6.888   5.378  15.716  0.00  0.00    +0.000 A 
ATOM      5  C   UNL     1       6.512   6.302  16.692  0.00  0.00    +0.000 A 
ATOM      6  C   UNL     1       5.480   5.979  17.576  0.00  0.00    +0.000 A 
ATOM      7  C   UNL     1       4.827   4.743  17.512  0.00  0.00    +0.000 A 
ATOM      8  C   UNL     1       5.197   3.841  16.514  0.00  0.00    +0.000 A 
BRANCH   7   9
ATOM      9  O   UNL     1       3.845   4.316  18.379  0.00  0.00    +0.000 OA
BRANCH   9  10
ATOM     10  C   UNL     1       2.523   4.852  18.195  0.00  0.00    +0.000 C 
ATOM     11  C   UNL     1       1.500   3.711  18.109  0.00  0.00    +0.000 C 
ATOM     12  C   UNL     1       1.155   3.070  19.449  0.00  0.00    +0.000 C 
ATOM     13  C   UNL     1       0.776   4.098  20.507  0.00  0.00    +0.000 C 
ATOM     14  C   UNL     1       1.825   5.191  20.645  0.00  0.00    +0.000 C 
ATOM     15  C   UNL     1       2.159   5.848  19.307  0.00  0.00    +0.000 C 
ENDBRANCH   9  10
ENDBRANCH   7   9
ENDBRANCH   2   5
ENDBRANCH   1   2
BRANCH   1  16
ATOM     16  C   UNL     1       8.166   9.327  17.874  0.00  0.00    +0.000 C 
BRANCH  16  17
ATOM     17  C   UNL     1       9.234   9.763  18.880  0.00  0.00    +0.000 C 
BRANCH  17  18
ATOM     18  N   UNL     1       9.041  11.100  19.475  0.00  0.00    +0.000 NA
ATOM     19  C   UNL     1       9.925  11.312  20.637  0.00  0.00    +0.000 C 
ATOM     20  C   UNL     1       9.755  12.715  21.221  0.00  0.00    +0.000 C 
ATOM     21  C   UNL     1      10.046  13.808  20.186  0.00  0.00    +0.000 C 
ATOM     22  C   UNL     1       9.130  13.557  18.978  0.00  0.00    +0.000 C 
ATOM     23  C   UNL     1       9.257  12.128  18.438  0.00  0.00    +0.000 C 
BRANCH  21  24
ATOM     24  C   UNL     1      11.526  13.878  19.751  0.00  0.00    +0.000 C 
BRANCH  24  25
ATOM     25  C   UNL     1      11.802  14.928  18.731  0.00  0.00    +0.000 A 
ATOM     26  C   UNL     1      11.747  16.298  18.850  0.00  0.00    +0.000 A 
ATOM     27  N   UNL     1      12.091  16.782  17.616  0.00  0.00    +0.000 N 
ATOM     28  C   UNL     1      12.333  15.707  16.808  0.00  0.00    +0.000 A 
ATOM     29  N   UNL     1      12.156  14.576  17.448  0.00  0.00    +0.000 NA
ATOM     30  H   UNL     1      12.160  17.750  17.344  0.00  0.00    +0.000 HD
ENDBRANCH  24  25
ENDBRANCH  21  24
ENDBRANCH  17  18
ENDBRANCH  16  17
ENDBRANCH   1  16
TORSDOF 9
ENDMDL
MODEL 6
REMARK VINA RESULT:      -7.7      1.011      1.110
REMARK  Name = 
REMARK  9 active torsions:
REMARK  status: ('A' for Active; 'I' for Inactive)
REMARK    1  A    between atoms: C_3  and  O_4
REMARK    2  A    between atoms: O_4  and  C_5
REMARK    3  A    between atoms: C_5  and  C_6
REMARK    4  A    between atoms: C_6  and  C_7
REMARK    5  A    between atoms: C_7  and  N_8
REMARK    6  A    between atoms: C_11  and  C_12
REMARK    7  A    between atoms: C_12  and  C_13
REMARK    8  A    between atoms: C_21  and  O_22
REMARK    9  A    between atoms: O_22  and  C_23
REMARK                            x       y       z     vdW  Elec       q    Type
REMARK                         _______ _______ _______ _____ _____    ______ ____
ROOT
ATOM      1  C   UNL     1       7.849   8.251  17.269  0.00  0.00    +0.000 C 
ENDROOT
BRANCH   1   2
ATOM      2  O   UNL     1       7.807   7.249  18.295  0.00  0.00    +0.000 OA
BRANCH   2   5
ATOM      3  C   UNL     1       6.370   4.412  16.548  0.00  0.00    +0.000 A 
ATOM      4  C   UNL     1       7.166   5.508  16.869  0.00  0.00    +0.000 A 
ATOM      5  C   UNL     1       6.982   6.178  18.080  0.00  0.00    +0.000 A 
ATOM      6  C   UNL     1       6.006   5.723  18.970  0.00  0.00    +0.000 A 
ATOM      7  C   UNL     1       5.219   4.602  18.678  0.00  0.00    +0.000 A 
ATOM      8  C   UNL     1       5.398   3.960  17.452  0.00  0.00    +0.000 A 
BRANCH   7   9
ATOM      9  O   UNL     1       4.281   4.047  19.520  0.00  0.00    +0.000 OA
BRANCH   9  10
ATOM     10  C   UNL     1       3.100   4.822  19.794  0.00  0.00    +0.000 C 
ATOM     11  C   UNL     1       2.188   4.844  18.560  0.00  0.00    +0.000 C 
ATOM     12  C   UNL     1       1.404   3.556  18.332  0.00  0.00    +0.000 C 
ATOM     13  C   UNL     1       0.664   3.094  19.581  0.00  0.00    +0.000 C 
ATOM     14  C   UNL     1       1.583   3.002  20.790  0.00  0.00    +0.000 C 
ATOM     15  C   UNL     1       2.356   4.296  21.032  0.00  0.00    +0.000 C 
ENDBRANCH   9  10
ENDBRANCH   7   9
ENDBRANCH   2   5
ENDBRANCH   1   2
BRANCH   1  16
ATOM     16  C   UNL     1       8.097   9.593  17.943  0.00  0.00    +0.000 C 
BRANCH  16  17
ATOM     17  C   UNL     1       8.996   9.490  19.177  0.00  0.00    +0.000 C 
BRANCH  17  18
ATOM     18  N   UNL     1      10.085  10.484  19.258  0.00  0.00    +0.000 NA
ATOM     19  C   UNL     1      10.285  11.177  17.971  0.00  0.00    +0.000 C 
ATOM     20  C   UNL     1      11.383  12.238  18.072  0.00  0.00    +0.000 C 
ATOM     21  C   UNL     1      11.070  13.289  19.145  0.00  0.00    +0.000 C 
ATOM     22  C   UNL     1      10.845  12.544  20.469  0.00  0.00    +0.000 C 
ATOM     23  C   UNL     1       9.791  11.438  20.344  0.00  0.00    +0.000 C 
BRANCH  21  24
ATOM     24  C   UNL     1       9.861  14.187  18.804  0.00  0.00    +0.000 C 
BRANCH  24  25
ATOM     25  C   UNL     1      10.238  15.481  18.169  0.00  0.00    +0.000 A 
ATOM     26  C   UNL     1      11.470  15.919  17.740  0.00  0.00    +0.000 A 
ATOM     27  N   UNL     1      11.253  17.175  17.239  0.00  0.00    +0.000 N 
ATOM     28  C   UNL     1       9.922  17.448  17.382  0.00  0.00    +0.000 A 
ATOM     29  N   UNL     1       9.286  16.452  17.951  0.00  0.00    +0.000 NA
ATOM     30  H   UNL     1      11.940  17.790  16.832  0.00  0.00    +0.000 HD
ENDBRANCH  24  25
ENDBRANCH  21  24
ENDBRANCH  17  18
ENDBRANCH  16  17
ENDBRANCH   1  16
TORSDOF 9
ENDMDL
MODEL 7
REMARK VINA RESULT:      -7.6      6.385      9.698
REMARK  Name = 
REMARK  9 active torsions:
REMARK  status: ('A' for Active; 'I' for Inactive)
REMARK    1  A    between atoms: C_3  and  O_4
REMARK    2  A    between atoms: O_4  and  C_5
REMARK    3  A    between atoms: C_5  and  C_6
REMARK    4  A    between atoms: C_6  and  C_7
REMARK    5  A    between atoms: C_7  and  N_8
REMARK    6  A    between atoms: C_11  and  C_12
REMARK    7  A    between atoms: C_12  and  C_13
REMARK    8  A    between atoms: C_21  and  O_22
REMARK    9  A    between atoms: O_22  and  C_23
REMARK                            x       y       z     vdW  Elec       q    Type
REMARK                         _______ _______ _______ _____ _____    ______ ____
ROOT
ATOM      1  C   UNL     1       2.050   5.113  21.069  0.00  0.00    +0.000 C 
ENDROOT
BRANCH   1   2
ATOM      2  O   UNL     1       2.897   5.774  20.118  0.00  0.00    +0.000 OA
BRANCH   2   5
ATOM      3  C   UNL     1       2.338   8.347  17.622  0.00  0.00    +0.000 A 
ATOM      4  C   UNL     1       2.750   7.175  18.250  0.00  0.00    +0.000 A 
ATOM      5  C   UNL     1       2.436   6.951  19.591  0.00  0.00    +0.000 A 
ATOM      6  C   UNL     1       1.690   7.905  20.287  0.00  0.00    +0.000 A 
ATOM      7  C   UNL     1       1.239   9.073  19.661  0.00  0.00    +0.000 A 
ATOM      8  C   UNL     1       1.583   9.294  18.327  0.00  0.00    +0.000 A 
BRANCH   7   9
ATOM      9  O   UNL     1       0.447  10.036  20.249  0.00  0.00    +0.000 OA
BRANCH   9  10
ATOM     10  C   UNL     1       0.536  11.373  19.726  0.00  0.00    +0.000 C 
ATOM     11  C   UNL     1      -0.782  11.758  19.041  0.00  0.00    +0.000 C 
ATOM     12  C   UNL     1      -1.913  12.108  20.002  0.00  0.00    +0.000 C 
ATOM     13  C   UNL     1      -1.494  13.131  21.049  0.00  0.00    +0.000 C 
ATOM     14  C   UNL     1      -0.226  12.715  21.781  0.00  0.00    +0.000 C 
ATOM     15  C   UNL     1       0.915  12.382  20.823  0.00  0.00    +0.000 C 
ENDBRANCH   9  10
ENDBRANCH   7   9
ENDBRANCH   2   5
ENDBRANCH   1   2
BRANCH   1  16
ATOM     16  C   UNL     1       0.820   4.613  20.325  0.00  0.00    +0.000 C 
BRANCH  16  17
ATOM     17  C   UNL     1       0.833   3.101  20.087  0.00  0.00    +0.000 C 
BRANCH  17  18
ATOM     18  N   UNL     1       1.663   2.641  18.955  0.00  0.00    +0.000 NA
ATOM     19  C   UNL     1       1.817   3.692  17.931  0.00  0.00    +0.000 C 
ATOM     20  C   UNL     1       2.714   3.227  16.783  0.00  0.00    +0.000 C 
ATOM     21  C   UNL     1       4.110   2.821  17.273  0.00  0.00    +0.000 C 
ATOM     22  C   UNL     1       3.925   1.743  18.352  0.00  0.00    +0.000 C 
ATOM     23  C   UNL     1       2.971   2.190  19.466  0.00  0.00    +0.000 C 
BRANCH  21  24
ATOM     24  C   UNL     1       4.951   4.000  17.809  0.00  0.00    +0.000 C 
BRANCH  24  25
ATOM     25  C   UNL     1       5.894   4.567  16.805  0.00  0.00    +0.000 A 
ATOM     26  C   UNL     1       6.660   5.709  16.873  0.00  0.00    +0.000 A 
ATOM     27  N   UNL     1       7.338   5.760  15.684  0.00  0.00    +0.000 N 
ATOM     28  C   UNL     1       6.963   4.669  14.952  0.00  0.00    +0.000 A 
ATOM     29  N   UNL     1       6.084   3.938  15.595  0.00  0.00    +0.000 NA
ATOM     30  H   UNL     1       7.998   6.465  15.395  0.00  0.00    +0.000 HD
ENDBRANCH  24  25
ENDBRANCH  21  24
ENDBRANCH  17  18
ENDBRANCH  16  17
ENDBRANCH   1  16
TORSDOF 9
ENDMDL
MODEL 8
REMARK VINA RESULT:      -7.6      1.154      1.609
REMARK  Name = 
REMARK  9 active torsions:
REMARK  status: ('A' for Active; 'I' for Inactive)
REMARK    1  A    between atoms: C_3  and  O_4
REMARK    2  A    between atoms: O_4  and  C_5
REMARK    3  A    between atoms: C_5  and  C_6
REMARK    4  A    between atoms: C_6  and  C_7
REMARK    5  A    between atoms: C_7  and  N_8
REMARK    6  A    between atoms: C_11  and  C_12
REMARK    7  A    between atoms: C_12  and  C_13
REMARK    8  A    between atoms: C_21  and  O_22
REMARK    9  A    between atoms: O_22  and  C_23
REMARK                            x       y       z     vdW  Elec       q    Type
REMARK                         _______ _______ _______ _____ _____    ______ ____
ROOT
ATOM      1  C   UNL     1       7.876   8.451  17.755  0.00  0.00    +0.000 C 
ENDROOT
BRANCH   1   2
ATOM      2  O   UNL     1       8.065   7.076  18.117  0.00  0.00    +0.000 OA
BRANCH   2   5
ATOM      3  C   UNL     1       6.218   4.705  16.083  0.00  0.00    +0.000 A 
ATOM      4  C   UNL     1       7.188   5.600  16.527  0.00  0.00    +0.000 A 
ATOM      5  C   UNL     1       7.065   6.204  17.780  0.00  0.00    +0.000 A 
ATOM      6  C   UNL     1       5.969   5.885  18.586  0.00  0.00    +0.000 A 
ATOM      7  C   UNL     1       5.002   4.963  18.169  0.00  0.00    +0.000 A 
ATOM      8  C   UNL     1       5.127   4.388  16.904  0.00  0.00    +0.000 A 
BRANCH   7   9
ATOM      9  O   UNL     1       3.927   4.543  18.921  0.00  0.00    +0.000 OA
BRANCH   9  10
ATOM     10  C   UNL     1       3.604   3.141  18.885  0.00  0.00    +0.000 C 
ATOM     11  C   UNL     1       3.305   2.633  20.302  0.00  0.00    +0.000 C 
ATOM     12  C   UNL     1       1.935   3.031  20.839  0.00  0.00    +0.000 C 
ATOM     13  C   UNL     1       0.810   2.704  19.866  0.00  0.00    +0.000 C 
ATOM     14  C   UNL     1       1.070   3.270  18.478  0.00  0.00    +0.000 C 
ATOM     15  C   UNL     1       2.434   2.858  17.929  0.00  0.00    +0.000 C 
ENDBRANCH   9  10
ENDBRANCH   7   9
ENDBRANCH   2   5
ENDBRANCH   1   2
BRANCH   1  16
ATOM     16  C   UNL     1       8.787   9.292  18.638  0.00  0.00    +0.000 C 
BRANCH  16  17
ATOM     17  C   UNL     1       9.087  10.674  18.052  0.00  0.00    +0.000 C 
BRANCH  17  18
ATOM     18  N   UNL     1      10.146  11.442  18.736  0.00  0.00    +0.000 NA
ATOM     19  C   UNL     1      10.694  12.504  17.871  0.00  0.00    +0.000 C 
ATOM     20  C   UNL     1      11.757  13.326  18.600  0.00  0.00    +0.000 C 
ATOM     21  C   UNL     1      11.207  13.977  19.875  0.00  0.00    +0.000 C 
ATOM     22  C   UNL     1      10.623  12.857  20.750  0.00  0.00    +0.000 C 
ATOM     23  C   UNL     1       9.607  11.995  19.993  0.00  0.00    +0.000 C 
BRANCH  21  24
ATOM     24  C   UNL     1      10.155  15.076  19.610  0.00  0.00    +0.000 C 
BRANCH  24  25
ATOM     25  C   UNL     1      10.569  16.064  18.574  0.00  0.00    +0.000 A 
ATOM     26  C   UNL     1      10.014  16.322  17.341  0.00  0.00    +0.000 A 
ATOM     27  N   UNL     1      10.783  17.318  16.801  0.00  0.00    +0.000 N 
ATOM     28  C   UNL     1      11.759  17.619  17.707  0.00  0.00    +0.000 A 
ATOM     29  N   UNL     1      11.664  16.872  18.781  0.00  0.00    +0.000 NA
ATOM     30  H   UNL     1      10.657  17.758  15.902  0.00  0.00    +0.000 HD
ENDBRANCH  24  25
ENDBRANCH  21  24
ENDBRANCH  17  18
ENDBRANCH  16  17
ENDBRANCH   1  16
TORSDOF 9
ENDMDL
MODEL 9
REMARK VINA RESULT:      -7.5      1.466      2.168
REMARK  Name = 
REMARK  9 active torsions:
REMARK  status: ('A' for Active; 'I' for Inactive)
REMARK    1  A    between atoms: C_3  and  O_4
REMARK    2  A    between atoms: O_4  and  C_5
REMARK    3  A    between atoms: C_5  and  C_6
REMARK    4  A    between atoms: C_6  and  C_7
REMARK    5  A    between atoms: C_7  and  N_8
REMARK    6  A    between atoms: C_11  and  C_12
REMARK    7  A    between atoms: C_12  and  C_13
REMARK    8  A    between atoms: C_21  and  O_22
REMARK    9  A    between atoms: O_22  and  C_23
REMARK                            x       y       z     vdW  Elec       q    Type
REMARK                         _______ _______ _______ _____ _____    ______ ____
ROOT
ATOM      1  C   UNL     1       7.640   9.637  17.640  0.00  0.00    +0.000 C 
ENDROOT
BRANCH   1   2
ATOM      2  O   UNL     1       7.972   8.338  17.128  0.00  0.00    +0.000 OA
BRANCH   2   5
ATOM      3  C   UNL     1       7.738   5.609  19.508  0.00  0.00    +0.000 A 
ATOM      4  C   UNL     1       8.199   6.714  18.797  0.00  0.00    +0.000 A 
ATOM      5  C   UNL     1       7.425   7.261  17.772  0.00  0.00    +0.000 A 
ATOM      6  C   UNL     1       6.180   6.699  17.483  0.00  0.00    +0.000 A 
ATOM      7  C   UNL     1       5.687   5.608  18.209  0.00  0.00    +0.000 A 
ATOM      8  C   UNL     1       6.484   5.057  19.213  0.00  0.00    +0.000 A 
BRANCH   7   9
ATOM      9  O   UNL     1       4.448   5.031  18.036  0.00  0.00    +0.000 OA
BRANCH   9  10
ATOM     10  C   UNL     1       4.077   3.978  18.944  0.00  0.00    +0.000 C 
ATOM     11  C   UNL     1       2.907   4.434  19.827  0.00  0.00    +0.000 C 
ATOM     12  C   UNL     1       1.552   4.436  19.128  0.00  0.00    +0.000 C 
ATOM     13  C   UNL     1       1.257   3.117  18.424  0.00  0.00    +0.000 C 
ATOM     14  C   UNL     1       2.385   2.700  17.492  0.00  0.00    +0.000 C 
ATOM     15  C   UNL     1       3.741   2.680  18.194  0.00  0.00    +0.000 C 
ENDBRANCH   9  10
ENDBRANCH   7   9
ENDBRANCH   2   5
ENDBRANCH   1   2
BRANCH   1  16
ATOM     16  C   UNL     1       8.942  10.334  18.012  0.00  0.00    +0.000 C 
BRANCH  16  17
ATOM     17  C   UNL     1       9.361  10.092  19.465  0.00  0.00    +0.000 C 
BRANCH  17  18
ATOM     18  N   UNL     1      10.123  11.185  20.099  0.00  0.00    +0.000 NA
ATOM     19  C   UNL     1      10.905  11.950  19.108  0.00  0.00    +0.000 C 
ATOM     20  C   UNL     1      11.656  13.109  19.763  0.00  0.00    +0.000 C 
ATOM     21  C   UNL     1      10.707  14.077  20.482  0.00  0.00    +0.000 C 
ATOM     22  C   UNL     1       9.891  13.257  21.493  0.00  0.00    +0.000 C 
ATOM     23  C   UNL     1       9.194  12.057  20.842  0.00  0.00    +0.000 C 
BRANCH  21  24
ATOM     24  C   UNL     1       9.780  14.863  19.531  0.00  0.00    +0.000 C 
BRANCH  24  25
ATOM     25  C   UNL     1      10.503  15.561  18.430  0.00  0.00    +0.000 A 
ATOM     26  C   UNL     1      10.433  15.357  17.072  0.00  0.00    +0.000 A 
ATOM     27  N   UNL     1      11.301  16.263  16.525  0.00  0.00    +0.000 N 
ATOM     28  C   UNL     1      11.858  16.969  17.554  0.00  0.00    +0.000 A 
ATOM     29  N   UNL     1      11.406  16.560  18.715  0.00  0.00    +0.000 NA
ATOM     30  H   UNL     1      11.498  16.397  15.545  0.00  0.00    +0.000 HD
ENDBRANCH  24  25
ENDBRANCH  21  24
ENDBRANCH  17  18
ENDBRANCH  16  17
ENDBRANCH   1  16
TORSDOF 9
ENDMDL
