MODEL 1
REMARK VINA RESULT:      -8.9      0.000      0.000
REMARK  Name = 
REMARK  8 active torsions:
REMARK  status: ('A' for Active; 'I' for Inactive)
REMARK    1  A    between atoms: C_1  and  C_2
REMARK    2  A    between atoms: C_2  and  C_3
REMARK    3  A    between atoms: C_2  and  C_4
REMARK    4  A    between atoms: C_6  and  C_7
REMARK    5  A    between atoms: C_7  and  C_8
REMARK    6  A    between atoms: C_8  and  N_9
REMARK    7  A    between atoms: N_9  and  C_10
REMARK    8  A    between atoms: C_11  and  C_13
REMARK                            x       y       z     vdW  Elec       q    Type
REMARK                         _______ _______ _______ _____ _____    ______ ____
ROOT
ATOM      1  N   UNL     1       5.206   6.246  17.249  0.00  0.00    +0.000 N 
ATOM      2  C   UNL     1       4.902   7.029  16.063  0.00  0.00    +0.000 C 
ATOM      3  C   UNL     1       4.298   5.930  18.249  0.00  0.00    +0.000 C 
ATOM      4  O   UNL     1       4.727   5.446  19.304  0.00  0.00    +0.000 OA
ENDROOT
BRANCH   3   5
ATOM      5  C   UNL     1       2.800   6.277  18.133  0.00  0.00    +0.000 C 
ATOM      6  C   UNL     1       2.358   6.940  19.451  0.00  0.00    +0.000 C 
ATOM      7  O   UNL     1       2.378   6.053  20.582  0.00  0.00    +0.000 OA
ATOM      8  C   UNL     1       2.021   4.753  20.346  0.00  0.00    +0.000 A 
ATOM      9  C   UNL     1       2.025   3.898  21.447  0.00  0.00    +0.000 A 
ATOM     10  C   UNL     1       1.665   2.559  21.295  0.00  0.00    +0.000 A 
ATOM     11  C   UNL     1       1.275   2.079  20.046  0.00  0.00    +0.000 A 
ATOM     12  C   UNL     1       1.283   2.930  18.941  0.00  0.00    +0.000 A 
ATOM     13  C   UNL     1       1.695   4.262  19.081  0.00  0.00    +0.000 A 
ATOM     14  C   UNL     1       1.779   5.164  17.891  0.00  0.00    +0.000 C 
ENDBRANCH   3   5
BRANCH   1  15
ATOM     15  C   UNL     1       6.611   5.842  17.453  0.00  0.00    +0.000 C 
BRANCH  15  16
ATOM     16  C   UNL     1       6.992   4.521  16.773  0.00  0.00    +0.000 C 
BRANCH  16  19
ATOM     17  C   UNL     1       6.601   4.171  13.282  0.00  0.00    +0.000 A 
ATOM     18  N   UNL     1       6.247   3.778  14.487  0.00  0.00    +0.000 NA
ATOM     19  C   UNL     1       6.987   4.613  15.289  0.00  0.00    +0.000 A 
ATOM     20  N   UNL     1       7.766   5.480  14.626  0.00  0.00    +0.000 NA
ATOM     21  O   UNL     1       7.505   5.189  13.287  0.00  0.00    +0.000 OA
BRANCH  17  23
ATOM     22  C   UNL     1       6.982   2.351  11.651  0.00  0.00    +0.000 C 
ATOM     23  C   UNL     1       6.205   3.632  11.951  0.00  0.00    +0.000 C 
ATOM     24  C   UNL     1       4.699   3.381  11.890  0.00  0.00    +0.000 C 
ENDBRANCH  17  23
ENDBRANCH  16  19
ENDBRANCH  15  16
ENDBRANCH   1  15
TORSDOF 5
ENDMDL
MODEL 2
REMARK VINA RESULT:      -8.7      0.979      1.272
REMARK  Name = 
REMARK  8 active torsions:
REMARK  status: ('A' for Active; 'I' for Inactive)
REMARK    1  A    between atoms: C_1  and  C_2
REMARK    2  A    between atoms: C_2  and  C_3
REMARK    3  A    between atoms: C_2  and  C_4
REMARK    4  A    between atoms: C_6  and  C_7
REMARK    5  A    between atoms: C_7  and  C_8
REMARK    6  A    between atoms: C_8  and  N_9
REMARK    7  A    between atoms: N_9  and  C_10
REMARK    8  A    between atoms: C_11  and  C_13
REMARK                            x       y       z     vdW  Elec       q    Type
REMARK                         _______ _______ _______ _____ _____    ______ ____
ROOT
ATOM      1  N   UNL     1       5.148   5.548  16.977  0.00  0.00    +0.000 N 
ATOM      2  C   UNL     1       5.182   6.986  16.777  0.00  0.00    +0.000 C 
ATOM      3  C   UNL     1       4.033   4.825  17.378  0.00  0.00    +0.000 C 
ATOM      4  O   UNL     1       4.187   3.645  17.719  0.00  0.00    +0.000 OA
ENDROOT
BRANCH   3   5
ATOM      5  C   UNL     1       2.645   5.479  17.527  0.00  0.00    +0.000 C 
ATOM      6  C   UNL     1       2.725   6.520  18.659  0.00  0.00    +0.000 C 
ATOM      7  O   UNL     1       2.933   5.947  19.961  0.00  0.00    +0.000 OA
ATOM      8  C   UNL     1       2.315   4.751  20.208  0.00  0.00    +0.000 A 
ATOM      9  C   UNL     1       2.504   4.205  21.476  0.00  0.00    +0.000 A 
ATOM     10  C   UNL     1       1.903   2.992  21.814  0.00  0.00    +0.000 A 
ATOM     11  C   UNL     1       1.090   2.336  20.890  0.00  0.00    +0.000 A 
ATOM     12  C   UNL     1       0.911   2.874  19.617  0.00  0.00    +0.000 A 
ATOM     13  C   UNL     1       1.556   4.065  19.258  0.00  0.00    +0.000 A 
ATOM     14  C   UNL     1       1.432   4.613  17.872  0.00  0.00    +0.000 C 
ENDBRANCH   3   5
BRANCH   1  15
ATOM     15  C   UNL     1       6.422   4.815  16.842  0.00  0.00    +0.000 C 
BRANCH  15  16
ATOM     16  C   UNL     1       7.343   5.350  15.738  0.00  0.00    +0.000 C 
BRANCH  16  19
ATOM     17  C   UNL     1       6.189   3.590  12.904  0.00  0.00    +0.000 A 
ATOM     18  N   UNL     1       6.092   3.801  14.199  0.00  0.00    +0.000 NA
ATOM     19  C   UNL     1       7.018   4.797  14.397  0.00  0.00    +0.000 A 
ATOM     20  N   UNL     1       7.665   5.187  13.289  0.00  0.00    +0.000 NA
ATOM     21  O   UNL     1       7.108   4.387  12.292  0.00  0.00    +0.000 OA
BRANCH  17  23
ATOM     22  C   UNL     1       4.339   3.251  11.298  0.00  0.00    +0.000 C 
ATOM     23  C   UNL     1       5.493   2.588  12.048  0.00  0.00    +0.000 C 
ATOM     24  C   UNL     1       6.469   1.932  11.074  0.00  0.00    +0.000 C 
ENDBRANCH  17  23
ENDBRANCH  16  19
ENDBRANCH  15  16
ENDBRANCH   1  15
TORSDOF 5
ENDMDL
MODEL 3
REMARK VINA RESULT:      -8.1      0.950      1.362
REMARK  Name = 
REMARK  8 active torsions:
REMARK  status: ('A' for Active; 'I' for Inactive)
REMARK    1  A    between atoms: C_1  and  C_2
REMARK    2  A    between atoms: C_2  and  C_3
REMARK    3  A    between atoms: C_2  and  C_4
REMARK    4  A    between atoms: C_6  and  C_7
REMARK    5  A    between atoms: C_7  and  C_8
REMARK    6  A    between atoms: C_8  and  N_9
REMARK    7  A    between atoms: N_9  and  C_10
REMARK    8  A    between atoms: C_11  and  C_13
REMARK                            x       y       z     vdW  Elec       q    Type
REMARK                         _______ _______ _______ _____ _____    ______ ____
ROOT
ATOM      1  N   UNL     1       5.514   6.414  17.713  0.00  0.00    +0.000 N 
ATOM      2  C   UNL     1       5.383   7.235  16.522  0.00  0.00    +0.000 C 
ATOM      3  C   UNL     1       4.467   6.046  18.546  0.00  0.00    +0.000 C 
ATOM      4  O   UNL     1       4.735   5.530  19.639  0.00  0.00    +0.000 OA
ENDROOT
BRANCH   3   5
ATOM      5  C   UNL     1       2.999   6.373  18.208  0.00  0.00    +0.000 C 
ATOM      6  C   UNL     1       2.337   6.967  19.465  0.00  0.00    +0.000 C 
ATOM      7  O   UNL     1       2.199   6.030  20.546  0.00  0.00    +0.000 OA
ATOM      8  C   UNL     1       1.915   4.736  20.201  0.00  0.00    +0.000 A 
ATOM      9  C   UNL     1       1.765   3.832  21.251  0.00  0.00    +0.000 A 
ATOM     10  C   UNL     1       1.466   2.495  20.988  0.00  0.00    +0.000 A 
ATOM     11  C   UNL     1       1.291   2.066  19.673  0.00  0.00    +0.000 A 
ATOM     12  C   UNL     1       1.454   2.966  18.621  0.00  0.00    +0.000 A 
ATOM     13  C   UNL     1       1.806   4.297  18.881  0.00  0.00    +0.000 A 
ATOM     14  C   UNL     1       2.056   5.254  17.759  0.00  0.00    +0.000 C 
ENDBRANCH   3   5
BRANCH   1  15
ATOM     15  C   UNL     1       6.877   6.026  18.122  0.00  0.00    +0.000 C 
BRANCH  15  16
ATOM     16  C   UNL     1       7.311   4.637  17.636  0.00  0.00    +0.000 C 
BRANCH  16  19
ATOM     17  C   UNL     1       6.807   4.456  14.147  0.00  0.00    +0.000 A 
ATOM     18  N   UNL     1       7.538   4.904  15.144  0.00  0.00    +0.000 NA
ATOM     19  C   UNL     1       6.900   4.363  16.233  0.00  0.00    +0.000 A 
ATOM     20  N   UNL     1       5.823   3.620  15.939  0.00  0.00    +0.000 NA
ATOM     21  O   UNL     1       5.764   3.676  14.546  0.00  0.00    +0.000 OA
BRANCH  17  23
ATOM     22  C   UNL     1       8.133   5.614  12.410  0.00  0.00    +0.000 C 
ATOM     23  C   UNL     1       6.923   4.722  12.685  0.00  0.00    +0.000 C 
ATOM     24  C   UNL     1       7.021   3.416  11.899  0.00  0.00    +0.000 C 
ENDBRANCH  17  23
ENDBRANCH  16  19
ENDBRANCH  15  16
ENDBRANCH   1  15
TORSDOF 5
ENDMDL
MODEL 4
REMARK VINA RESULT:      -7.8      3.758      8.049
REMARK  Name = 
REMARK  8 active torsions:
REMARK  status: ('A' for Active; 'I' for Inactive)
REMARK    1  A    between atoms: C_1  and  C_2
REMARK    2  A    between atoms: C_2  and  C_3
REMARK    3  A    between atoms: C_2  and  C_4
REMARK    4  A    between atoms: C_6  and  C_7
REMARK    5  A    between atoms: C_7  and  C_8
REMARK    6  A    between atoms: C_8  and  N_9
REMARK    7  A    between atoms: N_9  and  C_10
REMARK    8  A    between atoms: C_11  and  C_13
REMARK                            x       y       z     vdW  Elec       q    Type
REMARK                         _______ _______ _______ _____ _____    ______ ____
ROOT
ATOM      1  N   UNL     1       2.276   6.095  19.727  0.00  0.00    +0.000 N 
ATOM      2  C   UNL     1       1.723   5.303  20.812  0.00  0.00    +0.000 C 
ATOM      3  C   UNL     1       3.004   5.587  18.661  0.00  0.00    +0.000 C 
ATOM      4  O   UNL     1       3.600   6.382  17.922  0.00  0.00    +0.000 OA
ENDROOT
BRANCH   3   5
ATOM      5  C   UNL     1       3.189   4.072  18.445  0.00  0.00    +0.000 C 
ATOM      6  C   UNL     1       4.329   3.594  19.363  0.00  0.00    +0.000 C 
ATOM      7  O   UNL     1       5.621   4.113  19.004  0.00  0.00    +0.000 OA
ATOM      8  C   UNL     1       5.870   4.260  17.667  0.00  0.00    +0.000 A 
ATOM      9  C   UNL     1       7.129   4.749  17.320  0.00  0.00    +0.000 A 
ATOM     10  C   UNL     1       7.468   4.921  15.977  0.00  0.00    +0.000 A 
ATOM     11  C   UNL     1       6.557   4.580  14.979  0.00  0.00    +0.000 A 
ATOM     12  C   UNL     1       5.293   4.104  15.325  0.00  0.00    +0.000 A 
ATOM     13  C   UNL     1       4.931   3.981  16.673  0.00  0.00    +0.000 A 
ATOM     14  C   UNL     1       3.554   3.542  17.056  0.00  0.00    +0.000 C 
ENDBRANCH   3   5
BRANCH   1  15
ATOM     15  C   UNL     1       2.139   7.561  19.822  0.00  0.00    +0.000 C 
BRANCH  15  16
ATOM     16  C   UNL     1       1.212   8.037  20.947  0.00  0.00    +0.000 C 
BRANCH  16  19
ATOM     17  C   UNL     1       0.700  11.449  20.199  0.00  0.00    +0.000 A 
ATOM     18  N   UNL     1       0.797  10.214  19.755  0.00  0.00    +0.000 NA
ATOM     19  C   UNL     1       0.976   9.505  20.918  0.00  0.00    +0.000 A 
ATOM     20  N   UNL     1       0.995  10.252  22.032  0.00  0.00    +0.000 NA
ATOM     21  O   UNL     1       0.804  11.549  21.554  0.00  0.00    +0.000 OA
BRANCH  17  23
ATOM     22  C   UNL     1       1.784  12.963  18.573  0.00  0.00    +0.000 C 
ATOM     23  C   UNL     1       0.551  12.724  19.443  0.00  0.00    +0.000 C 
ATOM     24  C   UNL     1      -0.718  12.710  18.594  0.00  0.00    +0.000 C 
ENDBRANCH  17  23
ENDBRANCH  16  19
ENDBRANCH  15  16
ENDBRANCH   1  15
TORSDOF 5
ENDMDL
MODEL 5
REMARK VINA RESULT:      -7.7      4.040      8.738
REMARK  Name = 
REMARK  8 active torsions:
REMARK  status: ('A' for Active; 'I' for Inactive)
REMARK    1  A    between atoms: C_1  and  C_2
REMARK    2  A    between atoms: C_2  and  C_3
REMARK    3  A    between atoms: C_2  and  C_4
REMARK    4  A    between atoms: C_6  and  C_7
REMARK    5  A    between atoms: C_7  and  C_8
REMARK    6  A    between atoms: C_8  and  N_9
REMARK    7  A    between atoms: N_9  and  C_10
REMARK    8  A    between atoms: C_11  and  C_13
REMARK                            x       y       z     vdW  Elec       q    Type
REMARK                         _______ _______ _______ _____ _____    ______ ____
ROOT
ATOM      1  N   UNL     1       2.244   6.080  19.754  0.00  0.00    +0.000 N 
ATOM      2  C   UNL     1       1.698   5.251  20.815  0.00  0.00    +0.000 C 
ATOM      3  C   UNL     1       2.990   5.613  18.681  0.00  0.00    +0.000 C 
ATOM      4  O   UNL     1       3.576   6.436  17.967  0.00  0.00    +0.000 OA
ENDROOT
BRANCH   3   5
ATOM      5  C   UNL     1       3.206   4.107  18.430  0.00  0.00    +0.000 C 
ATOM      6  C   UNL     1       4.363   3.633  19.329  0.00  0.00    +0.000 C 
ATOM      7  O   UNL     1       5.641   4.188  18.972  0.00  0.00    +0.000 OA
ATOM      8  C   UNL     1       5.876   4.370  17.636  0.00  0.00    +0.000 A 
ATOM      9  C   UNL     1       7.121   4.894  17.291  0.00  0.00    +0.000 A 
ATOM     10  C   UNL     1       7.446   5.103  15.950  0.00  0.00    +0.000 A 
ATOM     11  C   UNL     1       6.535   4.764  14.951  0.00  0.00    +0.000 A 
ATOM     12  C   UNL     1       5.284   4.254  15.296  0.00  0.00    +0.000 A 
ATOM     13  C   UNL     1       4.935   4.093  16.643  0.00  0.00    +0.000 A 
ATOM     14  C   UNL     1       3.571   3.616  17.027  0.00  0.00    +0.000 C 
ENDBRANCH   3   5
BRANCH   1  15
ATOM     15  C   UNL     1       2.079   7.541  19.883  0.00  0.00    +0.000 C 
BRANCH  15  16
ATOM     16  C   UNL     1       1.544   7.997  21.247  0.00  0.00    +0.000 C 
BRANCH  16  19
ATOM     17  C   UNL     1      -0.177  11.039  21.739  0.00  0.00    +0.000 A 
ATOM     18  N   UNL     1       0.604  10.108  22.243  0.00  0.00    +0.000 NA
ATOM     19  C   UNL     1       0.777   9.269  21.169  0.00  0.00    +0.000 A 
ATOM     20  N   UNL     1       0.137   9.648  20.053  0.00  0.00    +0.000 NA
ATOM     21  O   UNL     1      -0.495  10.833  20.431  0.00  0.00    +0.000 OA
BRANCH  17  23
ATOM     22  C   UNL     1      -1.000  13.344  21.378  0.00  0.00    +0.000 C 
ATOM     23  C   UNL     1      -0.792  12.226  22.399  0.00  0.00    +0.000 C 
ATOM     24  C   UNL     1      -2.111  11.853  23.072  0.00  0.00    +0.000 C 
ENDBRANCH  17  23
ENDBRANCH  16  19
ENDBRANCH  15  16
ENDBRANCH   1  15
TORSDOF 5
ENDMDL
MODEL 6
REMARK VINA RESULT:      -7.6      0.917      1.065
REMARK  Name = 
REMARK  8 active torsions:
REMARK  status: ('A' for Active; 'I' for Inactive)
REMARK    1  A    between atoms: C_1  and  C_2
REMARK    2  A    between atoms: C_2  and  C_3
REMARK    3  A    between atoms: C_2  and  C_4
REMARK    4  A    between atoms: C_6  and  C_7
REMARK    5  A    between atoms: C_7  and  C_8
REMARK    6  A    between atoms: C_8  and  N_9
REMARK    7  A    between atoms: N_9  and  C_10
REMARK    8  A    between atoms: C_11  and  C_13
REMARK                            x       y       z     vdW  Elec       q    Type
REMARK                         _______ _______ _______ _____ _____    ______ ____
ROOT
ATOM      1  N   UNL     1       4.568   4.439  17.067  0.00  0.00    +0.000 N 
ATOM      2  C   UNL     1       3.686   3.577  16.299  0.00  0.00    +0.000 C 
ATOM      3  C   UNL     1       4.183   5.612  17.701  0.00  0.00    +0.000 C 
ATOM      4  O   UNL     1       5.065   6.364  18.136  0.00  0.00    +0.000 OA
ENDROOT
BRANCH   3   5
ATOM      5  C   UNL     1       2.710   6.060  17.767  0.00  0.00    +0.000 C 
ATOM      6  C   UNL     1       2.534   6.946  19.014  0.00  0.00    +0.000 C 
ATOM      7  O   UNL     1       2.692   6.237  20.255  0.00  0.00    +0.000 OA
ATOM      8  C   UNL     1       2.226   4.951  20.289  0.00  0.00    +0.000 A 
ATOM      9  C   UNL     1       2.367   4.271  21.498  0.00  0.00    +0.000 A 
ATOM     10  C   UNL     1       1.910   2.958  21.621  0.00  0.00    +0.000 A 
ATOM     11  C   UNL     1       1.289   2.333  20.541  0.00  0.00    +0.000 A 
ATOM     12  C   UNL     1       1.161   3.006  19.327  0.00  0.00    +0.000 A 
ATOM     13  C   UNL     1       1.666   4.306  19.186  0.00  0.00    +0.000 A 
ATOM     14  C   UNL     1       1.601   5.011  17.868  0.00  0.00    +0.000 C 
ENDBRANCH   3   5
BRANCH   1  15
ATOM     15  C   UNL     1       6.003   4.093  17.087  0.00  0.00    +0.000 C 
BRANCH  15  16
ATOM     16  C   UNL     1       6.905   5.099  16.360  0.00  0.00    +0.000 C 
BRANCH  16  19
ATOM     17  C   UNL     1       6.503   4.118  12.993  0.00  0.00    +0.000 A 
ATOM     18  N   UNL     1       6.064   4.053  14.231  0.00  0.00    +0.000 NA
ATOM     19  C   UNL     1       6.938   4.884  14.889  0.00  0.00    +0.000 A 
ATOM     20  N   UNL     1       7.877   5.438  14.109  0.00  0.00    +0.000 NA
ATOM     21  O   UNL     1       7.584   4.932  12.843  0.00  0.00    +0.000 OA
BRANCH  17  23
ATOM     22  C   UNL     1       6.731   2.047  11.660  0.00  0.00    +0.000 C 
ATOM     23  C   UNL     1       6.030   3.399  11.776  0.00  0.00    +0.000 C 
ATOM     24  C   UNL     1       4.513   3.225  11.801  0.00  0.00    +0.000 C 
ENDBRANCH  17  23
ENDBRANCH  16  19
ENDBRANCH  15  16
ENDBRANCH   1  15
TORSDOF 5
ENDMDL
MODEL 7
REMARK VINA RESULT:      -7.5      3.945      8.227
REMARK  Name = 
REMARK  8 active torsions:
REMARK  status: ('A' for Active; 'I' for Inactive)
REMARK    1  A    between atoms: C_1  and  C_2
REMARK    2  A    between atoms: C_2  and  C_3
REMARK    3  A    between atoms: C_2  and  C_4
REMARK    4  A    between atoms: C_6  and  C_7
REMARK    5  A    between atoms: C_7  and  C_8
REMARK    6  A    between atoms: C_8  and  N_9
REMARK    7  A    between atoms: N_9  and  C_10
REMARK    8  A    between atoms: C_11  and  C_13
REMARK                            x       y       z     vdW  Elec       q    Type
REMARK                         _______ _______ _______ _____ _____    ______ ____
ROOT
ATOM      1  N   UNL     1       2.451   6.997  19.325  0.00  0.00    +0.000 N 
ATOM      2  C   UNL     1       2.265   7.709  18.072  0.00  0.00    +0.000 C 
ATOM      3  C   UNL     1       2.877   5.681  19.438  0.00  0.00    +0.000 C 
ATOM      4  O   UNL     1       2.789   5.125  20.541  0.00  0.00    +0.000 OA
ENDROOT
BRANCH   3   5
ATOM      5  C   UNL     1       3.335   4.862  18.215  0.00  0.00    +0.000 C 
ATOM      6  C   UNL     1       4.204   3.695  18.719  0.00  0.00    +0.000 C 
ATOM      7  O   UNL     1       5.455   4.108  19.294  0.00  0.00    +0.000 OA
ATOM      8  C   UNL     1       6.069   5.184  18.713  0.00  0.00    +0.000 A 
ATOM      9  C   UNL     1       7.290   5.573  19.262  0.00  0.00    +0.000 A 
ATOM     10  C   UNL     1       7.987   6.655  18.723  0.00  0.00    +0.000 A 
ATOM     11  C   UNL     1       7.476   7.333  17.618  0.00  0.00    +0.000 A 
ATOM     12  C   UNL     1       6.249   6.953  17.076  0.00  0.00    +0.000 A 
ATOM     13  C   UNL     1       5.522   5.901  17.648  0.00  0.00    +0.000 A 
ATOM     14  C   UNL     1       4.171   5.532  17.123  0.00  0.00    +0.000 C 
ENDBRANCH   3   5
BRANCH   1  15
ATOM     15  C   UNL     1       2.060   7.695  20.565  0.00  0.00    +0.000 C 
BRANCH  15  16
ATOM     16  C   UNL     1       0.718   8.432  20.478  0.00  0.00    +0.000 C 
BRANCH  16  19
ATOM     17  C   UNL     1       1.113  11.905  19.983  0.00  0.00    +0.000 A 
ATOM     18  N   UNL     1       0.905  10.721  19.448  0.00  0.00    +0.000 NA
ATOM     19  C   UNL     1       0.865   9.910  20.557  0.00  0.00    +0.000 A 
ATOM     20  N   UNL     1       1.044  10.547  21.723  0.00  0.00    +0.000 NA
ATOM     21  O   UNL     1       1.203  11.879  21.342  0.00  0.00    +0.000 OA
BRANCH  17  23
ATOM     22  C   UNL     1      -0.032  13.897  19.068  0.00  0.00    +0.000 C 
ATOM     23  C   UNL     1       1.316  13.225  19.322  0.00  0.00    +0.000 C 
ATOM     24  C   UNL     1       2.221  14.123  20.164  0.00  0.00    +0.000 C 
ENDBRANCH  17  23
ENDBRANCH  16  19
ENDBRANCH  15  16
ENDBRANCH   1  15
TORSDOF 5
ENDMDL
MODEL 8
REMARK VINA RESULT:      -7.5      4.303      9.031
REMARK  Name = 
REMARK  8 active torsions:
REMARK  status: ('A' for Active; 'I' for Inactive)
REMARK    1  A    between atoms: C_1  and  C_2
REMARK    2  A    between atoms: C_2  and  C_3
REMARK    3  A    between atoms: C_2  and  C_4
REMARK    4  A    between atoms: C_6  and  C_7
REMARK    5  A    between atoms: C_7  and  C_8
REMARK    6  A    between atoms: C_8  and  N_9
REMARK    7  A    between atoms: N_9  and  C_10
REMARK    8  A    between atoms: C_11  and  C_13
REMARK                            x       y       z     vdW  Elec       q    Type
REMARK                         _______ _______ _______ _____ _____    ______ ____
ROOT
ATOM      1  N   UNL     1       2.270   7.505  19.255  0.00  0.00    +0.000 N 
ATOM      2  C   UNL     1       1.995   8.271  18.051  0.00  0.00    +0.000 C 
ATOM      3  C   UNL     1       2.729   6.196  19.278  0.00  0.00    +0.000 C 
ATOM      4  O   UNL     1       2.718   5.586  20.355  0.00  0.00    +0.000 OA
ENDROOT
BRANCH   3   5
ATOM      5  C   UNL     1       3.131   5.447  17.992  0.00  0.00    +0.000 C 
ATOM      6  C   UNL     1       3.769   4.106  18.397  0.00  0.00    +0.000 C 
ATOM      7  O   UNL     1       5.029   4.244  19.076  0.00  0.00    +0.000 OA
ATOM      8  C   UNL     1       5.843   5.259  18.652  0.00  0.00    +0.000 A 
ATOM      9  C   UNL     1       7.071   5.382  19.301  0.00  0.00    +0.000 A 
ATOM     10  C   UNL     1       7.965   6.385  18.924  0.00  0.00    +0.000 A 
ATOM     11  C   UNL     1       7.641   7.252  17.882  0.00  0.00    +0.000 A 
ATOM     12  C   UNL     1       6.407   7.139  17.242  0.00  0.00    +0.000 A 
ATOM     13  C   UNL     1       5.487   6.166  17.653  0.00  0.00    +0.000 A 
ATOM     14  C   UNL     1       4.132   6.083  17.025  0.00  0.00    +0.000 C 
ENDBRANCH   3   5
BRANCH   1  15
ATOM     15  C   UNL     1       1.938   8.133  20.548  0.00  0.00    +0.000 C 
BRANCH  15  16
ATOM     16  C   UNL     1       0.446   8.102  20.900  0.00  0.00    +0.000 C 
BRANCH  16  19
ATOM     17  C   UNL     1      -0.619  11.118  22.394  0.00  0.00    +0.000 A 
ATOM     18  N   UNL     1      -0.474  10.412  21.294  0.00  0.00    +0.000 NA
ATOM     19  C   UNL     1       0.037   9.231  21.778  0.00  0.00    +0.000 A 
ATOM     20  N   UNL     1       0.208   9.199  23.107  0.00  0.00    +0.000 NA
ATOM     21  O   UNL     1      -0.235  10.455  23.520  0.00  0.00    +0.000 OA
BRANCH  17  23
ATOM     22  C   UNL     1      -0.096  13.484  21.896  0.00  0.00    +0.000 C 
ATOM     23  C   UNL     1      -1.078  12.525  22.568  0.00  0.00    +0.000 C 
ATOM     24  C   UNL     1      -2.487  12.712  22.009  0.00  0.00    +0.000 C 
ENDBRANCH  17  23
ENDBRANCH  16  19
ENDBRANCH  15  16
ENDBRANCH   1  15
TORSDOF 5
ENDMDL
MODEL 9
REMARK VINA RESULT:      -7.5      3.669      5.729
REMARK  Name = 
REMARK  8 active torsions:
REMARK  status: ('A' for Active; 'I' for Inactive)
REMARK    1  A    between atoms: C_1  and  C_2
REMARK    2  A    between atoms: C_2  and  C_3
REMARK    3  A    between atoms: C_2  and  C_4
REMARK    4  A    between atoms: C_6  and  C_7
REMARK    5  A    between atoms: C_7  and  C_8
REMARK    6  A    between atoms: C_8  and  N_9
REMARK    7  A    between atoms: N_9  and  C_10
REMARK    8  A    between atoms: C_11  and  C_13
REMARK                            x       y       z     vdW  Elec       q    Type
REMARK                         _______ _______ _______ _____ _____    ______ ____
ROOT
ATOM      1  N   UNL     1       6.013   5.325  17.485  0.00  0.00    +0.000 N 
ATOM      2  C   UNL     1       7.122   4.441  17.173  0.00  0.00    +0.000 C 
ATOM      3  C   UNL     1       4.672   4.973  17.427  0.00  0.00    +0.000 C 
ATOM      4  O   UNL     1       3.822   5.870  17.506  0.00  0.00    +0.000 OA
ENDROOT
BRANCH   3   5
ATOM      5  C   UNL     1       4.218   3.527  17.145  0.00  0.00    +0.000 C 
ATOM      6  C   UNL     1       2.751   3.568  16.677  0.00  0.00    +0.000 C 
ATOM      7  O   UNL     1       1.828   3.984  17.698  0.00  0.00    +0.000 OA
ATOM      8  C   UNL     1       2.100   3.572  18.974  0.00  0.00    +0.000 A 
ATOM      9  C   UNL     1       1.196   3.963  19.959  0.00  0.00    +0.000 A 
ATOM     10  C   UNL     1       1.394   3.578  21.286  0.00  0.00    +0.000 A 
ATOM     11  C   UNL     1       2.486   2.780  21.623  0.00  0.00    +0.000 A 
ATOM     12  C   UNL     1       3.400   2.400  20.641  0.00  0.00    +0.000 A 
ATOM     13  C   UNL     1       3.231   2.830  19.318  0.00  0.00    +0.000 A 
ATOM     14  C   UNL     1       4.243   2.491  18.270  0.00  0.00    +0.000 C 
ENDBRANCH   3   5
BRANCH   1  15
ATOM     15  C   UNL     1       6.334   6.733  17.789  0.00  0.00    +0.000 C 
BRANCH  15  16
ATOM     16  C   UNL     1       7.802   6.979  18.162  0.00  0.00    +0.000 C 
BRANCH  16  19
ATOM     17  C   UNL     1       9.007  10.251  18.712  0.00  0.00    +0.000 A 
ATOM     18  N   UNL     1       9.050   8.979  19.044  0.00  0.00    +0.000 NA
ATOM     19  C   UNL     1       8.166   8.421  18.152  0.00  0.00    +0.000 A 
ATOM     20  N   UNL     1       7.595   9.294  17.310  0.00  0.00    +0.000 NA
ATOM     21  O   UNL     1       8.160  10.515  17.678  0.00  0.00    +0.000 OA
BRANCH  17  23
ATOM     22  C   UNL     1       9.589  11.343  20.853  0.00  0.00    +0.000 C 
ATOM     23  C   UNL     1       9.693  11.420  19.331  0.00  0.00    +0.000 C 
ATOM     24  C   UNL     1      11.154  11.491  18.889  0.00  0.00    +0.000 C 
ENDBRANCH  17  23
ENDBRANCH  16  19
ENDBRANCH  15  16
ENDBRANCH   1  15
TORSDOF 5
ENDMDL
