MODEL 1
REMARK VINA RESULT:      -7.2      0.000      0.000
REMARK  Name = 
REMARK  5 active torsions:
REMARK  status: ('A' for Active; 'I' for Inactive)
REMARK    1  A    between atoms: C_1  and  S_2
REMARK    2  A    between atoms: S_2  and  C_3
REMARK    3  A    between atoms: C_8  and  N_9
REMARK    4  A    between atoms: C_10  and  C_12
REMARK    5  A    between atoms: C_18  and  C_19
REMARK                            x       y       z     vdW  Elec       q    Type
REMARK                         _______ _______ _______ _____ _____    ______ ____
ROOT
ATOM      1  N   UNL     1       0.907   9.563  19.261  0.00  0.00    +0.000 N 
ATOM      2  C   UNL     1       1.811   9.159  18.298  0.00  0.00    +0.000 C 
ATOM      3  O   UNL     1       2.315   9.904  17.460  0.00  0.00    +0.000 OA
ATOM      4  H   UNL     1       0.431   8.865  19.830  0.00  0.00    +0.000 HD
ENDROOT
BRANCH   2   5
ATOM      5  C   UNL     1       2.134   7.670  18.260  0.00  0.00    +0.000 C 
ATOM      6  C   UNL     1       2.346   7.086  19.640  0.00  0.00    +0.000 C 
ATOM      7  S   UNL     1       2.461   5.294  19.481  0.00  0.00    +0.000 S 
ATOM      8  C   UNL     1       3.597   5.075  18.164  0.00  0.00    +0.000 A 
ATOM      9  N   UNL     1       4.061   3.876  18.029  0.00  0.00    +0.000 NA
ATOM     10  C   UNL     1       4.948   3.650  17.018  0.00  0.00    +0.000 A 
ATOM     11  C   UNL     1       5.429   4.583  16.196  0.00  0.00    +0.000 A 
ATOM     12  C   UNL     1       6.435   4.342  15.119  0.00  0.00    +0.000 C 
ATOM     13  C   UNL     1       4.926   5.962  16.386  0.00  0.00    +0.000 A 
ATOM     14  O   UNL     1       5.401   6.880  15.720  0.00  0.00    +0.000 OA
ATOM     15  N   UNL     1       3.925   6.125  17.337  0.00  0.00    +0.000 N 
ATOM     16  C   UNL     1       3.441   7.491  17.488  0.00  0.00    +0.000 C 
ENDBRANCH   2   5
BRANCH   1  22
ATOM     17  C   UNL     1      -0.754  11.327  18.869  0.00  0.00    +0.000 A 
ATOM     18  C   UNL     1      -1.235  12.629  19.098  0.00  0.00    +0.000 A 
ATOM     19  C   UNL     1      -0.504  13.527  19.875  0.00  0.00    +0.000 A 
ATOM     20  C   UNL     1       0.703  13.127  20.432  0.00  0.00    +0.000 A 
ATOM     21  C   UNL     1       1.164  11.822  20.241  0.00  0.00    +0.000 A 
ATOM     22  C   UNL     1       0.452  10.900  19.464  0.00  0.00    +0.000 A 
BRANCH  17  24
ATOM     23  C   UNL     1      -3.207  11.236  17.678  0.00  0.00    +0.000 C 
ATOM     24  S   UNL     1      -1.666  10.275  17.735  0.00  0.00    +0.000 S 
ENDBRANCH  17  24
ENDBRANCH   1  22
TORSDOF 3
ENDMDL
MODEL 2
REMARK VINA RESULT:      -6.9      1.442      1.939
REMARK  Name = 
REMARK  5 active torsions:
REMARK  status: ('A' for Active; 'I' for Inactive)
REMARK    1  A    between atoms: C_1  and  S_2
REMARK    2  A    between atoms: S_2  and  C_3
REMARK    3  A    between atoms: C_8  and  N_9
REMARK    4  A    between atoms: C_10  and  C_12
REMARK    5  A    between atoms: C_18  and  C_19
REMARK                            x       y       z     vdW  Elec       q    Type
REMARK                         _______ _______ _______ _____ _____    ______ ____
ROOT
ATOM      1  N   UNL     1       0.702   9.117  19.143  0.00  0.00    +0.000 N 
ATOM      2  C   UNL     1       1.779   8.875  18.310  0.00  0.00    +0.000 C 
ATOM      3  O   UNL     1       2.346   9.735  17.639  0.00  0.00    +0.000 OA
ATOM      4  H   UNL     1       0.201   8.333  19.558  0.00  0.00    +0.000 HD
ENDROOT
BRANCH   2   5
ATOM      5  C   UNL     1       2.224   7.422  18.191  0.00  0.00    +0.000 C 
ATOM      6  C   UNL     1       2.535   6.798  19.533  0.00  0.00    +0.000 C 
ATOM      7  S   UNL     1       2.795   5.032  19.286  0.00  0.00    +0.000 S 
ATOM      8  C   UNL     1       3.897   4.970  17.923  0.00  0.00    +0.000 A 
ATOM      9  N   UNL     1       4.455   3.823  17.715  0.00  0.00    +0.000 NA
ATOM     10  C   UNL     1       5.321   3.720  16.666  0.00  0.00    +0.000 A 
ATOM     11  C   UNL     1       5.691   4.727  15.875  0.00  0.00    +0.000 A 
ATOM     12  C   UNL     1       6.673   4.622  14.756  0.00  0.00    +0.000 C 
ATOM     13  C   UNL     1       5.080   6.048  16.147  0.00  0.00    +0.000 A 
ATOM     14  O   UNL     1       5.451   7.032  15.510  0.00  0.00    +0.000 OA
ATOM     15  N   UNL     1       4.104   6.081  17.137  0.00  0.00    +0.000 N 
ATOM     16  C   UNL     1       3.513   7.392  17.368  0.00  0.00    +0.000 C 
ENDBRANCH   2   5
BRANCH   1  22
ATOM     17  C   UNL     1       0.074  10.905  20.703  0.00  0.00    +0.000 A 
ATOM     18  C   UNL     1      -0.465  12.180  20.951  0.00  0.00    +0.000 A 
ATOM     19  C   UNL     1      -1.012  12.931  19.911  0.00  0.00    +0.000 A 
ATOM     20  C   UNL     1      -1.013  12.418  18.622  0.00  0.00    +0.000 A 
ATOM     21  C   UNL     1      -0.442  11.170  18.364  0.00  0.00    +0.000 A 
ATOM     22  C   UNL     1       0.112  10.392  19.389  0.00  0.00    +0.000 A 
BRANCH  17  24
ATOM     23  C   UNL     1      -0.821  10.201  23.182  0.00  0.00    +0.000 C 
ATOM     24  S   UNL     1       0.619   9.927  22.108  0.00  0.00    +0.000 S 
ENDBRANCH  17  24
ENDBRANCH   1  22
TORSDOF 3
ENDMDL
MODEL 3
REMARK VINA RESULT:      -6.8      2.497      8.157
REMARK  Name = 
REMARK  5 active torsions:
REMARK  status: ('A' for Active; 'I' for Inactive)
REMARK    1  A    between atoms: C_1  and  S_2
REMARK    2  A    between atoms: S_2  and  C_3
REMARK    3  A    between atoms: C_8  and  N_9
REMARK    4  A    between atoms: C_10  and  C_12
REMARK    5  A    between atoms: C_18  and  C_19
REMARK                            x       y       z     vdW  Elec       q    Type
REMARK                         _______ _______ _______ _____ _____    ______ ____
ROOT
ATOM      1  N   UNL     1       2.684   6.936  19.346  0.00  0.00    +0.000 N 
ATOM      2  C   UNL     1       1.983   8.079  19.009  0.00  0.00    +0.000 C 
ATOM      3  O   UNL     1       1.756   8.441  17.856  0.00  0.00    +0.000 OA
ATOM      4  H   UNL     1       2.948   6.776  20.316  0.00  0.00    +0.000 HD
ENDROOT
BRANCH   2   5
ATOM      5  C   UNL     1       1.534   8.960  20.168  0.00  0.00    +0.000 C 
ATOM      6  C   UNL     1       1.125   8.156  21.384  0.00  0.00    +0.000 C 
ATOM      7  S   UNL     1       0.866   9.299  22.753  0.00  0.00    +0.000 S 
ATOM      8  C   UNL     1      -0.139  10.553  22.052  0.00  0.00    +0.000 A 
ATOM      9  N   UNL     1      -0.692  11.356  22.900  0.00  0.00    +0.000 NA
ATOM     10  C   UNL     1      -1.484  12.352  22.407  0.00  0.00    +0.000 A 
ATOM     11  C   UNL     1      -1.789  12.523  21.121  0.00  0.00    +0.000 A 
ATOM     12  C   UNL     1      -2.692  13.586  20.587  0.00  0.00    +0.000 C 
ATOM     13  C   UNL     1      -1.186  11.572  20.160  0.00  0.00    +0.000 A 
ATOM     14  O   UNL     1      -1.503  11.624  18.972  0.00  0.00    +0.000 OA
ATOM     15  N   UNL     1      -0.281  10.658  20.687  0.00  0.00    +0.000 N 
ATOM     16  C   UNL     1       0.305   9.747  19.712  0.00  0.00    +0.000 C 
ENDBRANCH   2   5
BRANCH   1  22
ATOM     17  C   UNL     1       2.687   4.672  18.398  0.00  0.00    +0.000 A 
ATOM     18  C   UNL     1       3.167   3.736  17.464  0.00  0.00    +0.000 A 
ATOM     19  C   UNL     1       4.198   4.075  16.589  0.00  0.00    +0.000 A 
ATOM     20  C   UNL     1       4.745   5.350  16.635  0.00  0.00    +0.000 A 
ATOM     21  C   UNL     1       4.243   6.296  17.532  0.00  0.00    +0.000 A 
ATOM     22  C   UNL     1       3.210   5.982  18.425  0.00  0.00    +0.000 A 
BRANCH  17  24
ATOM     23  C   UNL     1       1.006   2.560  18.795  0.00  0.00    +0.000 C 
ATOM     24  S   UNL     1       1.468   4.123  19.598  0.00  0.00    +0.000 S 
ENDBRANCH  17  24
ENDBRANCH   1  22
TORSDOF 3
ENDMDL
MODEL 4
REMARK VINA RESULT:      -6.8      2.615      8.261
REMARK  Name = 
REMARK  5 active torsions:
REMARK  status: ('A' for Active; 'I' for Inactive)
REMARK    1  A    between atoms: C_1  and  S_2
REMARK    2  A    between atoms: S_2  and  C_3
REMARK    3  A    between atoms: C_8  and  N_9
REMARK    4  A    between atoms: C_10  and  C_12
REMARK    5  A    between atoms: C_18  and  C_19
REMARK                            x       y       z     vdW  Elec       q    Type
REMARK                         _______ _______ _______ _____ _____    ______ ____
ROOT
ATOM      1  N   UNL     1       2.321   6.834  19.967  0.00  0.00    +0.000 N 
ATOM      2  C   UNL     1       1.835   8.066  19.572  0.00  0.00    +0.000 C 
ATOM      3  O   UNL     1       1.829   8.472  18.412  0.00  0.00    +0.000 OA
ATOM      4  H   UNL     1       2.417   6.625  20.959  0.00  0.00    +0.000 HD
ENDROOT
BRANCH   2   5
ATOM      5  C   UNL     1       1.340   8.982  20.685  0.00  0.00    +0.000 C 
ATOM      6  C   UNL     1       0.293   8.324  21.557  0.00  0.00    +0.000 C 
ATOM      7  S   UNL     1      -0.018   9.398  22.970  0.00  0.00    +0.000 S 
ATOM      8  C   UNL     1      -0.235  10.978  22.241  0.00  0.00    +0.000 A 
ATOM      9  N   UNL     1      -0.740  11.880  23.016  0.00  0.00    +0.000 NA
ATOM     10  C   UNL     1      -0.930  13.128  22.499  0.00  0.00    +0.000 A 
ATOM     11  C   UNL     1      -0.698  13.476  21.233  0.00  0.00    +0.000 A 
ATOM     12  C   UNL     1      -0.948  14.830  20.656  0.00  0.00    +0.000 C 
ATOM     13  C   UNL     1      -0.160  12.425  20.340  0.00  0.00    +0.000 A 
ATOM     14  O   UNL     1      -0.013  12.662  19.141  0.00  0.00    +0.000 OA
ATOM     15  N   UNL     1       0.144  11.208  20.938  0.00  0.00    +0.000 N 
ATOM     16  C   UNL     1       0.685  10.201  20.034  0.00  0.00    +0.000 C 
ENDBRANCH   2   5
BRANCH   1  22
ATOM     17  C   UNL     1       2.311   4.526  19.132  0.00  0.00    +0.000 A 
ATOM     18  C   UNL     1       2.791   3.541  18.250  0.00  0.00    +0.000 A 
ATOM     19  C   UNL     1       3.833   3.827  17.368  0.00  0.00    +0.000 A 
ATOM     20  C   UNL     1       4.391   5.098  17.357  0.00  0.00    +0.000 A 
ATOM     21  C   UNL     1       3.890   6.091  18.201  0.00  0.00    +0.000 A 
ATOM     22  C   UNL     1       2.847   5.831  19.099  0.00  0.00    +0.000 A 
BRANCH  17  24
ATOM     23  C   UNL     1       2.190   3.234  21.531  0.00  0.00    +0.000 C 
ATOM     24  S   UNL     1       1.078   4.047  20.346  0.00  0.00    +0.000 S 
ENDBRANCH  17  24
ENDBRANCH   1  22
TORSDOF 3
ENDMDL
MODEL 5
REMARK VINA RESULT:      -6.7      2.495      3.631
REMARK  Name = 
REMARK  5 active torsions:
REMARK  status: ('A' for Active; 'I' for Inactive)
REMARK    1  A    between atoms: C_1  and  S_2
REMARK    2  A    between atoms: S_2  and  C_3
REMARK    3  A    between atoms: C_8  and  N_9
REMARK    4  A    between atoms: C_10  and  C_12
REMARK    5  A    between atoms: C_18  and  C_19
REMARK                            x       y       z     vdW  Elec       q    Type
REMARK                         _______ _______ _______ _____ _____    ______ ____
ROOT
ATOM      1  N   UNL     1       0.882   9.013  19.004  0.00  0.00    +0.000 N 
ATOM      2  C   UNL     1       2.008   8.911  18.208  0.00  0.00    +0.000 C 
ATOM      3  O   UNL     1       2.268   9.664  17.271  0.00  0.00    +0.000 OA
ATOM      4  H   UNL     1       0.668   8.274  19.670  0.00  0.00    +0.000 HD
ENDROOT
BRANCH   2   5
ATOM      5  C   UNL     1       2.934   7.736  18.499  0.00  0.00    +0.000 C 
ATOM      6  C   UNL     1       3.599   7.198  17.252  0.00  0.00    +0.000 C 
ATOM      7  S   UNL     1       4.848   5.999  17.752  0.00  0.00    +0.000 S 
ATOM      8  C   UNL     1       3.999   4.982  18.899  0.00  0.00    +0.000 A 
ATOM      9  N   UNL     1       4.595   3.876  19.204  0.00  0.00    +0.000 NA
ATOM     10  C   UNL     1       3.977   3.047  20.093  0.00  0.00    +0.000 A 
ATOM     11  C   UNL     1       2.772   3.253  20.625  0.00  0.00    +0.000 A 
ATOM     12  C   UNL     1       2.078   2.322  21.564  0.00  0.00    +0.000 C 
ATOM     13  C   UNL     1       2.077   4.501  20.237  0.00  0.00    +0.000 A 
ATOM     14  O   UNL     1       0.926   4.701  20.623  0.00  0.00    +0.000 OA
ATOM     15  N   UNL     1       2.796   5.380  19.436  0.00  0.00    +0.000 N 
ATOM     16  C   UNL     1       2.088   6.605  19.085  0.00  0.00    +0.000 C 
ENDBRANCH   2   5
BRANCH   1  22
ATOM     17  C   UNL     1      -0.240  11.004  19.902  0.00  0.00    +0.000 A 
ATOM     18  C   UNL     1      -1.197  12.027  19.784  0.00  0.00    +0.000 A 
ATOM     19  C   UNL     1      -2.074  12.055  18.700  0.00  0.00    +0.000 A 
ATOM     20  C   UNL     1      -1.991  11.069  17.726  0.00  0.00    +0.000 A 
ATOM     21  C   UNL     1      -1.014  10.075  17.817  0.00  0.00    +0.000 A 
ATOM     22  C   UNL     1      -0.123  10.021  18.896  0.00  0.00    +0.000 A 
BRANCH  17  24
ATOM     23  C   UNL     1      -0.358   9.896  22.392  0.00  0.00    +0.000 C 
ATOM     24  S   UNL     1       0.752  10.938  21.398  0.00  0.00    +0.000 S 
ENDBRANCH  17  24
ENDBRANCH   1  22
TORSDOF 3
ENDMDL
MODEL 6
REMARK VINA RESULT:      -6.6      2.140      7.922
REMARK  Name = 
REMARK  5 active torsions:
REMARK  status: ('A' for Active; 'I' for Inactive)
REMARK    1  A    between atoms: C_1  and  S_2
REMARK    2  A    between atoms: S_2  and  C_3
REMARK    3  A    between atoms: C_8  and  N_9
REMARK    4  A    between atoms: C_10  and  C_12
REMARK    5  A    between atoms: C_18  and  C_19
REMARK                            x       y       z     vdW  Elec       q    Type
REMARK                         _______ _______ _______ _____ _____    ______ ____
ROOT
ATOM      1  N   UNL     1       2.408   7.423  18.994  0.00  0.00    +0.000 N 
ATOM      2  C   UNL     1       2.172   8.506  18.169  0.00  0.00    +0.000 C 
ATOM      3  O   UNL     1       2.699   8.673  17.071  0.00  0.00    +0.000 OA
ATOM      4  H   UNL     1       2.040   7.424  19.944  0.00  0.00    +0.000 HD
ENDROOT
BRANCH   2   5
ATOM      5  C   UNL     1       1.239   9.579  18.717  0.00  0.00    +0.000 C 
ATOM      6  C   UNL     1       0.966   9.411  20.196  0.00  0.00    +0.000 C 
ATOM      7  S   UNL     1       0.073  10.866  20.773  0.00  0.00    +0.000 S 
ATOM      8  C   UNL     1      -1.196  11.064  19.580  0.00  0.00    +0.000 A 
ATOM      9  N   UNL     1      -2.143  11.880  19.912  0.00  0.00    +0.000 NA
ATOM     10  C   UNL     1      -3.156  12.072  19.019  0.00  0.00    +0.000 A 
ATOM     11  C   UNL     1      -3.285  11.433  17.856  0.00  0.00    +0.000 A 
ATOM     12  C   UNL     1      -4.419  11.610  16.901  0.00  0.00    +0.000 C 
ATOM     13  C   UNL     1      -2.219  10.468  17.504  0.00  0.00    +0.000 A 
ATOM     14  O   UNL     1      -2.331   9.782  16.489  0.00  0.00    +0.000 OA
ATOM     15  N   UNL     1      -1.139  10.401  18.376  0.00  0.00    +0.000 N 
ATOM     16  C   UNL     1      -0.101   9.453  17.992  0.00  0.00    +0.000 C 
ENDBRANCH   2   5
BRANCH   1  22
ATOM     17  C   UNL     1       3.085   5.094  19.374  0.00  0.00    +0.000 A 
ATOM     18  C   UNL     1       3.886   3.984  19.051  0.00  0.00    +0.000 A 
ATOM     19  C   UNL     1       4.889   4.090  18.089  0.00  0.00    +0.000 A 
ATOM     20  C   UNL     1       5.090   5.300  17.439  0.00  0.00    +0.000 A 
ATOM     21  C   UNL     1       4.270   6.394  17.726  0.00  0.00    +0.000 A 
ATOM     22  C   UNL     1       3.256   6.316  18.690  0.00  0.00    +0.000 A 
BRANCH  17  24
ATOM     23  C   UNL     1       0.969   3.525  20.083  0.00  0.00    +0.000 C 
ATOM     24  S   UNL     1       1.919   4.933  20.730  0.00  0.00    +0.000 S 
ENDBRANCH  17  24
ENDBRANCH   1  22
TORSDOF 3
ENDMDL
MODEL 7
REMARK VINA RESULT:      -6.6      1.280      1.280
REMARK  Name = 
REMARK  5 active torsions:
REMARK  status: ('A' for Active; 'I' for Inactive)
REMARK    1  A    between atoms: C_1  and  S_2
REMARK    2  A    between atoms: S_2  and  C_3
REMARK    3  A    between atoms: C_8  and  N_9
REMARK    4  A    between atoms: C_10  and  C_12
REMARK    5  A    between atoms: C_18  and  C_19
REMARK                            x       y       z     vdW  Elec       q    Type
REMARK                         _______ _______ _______ _____ _____    ______ ____
ROOT
ATOM      1  N   UNL     1       1.595   9.345  17.986  0.00  0.00    +0.000 N 
ATOM      2  C   UNL     1       1.861   8.389  18.948  0.00  0.00    +0.000 C 
ATOM      3  O   UNL     1       1.873   8.604  20.158  0.00  0.00    +0.000 OA
ATOM      4  H   UNL     1       1.737   9.123  17.003  0.00  0.00    +0.000 HD
ENDROOT
BRANCH   2   5
ATOM      5  C   UNL     1       2.222   7.000  18.434  0.00  0.00    +0.000 C 
ATOM      6  C   UNL     1       2.339   5.981  19.547  0.00  0.00    +0.000 C 
ATOM      7  S   UNL     1       2.511   4.350  18.801  0.00  0.00    +0.000 S 
ATOM      8  C   UNL     1       3.752   4.587  17.585  0.00  0.00    +0.000 A 
ATOM      9  N   UNL     1       4.255   3.504  17.090  0.00  0.00    +0.000 NA
ATOM     10  C   UNL     1       5.225   3.632  16.140  0.00  0.00    +0.000 A 
ATOM     11  C   UNL     1       5.745   4.787  15.726  0.00  0.00    +0.000 A 
ATOM     12  C   UNL     1       6.838   4.924  14.718  0.00  0.00    +0.000 C 
ATOM     13  C   UNL     1       5.194   6.022  16.330  0.00  0.00    +0.000 A 
ATOM     14  O   UNL     1       5.698   7.110  16.055  0.00  0.00    +0.000 OA
ATOM     15  N   UNL     1       4.118   5.855  17.193  0.00  0.00    +0.000 N 
ATOM     16  C   UNL     1       3.590   7.090  17.758  0.00  0.00    +0.000 C 
ENDBRANCH   2   5
BRANCH   1  22
ATOM     17  C   UNL     1      -0.100  11.069  18.413  0.00  0.00    +0.000 A 
ATOM     18  C   UNL     1      -0.445  12.400  18.709  0.00  0.00    +0.000 A 
ATOM     19  C   UNL     1       0.538  13.385  18.787  0.00  0.00    +0.000 A 
ATOM     20  C   UNL     1       1.868  13.044  18.580  0.00  0.00    +0.000 A 
ATOM     21  C   UNL     1       2.220  11.716  18.328  0.00  0.00    +0.000 A 
ATOM     22  C   UNL     1       1.253  10.707  18.241  0.00  0.00    +0.000 A 
BRANCH  17  24
ATOM     23  C   UNL     1      -2.239  10.691  16.763  0.00  0.00    +0.000 C 
ATOM     24  S   UNL     1      -1.427   9.883  18.174  0.00  0.00    +0.000 S 
ENDBRANCH  17  24
ENDBRANCH   1  22
TORSDOF 3
ENDMDL
MODEL 8
REMARK VINA RESULT:      -6.4      2.686      8.283
REMARK  Name = 
REMARK  5 active torsions:
REMARK  status: ('A' for Active; 'I' for Inactive)
REMARK    1  A    between atoms: C_1  and  S_2
REMARK    2  A    between atoms: S_2  and  C_3
REMARK    3  A    between atoms: C_8  and  N_9
REMARK    4  A    between atoms: C_10  and  C_12
REMARK    5  A    between atoms: C_18  and  C_19
REMARK                            x       y       z     vdW  Elec       q    Type
REMARK                         _______ _______ _______ _____ _____    ______ ____
ROOT
ATOM      1  N   UNL     1       2.021   5.508  18.238  0.00  0.00    +0.000 N 
ATOM      2  C   UNL     1       2.627   6.596  18.836  0.00  0.00    +0.000 C 
ATOM      3  O   UNL     1       3.696   6.552  19.442  0.00  0.00    +0.000 OA
ATOM      4  H   UNL     1       1.073   5.596  17.875  0.00  0.00    +0.000 HD
ENDROOT
BRANCH   2   5
ATOM      5  C   UNL     1       1.858   7.911  18.778  0.00  0.00    +0.000 C 
ATOM      6  C   UNL     1       2.677   9.037  18.186  0.00  0.00    +0.000 C 
ATOM      7  S   UNL     1       1.590  10.453  17.935  0.00  0.00    +0.000 S 
ATOM      8  C   UNL     1       0.739  10.587  19.462  0.00  0.00    +0.000 A 
ATOM      9  N   UNL     1       0.092  11.693  19.638  0.00  0.00    +0.000 NA
ATOM     10  C   UNL     1      -0.588  11.850  20.810  0.00  0.00    +0.000 A 
ATOM     11  C   UNL     1      -0.587  10.980  21.820  0.00  0.00    +0.000 A 
ATOM     12  C   UNL     1      -1.296  11.173  23.120  0.00  0.00    +0.000 C 
ATOM     13  C   UNL     1       0.191   9.735  21.627  0.00  0.00    +0.000 A 
ATOM     14  O   UNL     1       0.305   8.939  22.558  0.00  0.00    +0.000 OA
ATOM     15  N   UNL     1       0.759   9.554  20.371  0.00  0.00    +0.000 N 
ATOM     16  C   UNL     1       1.505   8.313  20.210  0.00  0.00    +0.000 C 
ENDBRANCH   2   5
BRANCH   1  22
ATOM     17  C   UNL     1       2.080   3.206  19.088  0.00  0.00    +0.000 A 
ATOM     18  C   UNL     1       2.564   1.887  19.018  0.00  0.00    +0.000 A 
ATOM     19  C   UNL     1       3.551   1.543  18.095  0.00  0.00    +0.000 A 
ATOM     20  C   UNL     1       4.049   2.510  17.233  0.00  0.00    +0.000 A 
ATOM     21  C   UNL     1       3.541   3.811  17.269  0.00  0.00    +0.000 A 
ATOM     22  C   UNL     1       2.552   4.185  18.188  0.00  0.00    +0.000 A 
BRANCH  17  24
ATOM     23  C   UNL     1       1.684   2.630  21.725  0.00  0.00    +0.000 C 
ATOM     24  S   UNL     1       0.925   3.617  20.401  0.00  0.00    +0.000 S 
ENDBRANCH  17  24
ENDBRANCH   1  22
TORSDOF 3
ENDMDL
MODEL 9
REMARK VINA RESULT:      -6.4      2.412      8.197
REMARK  Name = 
REMARK  5 active torsions:
REMARK  status: ('A' for Active; 'I' for Inactive)
REMARK    1  A    between atoms: C_1  and  S_2
REMARK    2  A    between atoms: S_2  and  C_3
REMARK    3  A    between atoms: C_8  and  N_9
REMARK    4  A    between atoms: C_10  and  C_12
REMARK    5  A    between atoms: C_18  and  C_19
REMARK                            x       y       z     vdW  Elec       q    Type
REMARK                         _______ _______ _______ _____ _____    ______ ____
ROOT
ATOM      1  N   UNL     1       2.277   5.808  19.806  0.00  0.00    +0.000 N 
ATOM      2  C   UNL     1       2.140   7.040  19.194  0.00  0.00    +0.000 C 
ATOM      3  O   UNL     1       2.275   7.237  17.988  0.00  0.00    +0.000 OA
ATOM      4  H   UNL     1       2.286   5.749  20.822  0.00  0.00    +0.000 HD
ENDROOT
BRANCH   2   5
ATOM      5  C   UNL     1       1.869   8.223  20.116  0.00  0.00    +0.000 C 
ATOM      6  C   UNL     1       1.012   7.847  21.306  0.00  0.00    +0.000 C 
ATOM      7  S   UNL     1       0.978   9.248  22.439  0.00  0.00    +0.000 S 
ATOM      8  C   UNL     1       0.621  10.609  21.393  0.00  0.00    +0.000 A 
ATOM      9  N   UNL     1       0.275  11.696  22.001  0.00  0.00    +0.000 NA
ATOM     10  C   UNL     1      -0.014  12.787  21.234  0.00  0.00    +0.000 A 
ATOM     11  C   UNL     1      -0.032  12.804  19.901  0.00  0.00    +0.000 A 
ATOM     12  C   UNL     1      -0.391  13.987  19.063  0.00  0.00    +0.000 C 
ATOM     13  C   UNL     1       0.325  11.542  19.213  0.00  0.00    +0.000 A 
ATOM     14  O   UNL     1       0.236  11.472  17.988  0.00  0.00    +0.000 OA
ATOM     15  N   UNL     1       0.741  10.496  20.027  0.00  0.00    +0.000 N 
ATOM     16  C   UNL     1       1.098   9.274  19.317  0.00  0.00    +0.000 C 
ENDBRANCH   2   5
BRANCH   1  22
ATOM     17  C   UNL     1       3.882   4.214  18.853  0.00  0.00    +0.000 A 
ATOM     18  C   UNL     1       4.164   2.981  18.237  0.00  0.00    +0.000 A 
ATOM     19  C   UNL     1       3.130   2.126  17.858  0.00  0.00    +0.000 A 
ATOM     20  C   UNL     1       1.813   2.493  18.102  0.00  0.00    +0.000 A 
ATOM     21  C   UNL     1       1.530   3.696  18.751  0.00  0.00    +0.000 A 
ATOM     22  C   UNL     1       2.548   4.576  19.140  0.00  0.00    +0.000 A 
BRANCH  17  24
ATOM     23  C   UNL     1       6.433   4.636  17.985  0.00  0.00    +0.000 C 
ATOM     24  S   UNL     1       5.248   5.334  19.173  0.00  0.00    +0.000 S 
ENDBRANCH  17  24
ENDBRANCH   1  22
TORSDOF 3
ENDMDL
