MODEL 1
REMARK VINA RESULT:      -6.5      0.000      0.000
REMARK  Name = 
REMARK  2 active torsions:
REMARK  status: ('A' for Active; 'I' for Inactive)
REMARK    1  A    between atoms: C_1  and  C_2
REMARK    2  A    between atoms: N_4  and  C_5
REMARK                            x       y       z     vdW  Elec       q    Type
REMARK                         _______ _______ _______ _____ _____    ______ ____
ROOT
ATOM      1  C   UNL     1       4.805   4.402  17.251  0.00  0.00    +0.000 A 
ATOM      2  C   UNL     1       5.147   5.188  18.348  0.00  0.00    +0.000 A 
ATOM      3  C   UNL     1       4.316   5.268  19.465  0.00  0.00    +0.000 A 
ATOM      4  C   UNL     1       3.121   4.585  19.525  0.00  0.00    +0.000 A 
ATOM      5  N   UNL     1       2.389   4.681  20.646  0.00  0.00    +0.000 NA
ATOM      6  C   UNL     1       1.233   3.993  20.704  0.00  0.00    +0.000 A 
ATOM      7  C   UNL     1       0.759   3.207  19.673  0.00  0.00    +0.000 A 
ATOM      8  C   UNL     1       1.516   3.122  18.507  0.00  0.00    +0.000 A 
ATOM      9  C   UNL     1       2.732   3.815  18.408  0.00  0.00    +0.000 A 
ATOM     10  C   UNL     1       3.568   3.746  17.264  0.00  0.00    +0.000 A 
ENDROOT
BRANCH   1  14
ATOM     11  C   UNL     1       6.845   4.773  14.084  0.00  0.00    +0.000 C 
ATOM     12  C   UNL     1       5.896   5.199  15.172  0.00  0.00    +0.000 C 
ATOM     13  O   UNL     1       5.415   6.331  15.139  0.00  0.00    +0.000 OA
ATOM     14  N   UNL     1       5.679   4.239  16.145  0.00  0.00    +0.000 N 
ATOM     15  H   UNL     1       6.287   3.429  16.153  0.00  0.00    +0.000 HD
ENDBRANCH   1  14
TORSDOF 1
ENDMDL
MODEL 2
REMARK VINA RESULT:      -6.5      2.005      2.664
REMARK  Name = 
REMARK  2 active torsions:
REMARK  status: ('A' for Active; 'I' for Inactive)
REMARK    1  A    between atoms: C_1  and  C_2
REMARK    2  A    between atoms: N_4  and  C_5
REMARK                            x       y       z     vdW  Elec       q    Type
REMARK                         _______ _______ _______ _____ _____    ______ ____
ROOT
ATOM      1  C   UNL     1       4.660   5.631  17.768  0.00  0.00    +0.000 A 
ATOM      2  C   UNL     1       4.462   4.570  16.889  0.00  0.00    +0.000 A 
ATOM      3  C   UNL     1       3.464   3.623  17.116  0.00  0.00    +0.000 A 
ATOM      4  C   UNL     1       2.642   3.691  18.220  0.00  0.00    +0.000 A 
ATOM      5  N   UNL     1       1.680   2.765  18.355  0.00  0.00    +0.000 NA
ATOM      6  C   UNL     1       0.868   2.852  19.426  0.00  0.00    +0.000 A 
ATOM      7  C   UNL     1       0.980   3.831  20.392  0.00  0.00    +0.000 A 
ATOM      8  C   UNL     1       1.989   4.782  20.254  0.00  0.00    +0.000 A 
ATOM      9  C   UNL     1       2.851   4.734  19.148  0.00  0.00    +0.000 A 
ATOM     10  C   UNL     1       3.878   5.689  18.928  0.00  0.00    +0.000 A 
ENDROOT
BRANCH   1  14
ATOM     11  C   UNL     1       7.742   7.813  17.509  0.00  0.00    +0.000 C 
ATOM     12  C   UNL     1       6.945   6.589  17.870  0.00  0.00    +0.000 C 
ATOM     13  O   UNL     1       7.511   5.644  18.419  0.00  0.00    +0.000 OA
ATOM     14  N   UNL     1       5.611   6.652  17.508  0.00  0.00    +0.000 N 
ATOM     15  H   UNL     1       5.324   7.403  16.890  0.00  0.00    +0.000 HD
ENDBRANCH   1  14
TORSDOF 1
ENDMDL
MODEL 3
REMARK VINA RESULT:      -6.5      1.801      2.467
REMARK  Name = 
REMARK  2 active torsions:
REMARK  status: ('A' for Active; 'I' for Inactive)
REMARK    1  A    between atoms: C_1  and  C_2
REMARK    2  A    between atoms: N_4  and  C_5
REMARK                            x       y       z     vdW  Elec       q    Type
REMARK                         _______ _______ _______ _____ _____    ______ ____
ROOT
ATOM      1  C   UNL     1       5.144   5.027  18.308  0.00  0.00    +0.000 A 
ATOM      2  C   UNL     1       4.978   4.115  17.269  0.00  0.00    +0.000 A 
ATOM      3  C   UNL     1       3.850   3.298  17.200  0.00  0.00    +0.000 A 
ATOM      4  C   UNL     1       2.863   3.349  18.160  0.00  0.00    +0.000 A 
ATOM      5  N   UNL     1       1.789   2.558  18.010  0.00  0.00    +0.000 NA
ATOM      6  C   UNL     1       0.819   2.630  18.942  0.00  0.00    +0.000 A 
ATOM      7  C   UNL     1       0.876   3.463  20.042  0.00  0.00    +0.000 A 
ATOM      8  C   UNL     1       1.999   4.272  20.198  0.00  0.00    +0.000 A 
ATOM      9  C   UNL     1       3.029   4.235  19.246  0.00  0.00    +0.000 A 
ATOM     10  C   UNL     1       4.184   5.055  19.326  0.00  0.00    +0.000 A 
ENDROOT
BRANCH   1  14
ATOM     11  C   UNL     1       7.769   7.663  17.612  0.00  0.00    +0.000 C 
ATOM     12  C   UNL     1       6.535   6.843  17.352  0.00  0.00    +0.000 C 
ATOM     13  O   UNL     1       5.884   7.048  16.328  0.00  0.00    +0.000 OA
ATOM     14  N   UNL     1       6.240   5.927  18.346  0.00  0.00    +0.000 N 
ATOM     15  H   UNL     1       6.747   6.000  19.221  0.00  0.00    +0.000 HD
ENDBRANCH   1  14
TORSDOF 1
ENDMDL
MODEL 4
REMARK VINA RESULT:      -6.4      2.397      5.560
REMARK  Name = 
REMARK  2 active torsions:
REMARK  status: ('A' for Active; 'I' for Inactive)
REMARK    1  A    between atoms: C_1  and  C_2
REMARK    2  A    between atoms: N_4  and  C_5
REMARK                            x       y       z     vdW  Elec       q    Type
REMARK                         _______ _______ _______ _____ _____    ______ ____
ROOT
ATOM      1  C   UNL     1       4.509   4.456  18.642  0.00  0.00    +0.000 A 
ATOM      2  C   UNL     1       5.615   5.240  18.959  0.00  0.00    +0.000 A 
ATOM      3  C   UNL     1       6.565   5.569  17.992  0.00  0.00    +0.000 A 
ATOM      4  C   UNL     1       6.455   5.125  16.693  0.00  0.00    +0.000 A 
ATOM      5  N   UNL     1       7.389   5.511  15.808  0.00  0.00    +0.000 NA
ATOM      6  C   UNL     1       7.262   5.089  14.535  0.00  0.00    +0.000 A 
ATOM      7  C   UNL     1       6.235   4.277  14.098  0.00  0.00    +0.000 A 
ATOM      8  C   UNL     1       5.277   3.870  15.023  0.00  0.00    +0.000 A 
ATOM      9  C   UNL     1       5.365   4.294  16.358  0.00  0.00    +0.000 A 
ATOM     10  C   UNL     1       4.407   3.944  17.344  0.00  0.00    +0.000 A 
ENDROOT
BRANCH   1  14
ATOM     11  C   UNL     1       2.237   2.986  21.289  0.00  0.00    +0.000 C 
ATOM     12  C   UNL     1       3.439   3.056  20.387  0.00  0.00    +0.000 C 
ATOM     13  O   UNL     1       4.276   2.155  20.431  0.00  0.00    +0.000 OA
ATOM     14  N   UNL     1       3.487   4.186  19.590  0.00  0.00    +0.000 N 
ATOM     15  H   UNL     1       2.838   4.936  19.795  0.00  0.00    +0.000 HD
ENDBRANCH   1  14
TORSDOF 1
ENDMDL
MODEL 5
REMARK VINA RESULT:      -6.3      1.118      1.118
REMARK  Name = 
REMARK  2 active torsions:
REMARK  status: ('A' for Active; 'I' for Inactive)
REMARK    1  A    between atoms: C_1  and  C_2
REMARK    2  A    between atoms: N_4  and  C_5
REMARK                            x       y       z     vdW  Elec       q    Type
REMARK                         _______ _______ _______ _____ _____    ______ ____
ROOT
ATOM      1  C   UNL     1       4.282   4.875  17.159  0.00  0.00    +0.000 A 
ATOM      2  C   UNL     1       4.329   5.922  18.076  0.00  0.00    +0.000 A 
ATOM      3  C   UNL     1       3.657   5.843  19.295  0.00  0.00    +0.000 A 
ATOM      4  C   UNL     1       2.912   4.736  19.637  0.00  0.00    +0.000 A 
ATOM      5  N   UNL     1       2.320   4.715  20.843  0.00  0.00    +0.000 NA
ATOM      6  C   UNL     1       1.611   3.620  21.177  0.00  0.00    +0.000 A 
ATOM      7  C   UNL     1       1.452   2.529  20.346  0.00  0.00    +0.000 A 
ATOM      8  C   UNL     1       2.057   2.562  19.092  0.00  0.00    +0.000 A 
ATOM      9  C   UNL     1       2.814   3.680  18.706  0.00  0.00    +0.000 A 
ATOM     10  C   UNL     1       3.483   3.765  17.458  0.00  0.00    +0.000 A 
ENDROOT
BRANCH   1  14
ATOM     11  C   UNL     1       6.957   4.775  14.484  0.00  0.00    +0.000 C 
ATOM     12  C   UNL     1       6.390   4.655  15.872  0.00  0.00    +0.000 C 
ATOM     13  O   UNL     1       7.134   4.338  16.799  0.00  0.00    +0.000 OA
ATOM     14  N   UNL     1       5.031   4.901  15.954  0.00  0.00    +0.000 N 
ATOM     15  H   UNL     1       4.508   4.959  15.087  0.00  0.00    +0.000 HD
ENDBRANCH   1  14
TORSDOF 1
ENDMDL
MODEL 6
REMARK VINA RESULT:      -6.3      2.320      5.795
REMARK  Name = 
REMARK  2 active torsions:
REMARK  status: ('A' for Active; 'I' for Inactive)
REMARK    1  A    between atoms: C_1  and  C_2
REMARK    2  A    between atoms: N_4  and  C_5
REMARK                            x       y       z     vdW  Elec       q    Type
REMARK                         _______ _______ _______ _____ _____    ______ ____
ROOT
ATOM      1  C   UNL     1       4.921   4.719  17.619  0.00  0.00    +0.000 A 
ATOM      2  C   UNL     1       6.044   5.512  17.837  0.00  0.00    +0.000 A 
ATOM      3  C   UNL     1       6.973   5.740  16.822  0.00  0.00    +0.000 A 
ATOM      4  C   UNL     1       6.825   5.183  15.571  0.00  0.00    +0.000 A 
ATOM      5  N   UNL     1       7.740   5.474  14.632  0.00  0.00    +0.000 NA
ATOM      6  C   UNL     1       7.576   4.942  13.406  0.00  0.00    +0.000 A 
ATOM      7  C   UNL     1       6.528   4.108  13.069  0.00  0.00    +0.000 A 
ATOM      8  C   UNL     1       5.589   3.799  14.050  0.00  0.00    +0.000 A 
ATOM      9  C   UNL     1       5.716   4.340  15.339  0.00  0.00    +0.000 A 
ATOM     10  C   UNL     1       4.780   4.094  16.375  0.00  0.00    +0.000 A 
ENDROOT
BRANCH   1  14
ATOM     11  C   UNL     1       2.759   3.583  20.511  0.00  0.00    +0.000 C 
ATOM     12  C   UNL     1       3.954   3.577  19.597  0.00  0.00    +0.000 C 
ATOM     13  O   UNL     1       4.852   2.759  19.789  0.00  0.00    +0.000 OA
ATOM     14  N   UNL     1       3.921   4.549  18.613  0.00  0.00    +0.000 N 
ATOM     15  H   UNL     1       3.220   5.277  18.690  0.00  0.00    +0.000 HD
ENDBRANCH   1  14
TORSDOF 1
ENDMDL
MODEL 7
REMARK VINA RESULT:      -6.2      1.979      5.419
REMARK  Name = 
REMARK  2 active torsions:
REMARK  status: ('A' for Active; 'I' for Inactive)
REMARK    1  A    between atoms: C_1  and  C_2
REMARK    2  A    between atoms: N_4  and  C_5
REMARK                            x       y       z     vdW  Elec       q    Type
REMARK                         _______ _______ _______ _____ _____    ______ ____
ROOT
ATOM      1  C   UNL     1       4.643   4.347  18.627  0.00  0.00    +0.000 A 
ATOM      2  C   UNL     1       5.757   5.130  18.918  0.00  0.00    +0.000 A 
ATOM      3  C   UNL     1       6.674   5.476  17.926  0.00  0.00    +0.000 A 
ATOM      4  C   UNL     1       6.522   5.050  16.624  0.00  0.00    +0.000 A 
ATOM      5  N   UNL     1       7.424   5.451  15.714  0.00  0.00    +0.000 NA
ATOM      6  C   UNL     1       7.257   5.048  14.440  0.00  0.00    +0.000 A 
ATOM      7  C   UNL     1       6.217   4.239  14.026  0.00  0.00    +0.000 A 
ATOM      8  C   UNL     1       5.292   3.815  14.976  0.00  0.00    +0.000 A 
ATOM      9  C   UNL     1       5.423   4.220  16.313  0.00  0.00    +0.000 A 
ATOM     10  C   UNL     1       4.499   3.853  17.325  0.00  0.00    +0.000 A 
ENDROOT
BRANCH   1  14
ATOM     11  C   UNL     1       1.657   4.340  20.953  0.00  0.00    +0.000 C 
ATOM     12  C   UNL     1       2.538   4.841  19.841  0.00  0.00    +0.000 C 
ATOM     13  O   UNL     1       2.211   5.856  19.227  0.00  0.00    +0.000 OA
ATOM     14  N   UNL     1       3.655   4.059  19.605  0.00  0.00    +0.000 N 
ATOM     15  H   UNL     1       3.698   3.150  20.051  0.00  0.00    +0.000 HD
ENDBRANCH   1  14
TORSDOF 1
ENDMDL
MODEL 8
REMARK VINA RESULT:      -6.2      2.737      5.716
REMARK  Name = 
REMARK  2 active torsions:
REMARK  status: ('A' for Active; 'I' for Inactive)
REMARK    1  A    between atoms: C_1  and  C_2
REMARK    2  A    between atoms: N_4  and  C_5
REMARK                            x       y       z     vdW  Elec       q    Type
REMARK                         _______ _______ _______ _____ _____    ______ ____
ROOT
ATOM      1  C   UNL     1       3.783   4.455  19.030  0.00  0.00    +0.000 A 
ATOM      2  C   UNL     1       3.362   5.103  17.872  0.00  0.00    +0.000 A 
ATOM      3  C   UNL     1       4.215   5.960  17.176  0.00  0.00    +0.000 A 
ATOM      4  C   UNL     1       5.499   6.208  17.610  0.00  0.00    +0.000 A 
ATOM      5  N   UNL     1       6.275   7.016  16.870  0.00  0.00    +0.000 NA
ATOM      6  C   UNL     1       7.536   7.237  17.290  0.00  0.00    +0.000 A 
ATOM      7  C   UNL     1       8.065   6.687  18.441  0.00  0.00    +0.000 A 
ATOM      8  C   UNL     1       7.251   5.859  19.211  0.00  0.00    +0.000 A 
ATOM      9  C   UNL     1       5.934   5.595  18.805  0.00  0.00    +0.000 A 
ATOM     10  C   UNL     1       5.062   4.737  19.523  0.00  0.00    +0.000 A 
ENDROOT
BRANCH   1  14
ATOM     11  C   UNL     1       1.351   2.646  21.297  0.00  0.00    +0.000 C 
ATOM     12  C   UNL     1       2.088   3.827  20.729  0.00  0.00    +0.000 C 
ATOM     13  O   UNL     1       1.862   4.950  21.179  0.00  0.00    +0.000 OA
ATOM     14  N   UNL     1       2.959   3.513  19.701  0.00  0.00    +0.000 N 
ATOM     15  H   UNL     1       2.903   2.583  19.302  0.00  0.00    +0.000 HD
ENDBRANCH   1  14
TORSDOF 1
ENDMDL
MODEL 9
REMARK VINA RESULT:      -6.2      1.428      2.018
REMARK  Name = 
REMARK  2 active torsions:
REMARK  status: ('A' for Active; 'I' for Inactive)
REMARK    1  A    between atoms: C_1  and  C_2
REMARK    2  A    between atoms: N_4  and  C_5
REMARK                            x       y       z     vdW  Elec       q    Type
REMARK                         _______ _______ _______ _____ _____    ______ ____
ROOT
ATOM      1  C   UNL     1       4.184   3.466  17.341  0.00  0.00    +0.000 A 
ATOM      2  C   UNL     1       2.893   3.754  16.909  0.00  0.00    +0.000 A 
ATOM      3  C   UNL     1       1.809   3.694  17.786  0.00  0.00    +0.000 A 
ATOM      4  C   UNL     1       1.971   3.337  19.107  0.00  0.00    +0.000 A 
ATOM      5  N   UNL     1       0.888   3.334  19.901  0.00  0.00    +0.000 NA
ATOM      6  C   UNL     1       1.058   3.004  21.196  0.00  0.00    +0.000 A 
ATOM      7  C   UNL     1       2.278   2.660  21.743  0.00  0.00    +0.000 A 
ATOM      8  C   UNL     1       3.395   2.652  20.911  0.00  0.00    +0.000 A 
ATOM      9  C   UNL     1       3.265   2.998  19.557  0.00  0.00    +0.000 A 
ATOM     10  C   UNL     1       4.365   3.042  18.663  0.00  0.00    +0.000 A 
ENDROOT
BRANCH   1  14
ATOM     11  C   UNL     1       6.982   4.703  15.112  0.00  0.00    +0.000 C 
ATOM     12  C   UNL     1       5.800   4.820  16.035  0.00  0.00    +0.000 C 
ATOM     13  O   UNL     1       5.380   5.937  16.334  0.00  0.00    +0.000 OA
ATOM     14  N   UNL     1       5.309   3.608  16.485  0.00  0.00    +0.000 N 
ATOM     15  H   UNL     1       5.867   2.779  16.317  0.00  0.00    +0.000 HD
ENDBRANCH   1  14
TORSDOF 1
ENDMDL
