MODEL 1
REMARK VINA RESULT:      -8.0      0.000      0.000
REMARK  Name = 
REMARK  9 active torsions:
REMARK  status: ('A' for Active; 'I' for Inactive)
REMARK    1  A    between atoms: C_1  and  C_2
REMARK    2  A    between atoms: C_2  and  C_3
REMARK    3  A    between atoms: C_3  and  C_4
REMARK    4  A    between atoms: N_6  and  C_7
REMARK    5  A    between atoms: C_7  and  C_8
REMARK    6  A    between atoms: C_14  and  N_15
REMARK    7  A    between atoms: N_15  and  C_16
REMARK    8  A    between atoms: C_17  and  C_19
REMARK    9  A    between atoms: C_22  and  C_23
REMARK                            x       y       z     vdW  Elec       q    Type
REMARK                         _______ _______ _______ _____ _____    ______ ____
ROOT
ATOM      1  C   UNL     1       1.907   5.305  20.134  0.00  0.00    +0.000 C 
ATOM      2  O   UNL     1       1.698   4.971  21.306  0.00  0.00    +0.000 OA
ATOM      3  N   UNL     1       1.826   4.387  19.091  0.00  0.00    +0.000 N 
ATOM      4  C   UNL     1       1.422   2.999  19.308  0.00  0.00    +0.000 C 
ATOM      5  C   UNL     1       2.512   1.989  18.933  0.00  0.00    +0.000 C 
ATOM      6  C   UNL     1       3.229   2.336  17.618  0.00  0.00    +0.000 C 
ATOM      7  C   UNL     1       3.653   3.815  17.532  0.00  0.00    +0.000 C 
ATOM      8  C   UNL     1       2.351   4.637  17.769  0.00  0.00    +0.000 C 
ENDROOT
BRANCH   7   9
ATOM      9  N   UNL     1       4.841   4.168  18.401  0.00  0.00    +0.000 N 
ATOM     10  C   UNL     1       4.708   4.071  19.852  0.00  0.00    +0.000 C 
ATOM     11  C   UNL     1       6.172   4.295  17.941  0.00  0.00    +0.000 C 
ATOM     12  O   UNL     1       7.146   4.281  18.707  0.00  0.00    +0.000 OA
BRANCH  11  13
ATOM     13  C   UNL     1       6.468   4.446  16.502  0.00  0.00    +0.000 A 
ATOM     14  C   UNL     1       5.794   3.742  15.507  0.00  0.00    +0.000 A 
ATOM     15  C   UNL     1       6.136   3.842  14.177  0.00  0.00    +0.000 A 
ATOM     16  C   UNL     1       7.098   4.758  13.853  0.00  0.00    +0.000 A 
ATOM     17  N   UNL     1       7.746   5.553  14.765  0.00  0.00    +0.000 NA
ATOM     18  C   UNL     1       7.413   5.366  16.076  0.00  0.00    +0.000 A 
BRANCH  16  19
ATOM     19  C   UNL     1       7.414   4.965  12.415  0.00  0.00    +0.000 C 
ATOM     20  N   UNL     1       7.181   3.894  11.616  0.00  0.00    +0.000 N 
ATOM     21  O   UNL     1       7.863   6.029  11.982  0.00  0.00    +0.000 OA
ATOM     22  H   UNL     1       6.863   3.023  12.031  0.00  0.00    +0.000 HD
ATOM     23  H   UNL     1       7.432   3.946  10.634  0.00  0.00    +0.000 HD
ENDBRANCH  16  19
ENDBRANCH  11  13
ENDBRANCH   7   9
BRANCH   1  24
ATOM     24  C   UNL     1       2.118   6.799  19.804  0.00  0.00    +0.000 C 
BRANCH  24  27
ATOM     25  C   UNL     1       1.110   8.837  20.788  0.00  0.00    +0.000 C 
ATOM     26  O   UNL     1       0.758   9.270  19.691  0.00  0.00    +0.000 OA
ATOM     27  N   UNL     1       1.746   7.631  20.943  0.00  0.00    +0.000 N 
ATOM     28  H   UNL     1       1.938   7.270  21.871  0.00  0.00    +0.000 HD
BRANCH  25  29
ATOM     29  C   UNL     1       0.848   9.606  22.069  0.00  0.00    +0.000 C 
BRANCH  29  31
ATOM     30  C   UNL     1      -1.122  10.850  23.087  0.00  0.00    +0.000 C 
ATOM     31  C   UNL     1      -0.169  10.734  21.905  0.00  0.00    +0.000 C 
ENDBRANCH  29  31
ENDBRANCH  25  29
ENDBRANCH  24  27
ENDBRANCH   1  24
TORSDOF 7
ENDMDL
MODEL 2
REMARK VINA RESULT:      -7.9      1.541      1.668
REMARK  Name = 
REMARK  9 active torsions:
REMARK  status: ('A' for Active; 'I' for Inactive)
REMARK    1  A    between atoms: C_1  and  C_2
REMARK    2  A    between atoms: C_2  and  C_3
REMARK    3  A    between atoms: C_3  and  C_4
REMARK    4  A    between atoms: N_6  and  C_7
REMARK    5  A    between atoms: C_7  and  C_8
REMARK    6  A    between atoms: C_14  and  N_15
REMARK    7  A    between atoms: N_15  and  C_16
REMARK    8  A    between atoms: C_17  and  C_19
REMARK    9  A    between atoms: C_22  and  C_23
REMARK                            x       y       z     vdW  Elec       q    Type
REMARK                         _______ _______ _______ _____ _____    ______ ____
ROOT
ATOM      1  C   UNL     1       1.893   6.014  19.800  0.00  0.00    +0.000 C 
ATOM      2  O   UNL     1       1.572   5.996  20.994  0.00  0.00    +0.000 OA
ATOM      3  N   UNL     1       1.744   4.892  18.990  0.00  0.00    +0.000 N 
ATOM      4  C   UNL     1       1.138   3.656  19.481  0.00  0.00    +0.000 C 
ATOM      5  C   UNL     1       2.096   2.459  19.444  0.00  0.00    +0.000 C 
ATOM      6  C   UNL     1       2.929   2.394  18.153  0.00  0.00    +0.000 C 
ATOM      7  C   UNL     1       3.561   3.747  17.771  0.00  0.00    +0.000 C 
ATOM      8  C   UNL     1       2.375   4.755  17.698  0.00  0.00    +0.000 C 
ENDROOT
BRANCH   7   9
ATOM      9  N   UNL     1       4.734   4.148  18.639  0.00  0.00    +0.000 N 
ATOM     10  C   UNL     1       4.598   4.070  20.091  0.00  0.00    +0.000 C 
ATOM     11  C   UNL     1       6.063   4.306  18.182  0.00  0.00    +0.000 C 
ATOM     12  O   UNL     1       7.033   4.332  18.952  0.00  0.00    +0.000 OA
BRANCH  11  13
ATOM     13  C   UNL     1       6.361   4.442  16.743  0.00  0.00    +0.000 A 
ATOM     14  C   UNL     1       5.677   3.740  15.753  0.00  0.00    +0.000 A 
ATOM     15  C   UNL     1       6.020   3.826  14.422  0.00  0.00    +0.000 A 
ATOM     16  C   UNL     1       6.994   4.726  14.091  0.00  0.00    +0.000 A 
ATOM     17  N   UNL     1       7.654   5.519  14.997  0.00  0.00    +0.000 NA
ATOM     18  C   UNL     1       7.318   5.345  16.309  0.00  0.00    +0.000 A 
BRANCH  16  19
ATOM     19  C   UNL     1       7.313   4.918  12.652  0.00  0.00    +0.000 C 
ATOM     20  N   UNL     1       8.008   6.047  12.364  0.00  0.00    +0.000 N 
ATOM     21  O   UNL     1       6.963   4.117  11.782  0.00  0.00    +0.000 OA
ATOM     22  H   UNL     1       8.225   6.702  13.109  0.00  0.00    +0.000 HD
ATOM     23  H   UNL     1       8.207   6.272  11.394  0.00  0.00    +0.000 HD
ENDBRANCH  16  19
ENDBRANCH  11  13
ENDBRANCH   7   9
BRANCH   1  24
ATOM     24  C   UNL     1       2.329   7.350  19.159  0.00  0.00    +0.000 C 
BRANCH  24  27
ATOM     25  C   UNL     1       1.098   9.447  18.687  0.00  0.00    +0.000 C 
ATOM     26  O   UNL     1       1.506   9.501  17.527  0.00  0.00    +0.000 OA
ATOM     27  N   UNL     1       1.418   8.422  19.542  0.00  0.00    +0.000 N 
ATOM     28  H   UNL     1       0.989   8.369  20.459  0.00  0.00    +0.000 HD
BRANCH  25  29
ATOM     29  C   UNL     1       0.184  10.514  19.260  0.00  0.00    +0.000 C 
BRANCH  29  31
ATOM     30  C   UNL     1      -2.009   9.993  18.084  0.00  0.00    +0.000 C 
ATOM     31  C   UNL     1      -0.880  10.996  18.276  0.00  0.00    +0.000 C 
ENDBRANCH  29  31
ENDBRANCH  25  29
ENDBRANCH  24  27
ENDBRANCH   1  24
TORSDOF 7
ENDMDL
MODEL 3
REMARK VINA RESULT:      -7.8      1.187      1.340
REMARK  Name = 
REMARK  9 active torsions:
REMARK  status: ('A' for Active; 'I' for Inactive)
REMARK    1  A    between atoms: C_1  and  C_2
REMARK    2  A    between atoms: C_2  and  C_3
REMARK    3  A    between atoms: C_3  and  C_4
REMARK    4  A    between atoms: N_6  and  C_7
REMARK    5  A    between atoms: C_7  and  C_8
REMARK    6  A    between atoms: C_14  and  N_15
REMARK    7  A    between atoms: N_15  and  C_16
REMARK    8  A    between atoms: C_17  and  C_19
REMARK    9  A    between atoms: C_22  and  C_23
REMARK                            x       y       z     vdW  Elec       q    Type
REMARK                         _______ _______ _______ _____ _____    ______ ____
ROOT
ATOM      1  C   UNL     1       1.891   5.937  19.632  0.00  0.00    +0.000 C 
ATOM      2  O   UNL     1       1.546   5.940  20.819  0.00  0.00    +0.000 OA
ATOM      3  N   UNL     1       1.780   4.793  18.846  0.00  0.00    +0.000 N 
ATOM      4  C   UNL     1       1.188   3.557  19.353  0.00  0.00    +0.000 C 
ATOM      5  C   UNL     1       2.169   2.379  19.363  0.00  0.00    +0.000 C 
ATOM      6  C   UNL     1       3.029   2.300  18.091  0.00  0.00    +0.000 C 
ATOM      7  C   UNL     1       3.643   3.656  17.691  0.00  0.00    +0.000 C 
ATOM      8  C   UNL     1       2.440   4.639  17.570  0.00  0.00    +0.000 C 
ENDROOT
BRANCH   7   9
ATOM      9  N   UNL     1       4.790   4.100  18.573  0.00  0.00    +0.000 N 
ATOM     10  C   UNL     1       4.642   4.009  20.022  0.00  0.00    +0.000 C 
ATOM     11  C   UNL     1       6.116   4.313  18.130  0.00  0.00    +0.000 C 
ATOM     12  O   UNL     1       7.077   4.374  18.910  0.00  0.00    +0.000 OA
BRANCH  11  13
ATOM     13  C   UNL     1       6.423   4.469  16.694  0.00  0.00    +0.000 A 
ATOM     14  C   UNL     1       5.793   3.729  15.695  0.00  0.00    +0.000 A 
ATOM     15  C   UNL     1       6.146   3.836  14.369  0.00  0.00    +0.000 A 
ATOM     16  C   UNL     1       7.070   4.792  14.051  0.00  0.00    +0.000 A 
ATOM     17  N   UNL     1       7.672   5.621  14.965  0.00  0.00    +0.000 NA
ATOM     18  C   UNL     1       7.331   5.426  16.273  0.00  0.00    +0.000 A 
BRANCH  16  19
ATOM     19  C   UNL     1       7.395   5.005  12.615  0.00  0.00    +0.000 C 
ATOM     20  N   UNL     1       7.047   3.985  11.791  0.00  0.00    +0.000 N 
ATOM     21  O   UNL     1       7.947   6.029  12.206  0.00  0.00    +0.000 OA
ATOM     22  H   UNL     1       6.645   3.140  12.186  0.00  0.00    +0.000 HD
ATOM     23  H   UNL     1       7.294   4.037  10.808  0.00  0.00    +0.000 HD
ENDBRANCH  16  19
ENDBRANCH  11  13
ENDBRANCH   7   9
BRANCH   1  24
ATOM     24  C   UNL     1       2.316   7.266  18.969  0.00  0.00    +0.000 C 
BRANCH  24  27
ATOM     25  C   UNL     1       1.103   9.426  19.012  0.00  0.00    +0.000 C 
ATOM     26  O   UNL     1       0.943   9.433  17.792  0.00  0.00    +0.000 OA
ATOM     27  N   UNL     1       1.729   8.399  19.674  0.00  0.00    +0.000 N 
ATOM     28  H   UNL     1       1.760   8.389  20.688  0.00  0.00    +0.000 HD
BRANCH  25  29
ATOM     29  C   UNL     1       0.600  10.557  19.889  0.00  0.00    +0.000 C 
BRANCH  29  31
ATOM     30  C   UNL     1       0.343  12.998  19.224  0.00  0.00    +0.000 C 
ATOM     31  C   UNL     1       1.304  11.888  19.628  0.00  0.00    +0.000 C 
ENDBRANCH  29  31
ENDBRANCH  25  29
ENDBRANCH  24  27
ENDBRANCH   1  24
TORSDOF 7
ENDMDL
MODEL 4
REMARK VINA RESULT:      -7.4      2.408      8.591
REMARK  Name = 
REMARK  9 active torsions:
REMARK  status: ('A' for Active; 'I' for Inactive)
REMARK    1  A    between atoms: C_1  and  C_2
REMARK    2  A    between atoms: C_2  and  C_3
REMARK    3  A    between atoms: C_3  and  C_4
REMARK    4  A    between atoms: N_6  and  C_7
REMARK    5  A    between atoms: C_7  and  C_8
REMARK    6  A    between atoms: C_14  and  N_15
REMARK    7  A    between atoms: N_15  and  C_16
REMARK    8  A    between atoms: C_17  and  C_19
REMARK    9  A    between atoms: C_22  and  C_23
REMARK                            x       y       z     vdW  Elec       q    Type
REMARK                         _______ _______ _______ _____ _____    ______ ____
ROOT
ATOM      1  C   UNL     1       6.354   4.403  15.410  0.00  0.00    +0.000 C 
ATOM      2  O   UNL     1       6.733   3.234  15.277  0.00  0.00    +0.000 OA
ATOM      3  N   UNL     1       6.703   5.157  16.527  0.00  0.00    +0.000 N 
ATOM      4  C   UNL     1       7.590   4.640  17.567  0.00  0.00    +0.000 C 
ATOM      5  C   UNL     1       6.918   4.548  18.941  0.00  0.00    +0.000 C 
ATOM      6  C   UNL     1       6.053   5.775  19.273  0.00  0.00    +0.000 C 
ATOM      7  C   UNL     1       5.120   6.188  18.118  0.00  0.00    +0.000 C 
ATOM      8  C   UNL     1       6.050   6.395  16.885  0.00  0.00    +0.000 C 
ENDROOT
BRANCH   7   9
ATOM      9  N   UNL     1       3.935   5.268  17.921  0.00  0.00    +0.000 N 
ATOM     10  C   UNL     1       4.177   3.860  17.619  0.00  0.00    +0.000 C 
ATOM     11  C   UNL     1       2.606   5.567  18.300  0.00  0.00    +0.000 C 
ATOM     12  O   UNL     1       1.731   4.696  18.406  0.00  0.00    +0.000 OA
BRANCH  11  13
ATOM     13  C   UNL     1       2.193   6.953  18.597  0.00  0.00    +0.000 A 
ATOM     14  C   UNL     1       2.060   7.935  17.617  0.00  0.00    +0.000 A 
ATOM     15  C   UNL     1       1.746   9.240  17.923  0.00  0.00    +0.000 A 
ATOM     16  C   UNL     1       1.451   9.515  19.230  0.00  0.00    +0.000 A 
ATOM     17  N   UNL     1       1.473   8.585  20.239  0.00  0.00    +0.000 NA
ATOM     18  C   UNL     1       1.854   7.321  19.889  0.00  0.00    +0.000 A 
BRANCH  16  19
ATOM     19  C   UNL     1       1.005  10.891  19.575  0.00  0.00    +0.000 C 
ATOM     20  N   UNL     1       0.994  11.174  20.901  0.00  0.00    +0.000 N 
ATOM     21  O   UNL     1       0.661  11.710  18.720  0.00  0.00    +0.000 OA
ATOM     22  H   UNL     1       1.234  10.447  21.569  0.00  0.00    +0.000 HD
ATOM     23  H   UNL     1       0.643  12.075  21.212  0.00  0.00    +0.000 HD
ENDBRANCH  16  19
ENDBRANCH  11  13
ENDBRANCH   7   9
BRANCH   1  24
ATOM     24  C   UNL     1       5.601   5.086  14.247  0.00  0.00    +0.000 C 
BRANCH  24  27
ATOM     25  C   UNL     1       5.768   3.625  12.253  0.00  0.00    +0.000 C 
ATOM     26  O   UNL     1       6.925   3.973  12.016  0.00  0.00    +0.000 OA
ATOM     27  N   UNL     1       5.059   4.088  13.334  0.00  0.00    +0.000 N 
ATOM     28  H   UNL     1       4.142   3.708  13.543  0.00  0.00    +0.000 HD
BRANCH  25  29
ATOM     29  C   UNL     1       5.037   2.634  11.368  0.00  0.00    +0.000 C 
BRANCH  29  31
ATOM     30  C   UNL     1       3.366   3.922   9.950  0.00  0.00    +0.000 C 
ATOM     31  C   UNL     1       3.570   2.991  11.137  0.00  0.00    +0.000 C 
ENDBRANCH  29  31
ENDBRANCH  25  29
ENDBRANCH  24  27
ENDBRANCH   1  24
TORSDOF 7
ENDMDL
MODEL 5
REMARK VINA RESULT:      -7.3      5.095      9.919
REMARK  Name = 
REMARK  9 active torsions:
REMARK  status: ('A' for Active; 'I' for Inactive)
REMARK    1  A    between atoms: C_1  and  C_2
REMARK    2  A    between atoms: C_2  and  C_3
REMARK    3  A    between atoms: C_3  and  C_4
REMARK    4  A    between atoms: N_6  and  C_7
REMARK    5  A    between atoms: C_7  and  C_8
REMARK    6  A    between atoms: C_14  and  N_15
REMARK    7  A    between atoms: N_15  and  C_16
REMARK    8  A    between atoms: C_17  and  C_19
REMARK    9  A    between atoms: C_22  and  C_23
REMARK                            x       y       z     vdW  Elec       q    Type
REMARK                         _______ _______ _______ _____ _____    ______ ____
ROOT
ATOM      1  C   UNL     1       0.913  10.642  20.730  0.00  0.00    +0.000 C 
ATOM      2  O   UNL     1       1.279  10.518  21.905  0.00  0.00    +0.000 OA
ATOM      3  N   UNL     1       1.041  11.852  20.054  0.00  0.00    +0.000 N 
ATOM      4  C   UNL     1       1.675  13.019  20.663  0.00  0.00    +0.000 C 
ATOM      5  C   UNL     1       0.726  14.215  20.804  0.00  0.00    +0.000 C 
ATOM      6  C   UNL     1      -0.154  14.435  19.563  0.00  0.00    +0.000 C 
ATOM      7  C   UNL     1      -0.811  13.139  19.048  0.00  0.00    +0.000 C 
ATOM      8  C   UNL     1       0.363  12.143  18.812  0.00  0.00    +0.000 C 
ENDROOT
BRANCH   7   9
ATOM      9  N   UNL     1      -1.954  12.643  19.907  0.00  0.00    +0.000 N 
ATOM     10  C   UNL     1      -2.045  13.095  21.292  0.00  0.00    +0.000 C 
ATOM     11  C   UNL     1      -3.123  12.018  19.416  0.00  0.00    +0.000 C 
ATOM     12  O   UNL     1      -4.153  11.903  20.096  0.00  0.00    +0.000 OA
BRANCH  11  13
ATOM     13  C   UNL     1      -3.175  11.468  18.047  0.00  0.00    +0.000 A 
ATOM     14  C   UNL     1      -2.252  10.544  17.561  0.00  0.00    +0.000 A 
ATOM     15  C   UNL     1      -2.274  10.100  16.258  0.00  0.00    +0.000 A 
ATOM     16  C   UNL     1      -3.318  10.517  15.480  0.00  0.00    +0.000 A 
ATOM     17  N   UNL     1      -4.316  11.356  15.911  0.00  0.00    +0.000 NA
ATOM     18  C   UNL     1      -4.208  11.816  17.192  0.00  0.00    +0.000 A 
BRANCH  16  19
ATOM     19  C   UNL     1      -3.428   9.972  14.101  0.00  0.00    +0.000 C 
ATOM     20  N   UNL     1      -4.695   9.749  13.672  0.00  0.00    +0.000 N 
ATOM     21  O   UNL     1      -2.440   9.730  13.404  0.00  0.00    +0.000 OA
ATOM     22  H   UNL     1      -5.472   9.913  14.306  0.00  0.00    +0.000 HD
ATOM     23  H   UNL     1      -4.842   9.321  12.763  0.00  0.00    +0.000 HD
ENDBRANCH  16  19
ENDBRANCH  11  13
ENDBRANCH   7   9
BRANCH   1  24
ATOM     24  C   UNL     1       0.442   9.393  19.954  0.00  0.00    +0.000 C 
BRANCH  24  27
ATOM     25  C   UNL     1       2.098   7.789  19.046  0.00  0.00    +0.000 C 
ATOM     26  O   UNL     1       2.011   8.247  17.906  0.00  0.00    +0.000 OA
ATOM     27  N   UNL     1       1.398   8.303  20.109  0.00  0.00    +0.000 N 
ATOM     28  H   UNL     1       1.566   7.955  21.047  0.00  0.00    +0.000 HD
BRANCH  25  29
ATOM     29  C   UNL     1       3.008   6.619  19.367  0.00  0.00    +0.000 C 
BRANCH  29  31
ATOM     30  C   UNL     1       1.829   4.783  20.673  0.00  0.00    +0.000 C 
ATOM     31  C   UNL     1       2.302   5.265  19.308  0.00  0.00    +0.000 C 
ENDBRANCH  29  31
ENDBRANCH  25  29
ENDBRANCH  24  27
ENDBRANCH   1  24
TORSDOF 7
ENDMDL
MODEL 6
REMARK VINA RESULT:      -7.2      4.980      9.308
REMARK  Name = 
REMARK  9 active torsions:
REMARK  status: ('A' for Active; 'I' for Inactive)
REMARK    1  A    between atoms: C_1  and  C_2
REMARK    2  A    between atoms: C_2  and  C_3
REMARK    3  A    between atoms: C_3  and  C_4
REMARK    4  A    between atoms: N_6  and  C_7
REMARK    5  A    between atoms: C_7  and  C_8
REMARK    6  A    between atoms: C_14  and  N_15
REMARK    7  A    between atoms: N_15  and  C_16
REMARK    8  A    between atoms: C_17  and  C_19
REMARK    9  A    between atoms: C_22  and  C_23
REMARK                            x       y       z     vdW  Elec       q    Type
REMARK                         _______ _______ _______ _____ _____    ______ ____
ROOT
ATOM      1  C   UNL     1       0.084   8.905  21.413  0.00  0.00    +0.000 C 
ATOM      2  O   UNL     1      -0.803   8.054  21.545  0.00  0.00    +0.000 OA
ATOM      3  N   UNL     1       0.099  10.064  22.185  0.00  0.00    +0.000 N 
ATOM      4  C   UNL     1      -0.884  10.308  23.239  0.00  0.00    +0.000 C 
ATOM      5  C   UNL     1      -1.745  11.551  22.984  0.00  0.00    +0.000 C 
ATOM      6  C   UNL     1      -0.934  12.748  22.460  0.00  0.00    +0.000 C 
ATOM      7  C   UNL     1       0.026  12.373  21.314  0.00  0.00    +0.000 C 
ATOM      8  C   UNL     1       0.910  11.217  21.871  0.00  0.00    +0.000 C 
ENDROOT
BRANCH   7   9
ATOM      9  N   UNL     1      -0.662  12.118  19.990  0.00  0.00    +0.000 N 
ATOM     10  C   UNL     1      -1.969  11.469  19.988  0.00  0.00    +0.000 C 
ATOM     11  C   UNL     1      -0.303  12.720  18.762  0.00  0.00    +0.000 C 
ATOM     12  O   UNL     1      -1.058  12.730  17.779  0.00  0.00    +0.000 OA
BRANCH  11  13
ATOM     13  C   UNL     1       1.007  13.381  18.592  0.00  0.00    +0.000 A 
ATOM     14  C   UNL     1       2.169  12.692  18.249  0.00  0.00    +0.000 A 
ATOM     15  C   UNL     1       3.394  13.315  18.168  0.00  0.00    +0.000 A 
ATOM     16  C   UNL     1       3.409  14.673  18.326  0.00  0.00    +0.000 A 
ATOM     17  N   UNL     1       2.295  15.434  18.578  0.00  0.00    +0.000 NA
ATOM     18  C   UNL     1       1.117  14.756  18.712  0.00  0.00    +0.000 A 
BRANCH  16  19
ATOM     19  C   UNL     1       4.700  15.388  18.139  0.00  0.00    +0.000 C 
ATOM     20  N   UNL     1       4.707  16.678  18.557  0.00  0.00    +0.000 N 
ATOM     21  O   UNL     1       5.687  14.850  17.632  0.00  0.00    +0.000 OA
ATOM     22  H   UNL     1       3.851  17.090  18.917  0.00  0.00    +0.000 HD
ATOM     23  H   UNL     1       5.536  17.243  18.405  0.00  0.00    +0.000 HD
ENDBRANCH  16  19
ENDBRANCH  11  13
ENDBRANCH   7   9
BRANCH   1  24
ATOM     24  C   UNL     1       1.277   8.609  20.479  0.00  0.00    +0.000 C 
BRANCH  24  27
ATOM     25  C   UNL     1       2.344   6.520  19.682  0.00  0.00    +0.000 C 
ATOM     26  O   UNL     1       2.539   6.974  18.555  0.00  0.00    +0.000 OA
ATOM     27  N   UNL     1       1.768   7.253  20.690  0.00  0.00    +0.000 N 
ATOM     28  H   UNL     1       1.707   6.872  21.628  0.00  0.00    +0.000 HD
BRANCH  25  29
ATOM     29  C   UNL     1       2.746   5.105  20.053  0.00  0.00    +0.000 C 
BRANCH  29  31
ATOM     30  C   UNL     1       1.492   3.243  21.245  0.00  0.00    +0.000 C 
ATOM     31  C   UNL     1       1.589   4.109  19.997  0.00  0.00    +0.000 C 
ENDBRANCH  29  31
ENDBRANCH  25  29
ENDBRANCH  24  27
ENDBRANCH   1  24
TORSDOF 7
ENDMDL
MODEL 7
REMARK VINA RESULT:      -7.1      2.997      8.161
REMARK  Name = 
REMARK  9 active torsions:
REMARK  status: ('A' for Active; 'I' for Inactive)
REMARK    1  A    between atoms: C_1  and  C_2
REMARK    2  A    between atoms: C_2  and  C_3
REMARK    3  A    between atoms: C_3  and  C_4
REMARK    4  A    between atoms: N_6  and  C_7
REMARK    5  A    between atoms: C_7  and  C_8
REMARK    6  A    between atoms: C_14  and  N_15
REMARK    7  A    between atoms: N_15  and  C_16
REMARK    8  A    between atoms: C_17  and  C_19
REMARK    9  A    between atoms: C_22  and  C_23
REMARK                            x       y       z     vdW  Elec       q    Type
REMARK                         _______ _______ _______ _____ _____    ______ ____
ROOT
ATOM      1  C   UNL     1       6.065   4.782  17.737  0.00  0.00    +0.000 C 
ATOM      2  O   UNL     1       6.394   4.335  16.632  0.00  0.00    +0.000 OA
ATOM      3  N   UNL     1       4.885   4.385  18.360  0.00  0.00    +0.000 N 
ATOM      4  C   UNL     1       4.006   3.371  17.782  0.00  0.00    +0.000 C 
ATOM      5  C   UNL     1       2.608   3.906  17.449  0.00  0.00    +0.000 C 
ATOM      6  C   UNL     1       2.036   4.820  18.545  0.00  0.00    +0.000 C 
ATOM      7  C   UNL     1       3.041   5.882  19.033  0.00  0.00    +0.000 C 
ATOM      8  C   UNL     1       4.303   5.086  19.480  0.00  0.00    +0.000 C 
ENDROOT
BRANCH   7   9
ATOM      9  N   UNL     1       3.269   7.013  18.054  0.00  0.00    +0.000 N 
ATOM     10  C   UNL     1       4.025   6.748  16.833  0.00  0.00    +0.000 C 
ATOM     11  C   UNL     1       2.561   8.238  18.052  0.00  0.00    +0.000 C 
ATOM     12  O   UNL     1       2.553   9.001  17.076  0.00  0.00    +0.000 OA
BRANCH  11  13
ATOM     13  C   UNL     1       1.783   8.668  19.230  0.00  0.00    +0.000 A 
ATOM     14  C   UNL     1       1.781   7.973  20.438  0.00  0.00    +0.000 A 
ATOM     15  C   UNL     1       0.991   8.349  21.500  0.00  0.00    +0.000 A 
ATOM     16  C   UNL     1       0.286   9.513  21.365  0.00  0.00    +0.000 A 
ATOM     17  N   UNL     1       0.303  10.301  20.241  0.00  0.00    +0.000 NA
ATOM     18  C   UNL     1       1.054   9.846  19.195  0.00  0.00    +0.000 A 
BRANCH  16  19
ATOM     19  C   UNL     1      -0.494  10.002  22.533  0.00  0.00    +0.000 C 
ATOM     20  N   UNL     1      -0.286   9.322  23.687  0.00  0.00    +0.000 N 
ATOM     21  O   UNL     1      -1.279  10.950  22.455  0.00  0.00    +0.000 OA
ATOM     22  H   UNL     1       0.329   8.513  23.685  0.00  0.00    +0.000 HD
ATOM     23  H   UNL     1      -0.830   9.563  24.509  0.00  0.00    +0.000 HD
ENDBRANCH  16  19
ENDBRANCH  11  13
ENDBRANCH   7   9
BRANCH   1  24
ATOM     24  C   UNL     1       7.055   5.684  18.507  0.00  0.00    +0.000 C 
BRANCH  24  27
ATOM     25  C   UNL     1       8.094   7.920  18.268  0.00  0.00    +0.000 C 
ATOM     26  O   UNL     1       8.861   7.735  19.213  0.00  0.00    +0.000 OA
ATOM     27  N   UNL     1       7.206   6.968  17.833  0.00  0.00    +0.000 N 
ATOM     28  H   UNL     1       6.657   7.127  16.996  0.00  0.00    +0.000 HD
BRANCH  25  29
ATOM     29  C   UNL     1       8.085   9.224  17.492  0.00  0.00    +0.000 C 
BRANCH  29  31
ATOM     30  C   UNL     1       9.866  10.975  17.967  0.00  0.00    +0.000 C 
ATOM     31  C   UNL     1       8.490  10.434  18.331  0.00  0.00    +0.000 C 
ENDBRANCH  29  31
ENDBRANCH  25  29
ENDBRANCH  24  27
ENDBRANCH   1  24
TORSDOF 7
ENDMDL
MODEL 8
REMARK VINA RESULT:      -7.1      8.523     12.353
REMARK  Name = 
REMARK  9 active torsions:
REMARK  status: ('A' for Active; 'I' for Inactive)
REMARK    1  A    between atoms: C_1  and  C_2
REMARK    2  A    between atoms: C_2  and  C_3
REMARK    3  A    between atoms: C_3  and  C_4
REMARK    4  A    between atoms: N_6  and  C_7
REMARK    5  A    between atoms: C_7  and  C_8
REMARK    6  A    between atoms: C_14  and  N_15
REMARK    7  A    between atoms: N_15  and  C_16
REMARK    8  A    between atoms: C_17  and  C_19
REMARK    9  A    between atoms: C_22  and  C_23
REMARK                            x       y       z     vdW  Elec       q    Type
REMARK                         _______ _______ _______ _____ _____    ______ ____
ROOT
ATOM      1  C   UNL     1      -5.550  12.388  17.809  0.00  0.00    +0.000 C 
ATOM      2  O   UNL     1      -6.099  12.968  16.865  0.00  0.00    +0.000 OA
ATOM      3  N   UNL     1      -6.209  12.183  19.018  0.00  0.00    +0.000 N 
ATOM      4  C   UNL     1      -7.603  12.574  19.218  0.00  0.00    +0.000 C 
ATOM      5  C   UNL     1      -7.781  13.627  20.317  0.00  0.00    +0.000 C 
ATOM      6  C   UNL     1      -6.921  13.352  21.562  0.00  0.00    +0.000 C 
ATOM      7  C   UNL     1      -5.458  13.005  21.222  0.00  0.00    +0.000 C 
ATOM      8  C   UNL     1      -5.533  11.801  20.236  0.00  0.00    +0.000 C 
ENDROOT
BRANCH   7   9
ATOM      9  N   UNL     1      -4.630  14.191  20.776  0.00  0.00    +0.000 N 
ATOM     10  C   UNL     1      -5.310  15.430  20.411  0.00  0.00    +0.000 C 
ATOM     11  C   UNL     1      -3.235  14.322  20.967  0.00  0.00    +0.000 C 
ATOM     12  O   UNL     1      -2.649  15.409  20.872  0.00  0.00    +0.000 OA
BRANCH  11  13
ATOM     13  C   UNL     1      -2.399  13.151  21.299  0.00  0.00    +0.000 A 
ATOM     14  C   UNL     1      -1.645  12.459  20.353  0.00  0.00    +0.000 A 
ATOM     15  C   UNL     1      -0.931  11.325  20.669  0.00  0.00    +0.000 A 
ATOM     16  C   UNL     1      -0.896  10.965  21.988  0.00  0.00    +0.000 A 
ATOM     17  N   UNL     1      -1.538  11.644  22.993  0.00  0.00    +0.000 NA
ATOM     18  C   UNL     1      -2.283  12.724  22.612  0.00  0.00    +0.000 A 
BRANCH  16  19
ATOM     19  C   UNL     1      -0.047   9.807  22.377  0.00  0.00    +0.000 C 
ATOM     20  N   UNL     1      -0.229   9.363  23.645  0.00  0.00    +0.000 N 
ATOM     21  O   UNL     1       0.768   9.295  21.606  0.00  0.00    +0.000 OA
ATOM     22  H   UNL     1      -0.873   9.855  24.257  0.00  0.00    +0.000 HD
ATOM     23  H   UNL     1       0.360   8.615  23.997  0.00  0.00    +0.000 HD
ENDBRANCH  16  19
ENDBRANCH  11  13
ENDBRANCH   7   9
BRANCH   1  24
ATOM     24  C   UNL     1      -4.159  11.751  17.593  0.00  0.00    +0.000 C 
BRANCH  24  27
ATOM     25  C   UNL     1      -3.075  10.424  15.805  0.00  0.00    +0.000 C 
ATOM     26  O   UNL     1      -2.403   9.775  16.606  0.00  0.00    +0.000 OA
ATOM     27  N   UNL     1      -3.978  11.381  16.195  0.00  0.00    +0.000 N 
ATOM     28  H   UNL     1      -4.576  11.828  15.509  0.00  0.00    +0.000 HD
BRANCH  25  29
ATOM     29  C   UNL     1      -2.966  10.200  14.308  0.00  0.00    +0.000 C 
BRANCH  29  31
ATOM     30  C   UNL     1      -4.239   9.809  12.143  0.00  0.00    +0.000 C 
ATOM     31  C   UNL     1      -4.276   9.751  13.664  0.00  0.00    +0.000 C 
ENDBRANCH  29  31
ENDBRANCH  25  29
ENDBRANCH  24  27
ENDBRANCH   1  24
TORSDOF 7
ENDMDL
MODEL 9
REMARK VINA RESULT:      -7.0      1.985      2.204
REMARK  Name = 
REMARK  9 active torsions:
REMARK  status: ('A' for Active; 'I' for Inactive)
REMARK    1  A    between atoms: C_1  and  C_2
REMARK    2  A    between atoms: C_2  and  C_3
REMARK    3  A    between atoms: C_3  and  C_4
REMARK    4  A    between atoms: N_6  and  C_7
REMARK    5  A    between atoms: C_7  and  C_8
REMARK    6  A    between atoms: C_14  and  N_15
REMARK    7  A    between atoms: N_15  and  C_16
REMARK    8  A    between atoms: C_17  and  C_19
REMARK    9  A    between atoms: C_22  and  C_23
REMARK                            x       y       z     vdW  Elec       q    Type
REMARK                         _______ _______ _______ _____ _____    ______ ____
ROOT
ATOM      1  C   UNL     1       2.126   6.941  19.445  0.00  0.00    +0.000 C 
ATOM      2  O   UNL     1       1.966   7.273  20.626  0.00  0.00    +0.000 OA
ATOM      3  N   UNL     1       2.021   5.612  19.044  0.00  0.00    +0.000 N 
ATOM      4  C   UNL     1       1.648   4.547  19.973  0.00  0.00    +0.000 C 
ATOM      5  C   UNL     1       2.740   3.484  20.141  0.00  0.00    +0.000 C 
ATOM      6  C   UNL     1       3.402   3.085  18.812  0.00  0.00    +0.000 C 
ATOM      7  C   UNL     1       3.799   4.297  17.945  0.00  0.00    +0.000 C 
ATOM      8  C   UNL     1       2.493   5.128  17.767  0.00  0.00    +0.000 C 
ENDROOT
BRANCH   7   9
ATOM      9  N   UNL     1       5.012   5.047  18.452  0.00  0.00    +0.000 N 
ATOM     10  C   UNL     1       5.054   5.459  19.852  0.00  0.00    +0.000 C 
ATOM     11  C   UNL     1       6.253   5.128  17.779  0.00  0.00    +0.000 C 
ATOM     12  O   UNL     1       7.296   5.480  18.346  0.00  0.00    +0.000 OA
BRANCH  11  13
ATOM     13  C   UNL     1       6.366   4.785  16.347  0.00  0.00    +0.000 A 
ATOM     14  C   UNL     1       5.432   3.999  15.675  0.00  0.00    +0.000 A 
ATOM     15  C   UNL     1       5.594   3.630  14.359  0.00  0.00    +0.000 A 
ATOM     16  C   UNL     1       6.661   4.166  13.693  0.00  0.00    +0.000 A 
ATOM     17  N   UNL     1       7.576   5.019  14.259  0.00  0.00    +0.000 NA
ATOM     18  C   UNL     1       7.402   5.300  15.584  0.00  0.00    +0.000 A 
BRANCH  16  19
ATOM     19  C   UNL     1       6.804   3.872  12.243  0.00  0.00    +0.000 C 
ATOM     20  N   UNL     1       6.363   2.648  11.860  0.00  0.00    +0.000 N 
ATOM     21  O   UNL     1       7.295   4.677  11.449  0.00  0.00    +0.000 OA
ATOM     22  H   UNL     1       6.018   2.001  12.562  0.00  0.00    +0.000 HD
ATOM     23  H   UNL     1       6.486   2.357  10.895  0.00  0.00    +0.000 HD
ENDBRANCH  16  19
ENDBRANCH  11  13
ENDBRANCH   7   9
BRANCH   1  24
ATOM     24  C   UNL     1       2.300   8.038  18.373  0.00  0.00    +0.000 C 
BRANCH  24  27
ATOM     25  C   UNL     1       0.699   9.902  18.693  0.00  0.00    +0.000 C 
ATOM     26  O   UNL     1       1.470  10.523  19.423  0.00  0.00    +0.000 OA
ATOM     27  N   UNL     1       1.029   8.703  18.111  0.00  0.00    +0.000 N 
ATOM     28  H   UNL     1       0.400   8.268  17.445  0.00  0.00    +0.000 HD
BRANCH  25  29
ATOM     29  C   UNL     1      -0.685  10.428  18.362  0.00  0.00    +0.000 C 
BRANCH  29  31
ATOM     30  C   UNL     1      -2.833   9.964  17.086  0.00  0.00    +0.000 C 
ATOM     31  C   UNL     1      -1.330   9.733  17.166  0.00  0.00    +0.000 C 
ENDBRANCH  29  31
ENDBRANCH  25  29
ENDBRANCH  24  27
ENDBRANCH   1  24
TORSDOF 7
ENDMDL
