MODEL 1
REMARK VINA RESULT:      -8.4      0.000      0.000
REMARK  Name = 
REMARK  10 active torsions:
REMARK  status: ('A' for Active; 'I' for Inactive)
REMARK    1  A    between atoms: C_2  and  C_26
REMARK    2  A    between atoms: N_3  and  C_4
REMARK    3  A    between atoms: C_4  and  C_5
REMARK    4  A    between atoms: C_5  and  C_6
REMARK    5  A    between atoms: C_6  and  C_7
REMARK    6  A    between atoms: C_7  and  C_8
REMARK    7  A    between atoms: C_8  and  C_9
REMARK    8  A    between atoms: C_9  and  C_10
REMARK    9  A    between atoms: C_10  and  N_11
REMARK   10  A    between atoms: N_11  and  C_12
REMARK                            x       y       z     vdW  Elec       q    Type
REMARK                         _______ _______ _______ _____ _____    ______ ____
ROOT
ATOM      1  C   UNL     1       2.038   7.726  17.822  0.00  0.00    +0.000 C 
ENDROOT
BRANCH   1   2
ATOM      2  C   UNL     1       2.567   6.811  18.925  0.00  0.00    +0.000 C 
BRANCH   2   3
ATOM      3  C   UNL     1       2.161   5.348  18.741  0.00  0.00    +0.000 C 
BRANCH   3   4
ATOM      4  C   UNL     1       2.398   4.544  20.013  0.00  0.00    +0.000 C 
BRANCH   4   5
ATOM      5  C   UNL     1       2.867   3.130  19.681  0.00  0.00    +0.000 C 
BRANCH   5   6
ATOM      6  C   UNL     1       4.386   3.075  19.593  0.00  0.00    +0.000 C 
BRANCH   6   9
ATOM      7  O   UNL     1       5.902   5.299  18.739  0.00  0.00    +0.000 OA
ATOM      8  C   UNL     1       5.579   4.439  17.927  0.00  0.00    +0.000 C 
ATOM      9  N   UNL     1       4.846   3.317  18.243  0.00  0.00    +0.000 N 
ATOM     10  H   UNL     1       4.676   2.597  17.554  0.00  0.00    +0.000 HD
BRANCH   8  11
ATOM     11  C   UNL     1       6.019   4.562  16.527  0.00  0.00    +0.000 A 
ATOM     12  C   UNL     1       7.190   5.261  16.257  0.00  0.00    +0.000 A 
ATOM     13  N   UNL     1       7.703   5.422  15.013  0.00  0.00    +0.000 NA
ATOM     14  C   UNL     1       6.996   4.883  13.990  0.00  0.00    +0.000 A 
ATOM     15 CL   UNL     1       7.735   5.139  12.457  0.00  0.00    +0.000 Cl
ATOM     16  C   UNL     1       5.804   4.189  14.156  0.00  0.00    +0.000 A 
ATOM     17 CL   UNL     1       4.904   3.523  12.842  0.00  0.00    +0.000 Cl
ATOM     18  C   UNL     1       5.307   4.025  15.451  0.00  0.00    +0.000 A 
ENDBRANCH   8  11
ENDBRANCH   6   9
ENDBRANCH   5   6
ENDBRANCH   4   5
ENDBRANCH   3   4
ENDBRANCH   2   3
ENDBRANCH   1   2
BRANCH   1  19
ATOM     19  C   UNL     1       2.400   9.195  18.015  0.00  0.00    +0.000 C 
BRANCH  19  20
ATOM     20  N   UNL     1       1.216  10.045  18.116  0.00  0.00    +0.000 N 
ATOM     21  H   UNL     1       0.352   9.523  17.978  0.00  0.00    +0.000 HD
BRANCH  20  22
ATOM     22  C   UNL     1       1.063  10.933  19.213  0.00  0.00    +0.000 A 
ATOM     23  C   UNL     1       1.525  12.270  19.223  0.00  0.00    +0.000 A 
ATOM     24  C   UNL     1       1.262  13.043  20.363  0.00  0.00    +0.000 A 
ATOM     25  N   UNL     1       0.670  12.555  21.476  0.00  0.00    +0.000 NA
ATOM     26  C   UNL     1       0.321  11.271  21.512  0.00  0.00    +0.000 A 
ATOM     27  C   UNL     1      -0.247  10.801  22.692  0.00  0.00    +0.000 A 
ATOM     28  C   UNL     1      -0.641   9.474  22.845  0.00  0.00    +0.000 A 
ATOM     29  C   UNL     1      -0.465   8.589  21.792  0.00  0.00    +0.000 A 
ATOM     30  C   UNL     1       0.092   9.046  20.592  0.00  0.00    +0.000 A 
ATOM     31  C   UNL     1       0.499  10.394  20.422  0.00  0.00    +0.000 A 
ATOM     32  C   UNL     1       1.684  14.487  20.478  0.00  0.00    +0.000 C 
ATOM     33  C   UNL     1       2.113  15.129  19.168  0.00  0.00    +0.000 C 
ATOM     34  C   UNL     1       3.020  14.181  18.407  0.00  0.00    +0.000 C 
ATOM     35  C   UNL     1       2.249  12.915  18.065  0.00  0.00    +0.000 C 
ENDBRANCH  20  22
ENDBRANCH  19  20
ENDBRANCH   1  19
TORSDOF 10
ENDMDL
MODEL 2
REMARK VINA RESULT:      -8.0      2.669      3.432
REMARK  Name = 
REMARK  10 active torsions:
REMARK  status: ('A' for Active; 'I' for Inactive)
REMARK    1  A    between atoms: C_2  and  C_26
REMARK    2  A    between atoms: N_3  and  C_4
REMARK    3  A    between atoms: C_4  and  C_5
REMARK    4  A    between atoms: C_5  and  C_6
REMARK    5  A    between atoms: C_6  and  C_7
REMARK    6  A    between atoms: C_7  and  C_8
REMARK    7  A    between atoms: C_8  and  C_9
REMARK    8  A    between atoms: C_9  and  C_10
REMARK    9  A    between atoms: C_10  and  N_11
REMARK   10  A    between atoms: N_11  and  C_12
REMARK                            x       y       z     vdW  Elec       q    Type
REMARK                         _______ _______ _______ _____ _____    ______ ____
ROOT
ATOM      1  C   UNL     1       1.644   9.140  17.796  0.00  0.00    +0.000 C 
ENDROOT
BRANCH   1   2
ATOM      2  C   UNL     1       2.258   7.885  18.416  0.00  0.00    +0.000 C 
BRANCH   2   3
ATOM      3  C   UNL     1       2.052   7.797  19.928  0.00  0.00    +0.000 C 
BRANCH   3   4
ATOM      4  C   UNL     1       1.957   6.349  20.390  0.00  0.00    +0.000 C 
BRANCH   4   5
ATOM      5  C   UNL     1       2.356   5.395  19.267  0.00  0.00    +0.000 C 
BRANCH   5   6
ATOM      6  C   UNL     1       3.765   4.862  19.490  0.00  0.00    +0.000 C 
BRANCH   6   9
ATOM      7  O   UNL     1       4.149   2.955  17.442  0.00  0.00    +0.000 OA
ATOM      8  C   UNL     1       4.713   4.042  17.371  0.00  0.00    +0.000 C 
ATOM      9  N   UNL     1       4.587   5.038  18.313  0.00  0.00    +0.000 N 
ATOM     10  H   UNL     1       5.007   5.947  18.168  0.00  0.00    +0.000 HD
BRANCH   8  11
ATOM     11  C   UNL     1       5.551   4.349  16.199  0.00  0.00    +0.000 A 
ATOM     12  C   UNL     1       6.567   5.288  16.337  0.00  0.00    +0.000 A 
ATOM     13  N   UNL     1       7.414   5.636  15.337  0.00  0.00    +0.000 NA
ATOM     14  C   UNL     1       7.215   5.038  14.138  0.00  0.00    +0.000 A 
ATOM     15 CL   UNL     1       8.343   5.544  12.941  0.00  0.00    +0.000 Cl
ATOM     16  C   UNL     1       6.213   4.106  13.895  0.00  0.00    +0.000 A 
ATOM     17 CL   UNL     1       5.959   3.364  12.357  0.00  0.00    +0.000 Cl
ATOM     18  C   UNL     1       5.365   3.755  14.948  0.00  0.00    +0.000 A 
ENDBRANCH   8  11
ENDBRANCH   6   9
ENDBRANCH   5   6
ENDBRANCH   4   5
ENDBRANCH   3   4
ENDBRANCH   2   3
ENDBRANCH   1   2
BRANCH   1  19
ATOM     19  C   UNL     1       1.205  10.181  18.821  0.00  0.00    +0.000 C 
BRANCH  19  20
ATOM     20  N   UNL     1      -0.042   9.806  19.486  0.00  0.00    +0.000 N 
ATOM     21  H   UNL     1       0.105   9.523  20.453  0.00  0.00    +0.000 HD
BRANCH  20  22
ATOM     22  C   UNL     1      -1.178  10.654  19.406  0.00  0.00    +0.000 A 
ATOM     23  C   UNL     1      -2.047  10.715  18.292  0.00  0.00    +0.000 A 
ATOM     24  C   UNL     1      -3.157  11.568  18.375  0.00  0.00    +0.000 A 
ATOM     25  N   UNL     1      -3.389  12.392  19.422  0.00  0.00    +0.000 NA
ATOM     26  C   UNL     1      -2.522  12.411  20.433  0.00  0.00    +0.000 A 
ATOM     27  C   UNL     1      -2.778  13.303  21.469  0.00  0.00    +0.000 A 
ATOM     28  C   UNL     1      -1.934  13.417  22.572  0.00  0.00    +0.000 A 
ATOM     29  C   UNL     1      -0.803  12.618  22.644  0.00  0.00    +0.000 A 
ATOM     30  C   UNL     1      -0.535  11.705  21.617  0.00  0.00    +0.000 A 
ATOM     31  C   UNL     1      -1.385  11.580  20.488  0.00  0.00    +0.000 A 
ATOM     32  C   UNL     1      -4.164  11.699  17.260  0.00  0.00    +0.000 C 
ATOM     33  C   UNL     1      -4.077  10.616  16.196  0.00  0.00    +0.000 C 
ATOM     34  C   UNL     1      -2.626  10.384  15.820  0.00  0.00    +0.000 C 
ATOM     35  C   UNL     1      -1.864   9.889  17.041  0.00  0.00    +0.000 C 
ENDBRANCH  20  22
ENDBRANCH  19  20
ENDBRANCH   1  19
TORSDOF 10
ENDMDL
MODEL 3
REMARK VINA RESULT:      -7.9      5.774      9.000
REMARK  Name = 
REMARK  10 active torsions:
REMARK  status: ('A' for Active; 'I' for Inactive)
REMARK    1  A    between atoms: C_2  and  C_26
REMARK    2  A    between atoms: N_3  and  C_4
REMARK    3  A    between atoms: C_4  and  C_5
REMARK    4  A    between atoms: C_5  and  C_6
REMARK    5  A    between atoms: C_6  and  C_7
REMARK    6  A    between atoms: C_7  and  C_8
REMARK    7  A    between atoms: C_8  and  C_9
REMARK    8  A    between atoms: C_9  and  C_10
REMARK    9  A    between atoms: C_10  and  N_11
REMARK   10  A    between atoms: N_11  and  C_12
REMARK                            x       y       z     vdW  Elec       q    Type
REMARK                         _______ _______ _______ _____ _____    ______ ____
ROOT
ATOM      1  C   UNL     1       5.937   5.940  18.078  0.00  0.00    +0.000 C 
ENDROOT
BRANCH   1   2
ATOM      2  C   UNL     1       7.397   6.125  17.667  0.00  0.00    +0.000 C 
BRANCH   2   3
ATOM      3  C   UNL     1       7.741   7.568  17.295  0.00  0.00    +0.000 C 
BRANCH   3   4
ATOM      4  C   UNL     1       8.344   8.315  18.477  0.00  0.00    +0.000 C 
BRANCH   4   5
ATOM      5  C   UNL     1       8.380   9.818  18.207  0.00  0.00    +0.000 C 
BRANCH   5   6
ATOM      6  C   UNL     1       9.425  10.496  19.081  0.00  0.00    +0.000 C 
BRANCH   6   9
ATOM      7  O   UNL     1      11.170  11.921  17.378  0.00  0.00    +0.000 OA
ATOM      8  C   UNL     1      10.328  12.530  18.029  0.00  0.00    +0.000 C 
ATOM      9  N   UNL     1       9.430  11.929  18.882  0.00  0.00    +0.000 N 
ATOM     10  H   UNL     1       8.702  12.466  19.333  0.00  0.00    +0.000 HD
BRANCH   8  11
ATOM     11  C   UNL     1      10.216  13.992  17.883  0.00  0.00    +0.000 A 
ATOM     12  C   UNL     1      11.316  14.699  17.413  0.00  0.00    +0.000 A 
ATOM     13  N   UNL     1      11.325  16.041  17.219  0.00  0.00    +0.000 NA
ATOM     14  C   UNL     1      10.188  16.707  17.537  0.00  0.00    +0.000 A 
ATOM     15 CL   UNL     1      10.301  18.400  17.249  0.00  0.00    +0.000 Cl
ATOM     16  C   UNL     1       9.046  16.093  18.035  0.00  0.00    +0.000 A 
ATOM     17 CL   UNL     1       7.610  16.956  18.453  0.00  0.00    +0.000 Cl
ATOM     18  C   UNL     1       9.060  14.707  18.211  0.00  0.00    +0.000 A 
ENDBRANCH   8  11
ENDBRANCH   6   9
ENDBRANCH   5   6
ENDBRANCH   4   5
ENDBRANCH   3   4
ENDBRANCH   2   3
ENDBRANCH   1   2
BRANCH   1  19
ATOM     19  C   UNL     1       5.135   5.063  17.122  0.00  0.00    +0.000 C 
BRANCH  19  20
ATOM     20  N   UNL     1       3.712   5.399  17.130  0.00  0.00    +0.000 N 
ATOM     21  H   UNL     1       3.165   4.776  16.538  0.00  0.00    +0.000 HD
BRANCH  20  22
ATOM     22  C   UNL     1       3.032   5.605  18.359  0.00  0.00    +0.000 A 
ATOM     23  C   UNL     1       2.752   4.581  19.293  0.00  0.00    +0.000 A 
ATOM     24  C   UNL     1       2.113   4.943  20.487  0.00  0.00    +0.000 A 
ATOM     25  N   UNL     1       1.678   6.195  20.752  0.00  0.00    +0.000 NA
ATOM     26  C   UNL     1       1.851   7.146  19.835  0.00  0.00    +0.000 A 
ATOM     27  C   UNL     1       1.352   8.410  20.132  0.00  0.00    +0.000 A 
ATOM     28  C   UNL     1       1.467   9.477  19.244  0.00  0.00    +0.000 A 
ATOM     29  C   UNL     1       2.099   9.279  18.025  0.00  0.00    +0.000 A 
ATOM     30  C   UNL     1       2.619   8.017  17.714  0.00  0.00    +0.000 A 
ATOM     31  C   UNL     1       2.508   6.921  18.608  0.00  0.00    +0.000 A 
ATOM     32  C   UNL     1       1.784   3.941  21.566  0.00  0.00    +0.000 C 
ATOM     33  C   UNL     1       2.477   2.596  21.416  0.00  0.00    +0.000 C 
ATOM     34  C   UNL     1       2.397   2.137  19.972  0.00  0.00    +0.000 C 
ATOM     35  C   UNL     1       3.134   3.134  19.089  0.00  0.00    +0.000 C 
ENDBRANCH  20  22
ENDBRANCH  19  20
ENDBRANCH   1  19
TORSDOF 10
ENDMDL
MODEL 4
REMARK VINA RESULT:      -7.8      5.736     11.450
REMARK  Name = 
REMARK  10 active torsions:
REMARK  status: ('A' for Active; 'I' for Inactive)
REMARK    1  A    between atoms: C_2  and  C_26
REMARK    2  A    between atoms: N_3  and  C_4
REMARK    3  A    between atoms: C_4  and  C_5
REMARK    4  A    between atoms: C_5  and  C_6
REMARK    5  A    between atoms: C_6  and  C_7
REMARK    6  A    between atoms: C_7  and  C_8
REMARK    7  A    between atoms: C_8  and  C_9
REMARK    8  A    between atoms: C_9  and  C_10
REMARK    9  A    between atoms: C_10  and  N_11
REMARK   10  A    between atoms: N_11  and  C_12
REMARK                            x       y       z     vdW  Elec       q    Type
REMARK                         _______ _______ _______ _____ _____    ______ ____
ROOT
ATOM      1  C   UNL     1       2.228   8.251  18.044  0.00  0.00    +0.000 C 
ENDROOT
BRANCH   1   2
ATOM      2  C   UNL     1       1.178   9.352  17.898  0.00  0.00    +0.000 C 
BRANCH   2   3
ATOM      3  C   UNL     1       1.648  10.707  18.428  0.00  0.00    +0.000 C 
BRANCH   3   4
ATOM      4  C   UNL     1       0.627  11.312  19.382  0.00  0.00    +0.000 C 
BRANCH   4   5
ATOM      5  C   UNL     1      -0.012  10.231  20.250  0.00  0.00    +0.000 C 
BRANCH   5   6
ATOM      6  C   UNL     1       0.029  10.626  21.720  0.00  0.00    +0.000 C 
BRANCH   6   9
ATOM      7  O   UNL     1      -0.170  13.149  22.973  0.00  0.00    +0.000 OA
ATOM      8  C   UNL     1      -1.188  12.509  22.735  0.00  0.00    +0.000 C 
ATOM      9  N   UNL     1      -1.198  11.275  22.125  0.00  0.00    +0.000 N 
ATOM     10  H   UNL     1      -2.070  10.825  21.877  0.00  0.00    +0.000 HD
BRANCH   8  11
ATOM     11  C   UNL     1      -2.502  13.085  23.074  0.00  0.00    +0.000 A 
ATOM     12  C   UNL     1      -3.647  12.439  22.621  0.00  0.00    +0.000 A 
ATOM     13  N   UNL     1      -4.907  12.862  22.886  0.00  0.00    +0.000 NA
ATOM     14  C   UNL     1      -5.024  13.999  23.614  0.00  0.00    +0.000 A 
ATOM     15 CL   UNL     1      -6.661  14.446  23.899  0.00  0.00    +0.000 Cl
ATOM     16  C   UNL     1      -3.941  14.728  24.090  0.00  0.00    +0.000 A 
ATOM     17 CL   UNL     1      -4.105  16.186  25.001  0.00  0.00    +0.000 Cl
ATOM     18  C   UNL     1      -2.654  14.260  23.814  0.00  0.00    +0.000 A 
ENDBRANCH   8  11
ENDBRANCH   6   9
ENDBRANCH   5   6
ENDBRANCH   4   5
ENDBRANCH   3   4
ENDBRANCH   2   3
ENDBRANCH   1   2
BRANCH   1  19
ATOM     19  C   UNL     1       2.256   7.606  19.426  0.00  0.00    +0.000 C 
BRANCH  19  20
ATOM     20  N   UNL     1       3.395   6.704  19.589  0.00  0.00    +0.000 N 
ATOM     21  H   UNL     1       3.570   6.475  20.566  0.00  0.00    +0.000 HD
BRANCH  20  22
ATOM     22  C   UNL     1       3.494   5.528  18.800  0.00  0.00    +0.000 A 
ATOM     23  C   UNL     1       2.656   4.398  18.950  0.00  0.00    +0.000 A 
ATOM     24  C   UNL     1       2.842   3.326  18.067  0.00  0.00    +0.000 A 
ATOM     25  N   UNL     1       3.828   3.280  17.144  0.00  0.00    +0.000 NA
ATOM     26  C   UNL     1       4.683   4.299  17.061  0.00  0.00    +0.000 A 
ATOM     27  C   UNL     1       5.706   4.192  16.126  0.00  0.00    +0.000 A 
ATOM     28  C   UNL     1       6.663   5.191  15.960  0.00  0.00    +0.000 A 
ATOM     29  C   UNL     1       6.597   6.330  16.748  0.00  0.00    +0.000 A 
ATOM     30  C   UNL     1       5.566   6.461  17.687  0.00  0.00    +0.000 A 
ATOM     31  C   UNL     1       4.586   5.451  17.867  0.00  0.00    +0.000 A 
ATOM     32  C   UNL     1       1.994   2.079  18.116  0.00  0.00    +0.000 C 
ATOM     33  C   UNL     1       0.732   2.202  18.957  0.00  0.00    +0.000 C 
ATOM     34  C   UNL     1       1.057   2.894  20.267  0.00  0.00    +0.000 C 
ATOM     35  C   UNL     1       1.556   4.303  19.981  0.00  0.00    +0.000 C 
ENDBRANCH  20  22
ENDBRANCH  19  20
ENDBRANCH   1  19
TORSDOF 10
ENDMDL
MODEL 5
REMARK VINA RESULT:      -7.8      5.621     11.504
REMARK  Name = 
REMARK  10 active torsions:
REMARK  status: ('A' for Active; 'I' for Inactive)
REMARK    1  A    between atoms: C_2  and  C_26
REMARK    2  A    between atoms: N_3  and  C_4
REMARK    3  A    between atoms: C_4  and  C_5
REMARK    4  A    between atoms: C_5  and  C_6
REMARK    5  A    between atoms: C_6  and  C_7
REMARK    6  A    between atoms: C_7  and  C_8
REMARK    7  A    between atoms: C_8  and  C_9
REMARK    8  A    between atoms: C_9  and  C_10
REMARK    9  A    between atoms: C_10  and  N_11
REMARK   10  A    between atoms: N_11  and  C_12
REMARK                            x       y       z     vdW  Elec       q    Type
REMARK                         _______ _______ _______ _____ _____    ______ ____
ROOT
ATOM      1  C   UNL     1       1.638   8.666  18.666  0.00  0.00    +0.000 C 
ENDROOT
BRANCH   1   2
ATOM      2  C   UNL     1       0.684   9.519  17.831  0.00  0.00    +0.000 C 
BRANCH   2   3
ATOM      3  C   UNL     1      -0.359  10.255  18.672  0.00  0.00    +0.000 C 
BRANCH   3   4
ATOM      4  C   UNL     1      -0.341  11.752  18.391  0.00  0.00    +0.000 C 
BRANCH   4   5
ATOM      5  C   UNL     1       0.086  12.532  19.632  0.00  0.00    +0.000 C 
BRANCH   5   6
ATOM      6  C   UNL     1      -0.275  11.767  20.898  0.00  0.00    +0.000 C 
BRANCH   6   9
ATOM      7  O   UNL     1      -1.200  12.012  23.555  0.00  0.00    +0.000 OA
ATOM      8  C   UNL     1      -1.992  12.121  22.625  0.00  0.00    +0.000 C 
ATOM      9  N   UNL     1      -1.641  12.022  21.298  0.00  0.00    +0.000 N 
ATOM     10  H   UNL     1      -2.316  12.202  20.567  0.00  0.00    +0.000 HD
BRANCH   8  11
ATOM     11  C   UNL     1      -3.408  12.416  22.909  0.00  0.00    +0.000 A 
ATOM     12  C   UNL     1      -3.882  12.217  24.200  0.00  0.00    +0.000 A 
ATOM     13  N   UNL     1      -5.157  12.473  24.584  0.00  0.00    +0.000 NA
ATOM     14  C   UNL     1      -6.002  12.920  23.623  0.00  0.00    +0.000 A 
ATOM     15 CL   UNL     1      -7.590  13.217  24.214  0.00  0.00    +0.000 Cl
ATOM     16  C   UNL     1      -5.629  13.126  22.301  0.00  0.00    +0.000 A 
ATOM     17 CL   UNL     1      -6.720  13.679  21.083  0.00  0.00    +0.000 Cl
ATOM     18  C   UNL     1      -4.305  12.869  21.937  0.00  0.00    +0.000 A 
ENDBRANCH   8  11
ENDBRANCH   6   9
ENDBRANCH   5   6
ENDBRANCH   4   5
ENDBRANCH   3   4
ENDBRANCH   2   3
ENDBRANCH   1   2
BRANCH   1  19
ATOM     19  C   UNL     1       2.786   8.063  17.864  0.00  0.00    +0.000 C 
BRANCH  19  20
ATOM     20  N   UNL     1       3.514   7.048  18.623  0.00  0.00    +0.000 N 
ATOM     21  H   UNL     1       3.248   7.035  19.606  0.00  0.00    +0.000 HD
BRANCH  20  22
ATOM     22  C   UNL     1       3.601   5.716  18.138  0.00  0.00    +0.000 A 
ATOM     23  C   UNL     1       2.722   4.675  18.515  0.00  0.00    +0.000 A 
ATOM     24  C   UNL     1       2.902   3.420  17.917  0.00  0.00    +0.000 A 
ATOM     25  N   UNL     1       3.916   3.134  17.070  0.00  0.00    +0.000 NA
ATOM     26  C   UNL     1       4.806   4.083  16.785  0.00  0.00    +0.000 A 
ATOM     27  C   UNL     1       5.856   3.734  15.943  0.00  0.00    +0.000 A 
ATOM     28  C   UNL     1       6.851   4.642  15.585  0.00  0.00    +0.000 A 
ATOM     29  C   UNL     1       6.795   5.937  16.081  0.00  0.00    +0.000 A 
ATOM     30  C   UNL     1       5.739   6.310  16.920  0.00  0.00    +0.000 A 
ATOM     31  C   UNL     1       4.721   5.395  17.293  0.00  0.00    +0.000 A 
ATOM     32  C   UNL     1       2.012   2.241  18.223  0.00  0.00    +0.000 C 
ATOM     33  C   UNL     1       0.728   2.589  18.961  0.00  0.00    +0.000 C 
ATOM     34  C   UNL     1       1.031   3.563  20.084  0.00  0.00    +0.000 C 
ATOM     35  C   UNL     1       1.586   4.851  19.494  0.00  0.00    +0.000 C 
ENDBRANCH  20  22
ENDBRANCH  19  20
ENDBRANCH   1  19
TORSDOF 10
ENDMDL
MODEL 6
REMARK VINA RESULT:      -7.8      5.682     10.885
REMARK  Name = 
REMARK  10 active torsions:
REMARK  status: ('A' for Active; 'I' for Inactive)
REMARK    1  A    between atoms: C_2  and  C_26
REMARK    2  A    between atoms: N_3  and  C_4
REMARK    3  A    between atoms: C_4  and  C_5
REMARK    4  A    between atoms: C_5  and  C_6
REMARK    5  A    between atoms: C_6  and  C_7
REMARK    6  A    between atoms: C_7  and  C_8
REMARK    7  A    between atoms: C_8  and  C_9
REMARK    8  A    between atoms: C_9  and  C_10
REMARK    9  A    between atoms: C_10  and  N_11
REMARK   10  A    between atoms: N_11  and  C_12
REMARK                            x       y       z     vdW  Elec       q    Type
REMARK                         _______ _______ _______ _____ _____    ______ ____
ROOT
ATOM      1  C   UNL     1       1.932   9.436  18.154  0.00  0.00    +0.000 C 
ENDROOT
BRANCH   1   2
ATOM      2  C   UNL     1       0.608  10.080  18.565  0.00  0.00    +0.000 C 
BRANCH   2   3
ATOM      3  C   UNL     1      -0.551   9.723  17.633  0.00  0.00    +0.000 C 
BRANCH   3   4
ATOM      4  C   UNL     1      -1.870  10.280  18.152  0.00  0.00    +0.000 C 
BRANCH   4   5
ATOM      5  C   UNL     1      -2.829  10.566  16.999  0.00  0.00    +0.000 C 
BRANCH   5   6
ATOM      6  C   UNL     1      -3.953  11.488  17.450  0.00  0.00    +0.000 C 
BRANCH   6   9
ATOM      7  O   UNL     1      -5.836  12.047  19.479  0.00  0.00    +0.000 OA
ATOM      8  C   UNL     1      -4.655  12.323  19.657  0.00  0.00    +0.000 C 
ATOM      9  N   UNL     1      -3.661  12.087  18.734  0.00  0.00    +0.000 N 
ATOM     10  H   UNL     1      -2.690  12.256  18.961  0.00  0.00    +0.000 HD
BRANCH   8  11
ATOM     11  C   UNL     1      -4.232  12.908  20.941  0.00  0.00    +0.000 A 
ATOM     12  C   UNL     1      -5.172  13.595  21.700  0.00  0.00    +0.000 A 
ATOM     13  N   UNL     1      -4.905  14.156  22.905  0.00  0.00    +0.000 NA
ATOM     14  C   UNL     1      -3.631  14.049  23.356  0.00  0.00    +0.000 A 
ATOM     15 CL   UNL     1      -3.399  14.789  24.892  0.00  0.00    +0.000 Cl
ATOM     16  C   UNL     1      -2.616  13.404  22.659  0.00  0.00    +0.000 A 
ATOM     17 CL   UNL     1      -0.994  13.290  23.237  0.00  0.00    +0.000 Cl
ATOM     18  C   UNL     1      -2.924  12.821  21.428  0.00  0.00    +0.000 A 
ENDBRANCH   8  11
ENDBRANCH   6   9
ENDBRANCH   5   6
ENDBRANCH   4   5
ENDBRANCH   3   4
ENDBRANCH   2   3
ENDBRANCH   1   2
BRANCH   1  19
ATOM     19  C   UNL     1       1.859   7.920  18.004  0.00  0.00    +0.000 C 
BRANCH  19  20
ATOM     20  N   UNL     1       2.896   7.241  18.779  0.00  0.00    +0.000 N 
ATOM     21  H   UNL     1       2.724   7.291  19.782  0.00  0.00    +0.000 HD
BRANCH  20  22
ATOM     22  C   UNL     1       3.301   5.925  18.433  0.00  0.00    +0.000 A 
ATOM     23  C   UNL     1       4.211   5.622  17.393  0.00  0.00    +0.000 A 
ATOM     24  C   UNL     1       4.553   4.277  17.196  0.00  0.00    +0.000 A 
ATOM     25  N   UNL     1       3.998   3.256  17.886  0.00  0.00    +0.000 NA
ATOM     26  C   UNL     1       3.068   3.525  18.800  0.00  0.00    +0.000 A 
ATOM     27  C   UNL     1       2.493   2.442  19.457  0.00  0.00    +0.000 A 
ATOM     28  C   UNL     1       1.503   2.604  20.424  0.00  0.00    +0.000 A 
ATOM     29  C   UNL     1       1.074   3.883  20.747  0.00  0.00    +0.000 A 
ATOM     30  C   UNL     1       1.650   4.986  20.105  0.00  0.00    +0.000 A 
ATOM     31  C   UNL     1       2.658   4.836  19.118  0.00  0.00    +0.000 A 
ATOM     32  C   UNL     1       5.531   3.837  16.135  0.00  0.00    +0.000 C 
ATOM     33  C   UNL     1       6.354   4.961  15.524  0.00  0.00    +0.000 C 
ATOM     34  C   UNL     1       5.456   6.144  15.218  0.00  0.00    +0.000 C 
ATOM     35  C   UNL     1       4.856   6.668  16.515  0.00  0.00    +0.000 C 
ENDBRANCH  20  22
ENDBRANCH  19  20
ENDBRANCH   1  19
TORSDOF 10
ENDMDL
MODEL 7
REMARK VINA RESULT:      -7.8      5.887     11.439
REMARK  Name = 
REMARK  10 active torsions:
REMARK  status: ('A' for Active; 'I' for Inactive)
REMARK    1  A    between atoms: C_2  and  C_26
REMARK    2  A    between atoms: N_3  and  C_4
REMARK    3  A    between atoms: C_4  and  C_5
REMARK    4  A    between atoms: C_5  and  C_6
REMARK    5  A    between atoms: C_6  and  C_7
REMARK    6  A    between atoms: C_7  and  C_8
REMARK    7  A    between atoms: C_8  and  C_9
REMARK    8  A    between atoms: C_9  and  C_10
REMARK    9  A    between atoms: C_10  and  N_11
REMARK   10  A    between atoms: N_11  and  C_12
REMARK                            x       y       z     vdW  Elec       q    Type
REMARK                         _______ _______ _______ _____ _____    ______ ____
ROOT
ATOM      1  C   UNL     1       1.184   7.724  20.843  0.00  0.00    +0.000 C 
ENDROOT
BRANCH   1   2
ATOM      2  C   UNL     1       1.127   9.071  21.563  0.00  0.00    +0.000 C 
BRANCH   2   3
ATOM      3  C   UNL     1       0.795  10.238  20.632  0.00  0.00    +0.000 C 
BRANCH   3   4
ATOM      4  C   UNL     1      -0.658  10.189  20.179  0.00  0.00    +0.000 C 
BRANCH   4   5
ATOM      5  C   UNL     1      -0.787  10.629  18.723  0.00  0.00    +0.000 C 
BRANCH   5   6
ATOM      6  C   UNL     1      -1.337  12.046  18.636  0.00  0.00    +0.000 C 
BRANCH   6   9
ATOM      7  O   UNL     1      -4.156  11.907  18.560  0.00  0.00    +0.000 OA
ATOM      8  C   UNL     1      -3.594  12.241  19.597  0.00  0.00    +0.000 C 
ATOM      9  N   UNL     1      -2.228  12.335  19.738  0.00  0.00    +0.000 N 
ATOM     10  H   UNL     1      -1.811  12.535  20.637  0.00  0.00    +0.000 HD
BRANCH   8  11
ATOM     11  C   UNL     1      -4.399  12.528  20.798  0.00  0.00    +0.000 A 
ATOM     12  C   UNL     1      -5.749  12.200  20.787  0.00  0.00    +0.000 A 
ATOM     13  N   UNL     1      -6.582  12.397  21.838  0.00  0.00    +0.000 NA
ATOM     14  C   UNL     1      -6.044  12.976  22.938  0.00  0.00    +0.000 A 
ATOM     15 CL   UNL     1      -7.181  13.177  24.214  0.00  0.00    +0.000 Cl
ATOM     16  C   UNL     1      -4.713  13.362  23.037  0.00  0.00    +0.000 A 
ATOM     17 CL   UNL     1      -4.044  14.116  24.439  0.00  0.00    +0.000 Cl
ATOM     18  C   UNL     1      -3.874  13.132  21.944  0.00  0.00    +0.000 A 
ENDBRANCH   8  11
ENDBRANCH   6   9
ENDBRANCH   5   6
ENDBRANCH   4   5
ENDBRANCH   3   4
ENDBRANCH   2   3
ENDBRANCH   1   2
BRANCH   1  19
ATOM     19  C   UNL     1       2.077   7.725  19.607  0.00  0.00    +0.000 C 
BRANCH  19  20
ATOM     20  N   UNL     1       3.176   6.768  19.721  0.00  0.00    +0.000 N 
ATOM     21  H   UNL     1       3.367   6.512  20.688  0.00  0.00    +0.000 HD
BRANCH  20  22
ATOM     22  C   UNL     1       3.198   5.604  18.908  0.00  0.00    +0.000 A 
ATOM     23  C   UNL     1       2.434   4.442  19.165  0.00  0.00    +0.000 A 
ATOM     24  C   UNL     1       2.524   3.385  18.248  0.00  0.00    +0.000 A 
ATOM     25  N   UNL     1       3.361   3.387  17.186  0.00  0.00    +0.000 NA
ATOM     26  C   UNL     1       4.156   4.437  16.993  0.00  0.00    +0.000 A 
ATOM     27  C   UNL     1       5.031   4.379  15.913  0.00  0.00    +0.000 A 
ATOM     28  C   UNL     1       5.916   5.415  15.621  0.00  0.00    +0.000 A 
ATOM     29  C   UNL     1       5.927   6.543  16.428  0.00  0.00    +0.000 A 
ATOM     30  C   UNL     1       5.045   6.626  17.512  0.00  0.00    +0.000 A 
ATOM     31  C   UNL     1       4.140   5.578  17.821  0.00  0.00    +0.000 A 
ATOM     32  C   UNL     1       1.738   2.107  18.404  0.00  0.00    +0.000 C 
ATOM     33  C   UNL     1       0.613   2.174  19.426  0.00  0.00    +0.000 C 
ATOM     34  C   UNL     1       1.105   2.865  20.684  0.00  0.00    +0.000 C 
ATOM     35  C   UNL     1       1.505   4.294  20.347  0.00  0.00    +0.000 C 
ENDBRANCH  20  22
ENDBRANCH  19  20
ENDBRANCH   1  19
TORSDOF 10
ENDMDL
MODEL 8
REMARK VINA RESULT:      -7.7      3.974      9.228
REMARK  Name = 
REMARK  10 active torsions:
REMARK  status: ('A' for Active; 'I' for Inactive)
REMARK    1  A    between atoms: C_2  and  C_26
REMARK    2  A    between atoms: N_3  and  C_4
REMARK    3  A    between atoms: C_4  and  C_5
REMARK    4  A    between atoms: C_5  and  C_6
REMARK    5  A    between atoms: C_6  and  C_7
REMARK    6  A    between atoms: C_7  and  C_8
REMARK    7  A    between atoms: C_8  and  C_9
REMARK    8  A    between atoms: C_9  and  C_10
REMARK    9  A    between atoms: C_10  and  N_11
REMARK   10  A    between atoms: N_11  and  C_12
REMARK                            x       y       z     vdW  Elec       q    Type
REMARK                         _______ _______ _______ _____ _____    ______ ____
ROOT
ATOM      1  C   UNL     1       2.372   3.344  17.812  0.00  0.00    +0.000 C 
ENDROOT
BRANCH   1   2
ATOM      2  C   UNL     1       1.288   2.428  18.379  0.00  0.00    +0.000 C 
BRANCH   2   3
ATOM      3  C   UNL     1       0.716   2.923  19.708  0.00  0.00    +0.000 C 
BRANCH   3   4
ATOM      4  C   UNL     1       1.622   2.552  20.874  0.00  0.00    +0.000 C 
BRANCH   4   5
ATOM      5  C   UNL     1       1.968   3.785  21.705  0.00  0.00    +0.000 C 
BRANCH   5   6
ATOM      6  C   UNL     1       2.627   4.850  20.840  0.00  0.00    +0.000 C 
BRANCH   6   9
ATOM      7  O   UNL     1       2.663   6.970  18.974  0.00  0.00    +0.000 OA
ATOM      8  C   UNL     1       2.069   7.110  20.038  0.00  0.00    +0.000 C 
ATOM      9  N   UNL     1       1.990   6.137  21.009  0.00  0.00    +0.000 N 
ATOM     10  H   UNL     1       1.419   6.272  21.833  0.00  0.00    +0.000 HD
BRANCH   8  11
ATOM     11  C   UNL     1       1.353   8.368  20.309  0.00  0.00    +0.000 A 
ATOM     12  C   UNL     1       1.319   9.341  19.317  0.00  0.00    +0.000 A 
ATOM     13  N   UNL     1       0.675  10.527  19.444  0.00  0.00    +0.000 NA
ATOM     14  C   UNL     1       0.062  10.760  20.629  0.00  0.00    +0.000 A 
ATOM     15 CL   UNL     1      -0.728  12.288  20.686  0.00  0.00    +0.000 Cl
ATOM     16  C   UNL     1       0.060   9.862  21.689  0.00  0.00    +0.000 A 
ATOM     17 CL   UNL     1      -0.711  10.179  23.201  0.00  0.00    +0.000 Cl
ATOM     18  C   UNL     1       0.719   8.641  21.524  0.00  0.00    +0.000 A 
ENDBRANCH   8  11
ENDBRANCH   6   9
ENDBRANCH   5   6
ENDBRANCH   4   5
ENDBRANCH   3   4
ENDBRANCH   2   3
ENDBRANCH   1   2
BRANCH   1  19
ATOM     19  C   UNL     1       3.713   2.651  17.596  0.00  0.00    +0.000 C 
BRANCH  19  20
ATOM     20  N   UNL     1       4.260   2.913  16.266  0.00  0.00    +0.000 N 
ATOM     21  H   UNL     1       3.536   3.155  15.591  0.00  0.00    +0.000 HD
BRANCH  20  22
ATOM     22  C   UNL     1       5.368   3.786  16.107  0.00  0.00    +0.000 A 
ATOM     23  C   UNL     1       5.941   4.541  17.156  0.00  0.00    +0.000 A 
ATOM     24  C   UNL     1       7.063   5.326  16.859  0.00  0.00    +0.000 A 
ATOM     25  N   UNL     1       7.570   5.463  15.613  0.00  0.00    +0.000 NA
ATOM     26  C   UNL     1       6.977   4.831  14.602  0.00  0.00    +0.000 A 
ATOM     27  C   UNL     1       7.507   5.033  13.332  0.00  0.00    +0.000 A 
ATOM     28  C   UNL     1       6.962   4.432  12.199  0.00  0.00    +0.000 A 
ATOM     29  C   UNL     1       5.857   3.604  12.338  0.00  0.00    +0.000 A 
ATOM     30  C   UNL     1       5.318   3.379  13.610  0.00  0.00    +0.000 A 
ATOM     31  C   UNL     1       5.862   3.985  14.771  0.00  0.00    +0.000 A 
ATOM     32  C   UNL     1       7.772   6.155  17.901  0.00  0.00    +0.000 C 
ATOM     33  C   UNL     1       7.393   5.829  19.338  0.00  0.00    +0.000 C 
ATOM     34  C   UNL     1       5.887   5.682  19.449  0.00  0.00    +0.000 C 
ATOM     35  C   UNL     1       5.432   4.519  18.579  0.00  0.00    +0.000 C 
ENDBRANCH  20  22
ENDBRANCH  19  20
ENDBRANCH   1  19
TORSDOF 10
ENDMDL
MODEL 9
REMARK VINA RESULT:      -7.7      2.327      3.276
REMARK  Name = 
REMARK  10 active torsions:
REMARK  status: ('A' for Active; 'I' for Inactive)
REMARK    1  A    between atoms: C_2  and  C_26
REMARK    2  A    between atoms: N_3  and  C_4
REMARK    3  A    between atoms: C_4  and  C_5
REMARK    4  A    between atoms: C_5  and  C_6
REMARK    5  A    between atoms: C_6  and  C_7
REMARK    6  A    between atoms: C_7  and  C_8
REMARK    7  A    between atoms: C_8  and  C_9
REMARK    8  A    between atoms: C_9  and  C_10
REMARK    9  A    between atoms: C_10  and  N_11
REMARK   10  A    between atoms: N_11  and  C_12
REMARK                            x       y       z     vdW  Elec       q    Type
REMARK                         _______ _______ _______ _____ _____    ______ ____
ROOT
ATOM      1  C   UNL     1       2.283   8.406  17.759  0.00  0.00    +0.000 C 
ENDROOT
BRANCH   1   2
ATOM      2  C   UNL     1       1.518   7.085  17.832  0.00  0.00    +0.000 C 
BRANCH   2   3
ATOM      3  C   UNL     1       2.201   6.041  18.717  0.00  0.00    +0.000 C 
BRANCH   3   4
ATOM      4  C   UNL     1       1.776   4.630  18.335  0.00  0.00    +0.000 C 
BRANCH   4   5
ATOM      5  C   UNL     1       2.447   3.598  19.239  0.00  0.00    +0.000 C 
BRANCH   5   6
ATOM      6  C   UNL     1       3.958   3.793  19.247  0.00  0.00    +0.000 C 
BRANCH   6   9
ATOM      7  O   UNL     1       6.639   4.376  18.581  0.00  0.00    +0.000 OA
ATOM      8  C   UNL     1       5.797   4.304  17.693  0.00  0.00    +0.000 C 
ATOM      9  N   UNL     1       4.467   4.022  17.913  0.00  0.00    +0.000 N 
ATOM     10  H   UNL     1       3.829   3.893  17.139  0.00  0.00    +0.000 HD
BRANCH   8  11
ATOM     11  C   UNL     1       6.206   4.487  16.290  0.00  0.00    +0.000 A 
ATOM     12  C   UNL     1       7.274   5.332  16.013  0.00  0.00    +0.000 A 
ATOM     13  N   UNL     1       7.751   5.561  14.765  0.00  0.00    +0.000 NA
ATOM     14  C   UNL     1       7.111   4.938  13.746  0.00  0.00    +0.000 A 
ATOM     15 CL   UNL     1       7.797   5.291  12.208  0.00  0.00    +0.000 Cl
ATOM     16  C   UNL     1       6.020   4.095  13.919  0.00  0.00    +0.000 A 
ATOM     17 CL   UNL     1       5.202   3.321  12.610  0.00  0.00    +0.000 Cl
ATOM     18  C   UNL     1       5.559   3.865  15.218  0.00  0.00    +0.000 A 
ENDBRANCH   8  11
ENDBRANCH   6   9
ENDBRANCH   5   6
ENDBRANCH   4   5
ENDBRANCH   3   4
ENDBRANCH   2   3
ENDBRANCH   1   2
BRANCH   1  19
ATOM     19  C   UNL     1       1.419   9.634  18.028  0.00  0.00    +0.000 C 
BRANCH  19  20
ATOM     20  N   UNL     1       0.302   9.335  18.922  0.00  0.00    +0.000 N 
ATOM     21  H   UNL     1       0.613   8.979  19.824  0.00  0.00    +0.000 HD
BRANCH  20  22
ATOM     22  C   UNL     1      -0.731  10.289  19.119  0.00  0.00    +0.000 A 
ATOM     23  C   UNL     1      -0.925  11.013  20.318  0.00  0.00    +0.000 A 
ATOM     24  C   UNL     1      -1.961  11.957  20.351  0.00  0.00    +0.000 A 
ATOM     25  N   UNL     1      -2.830  12.148  19.334  0.00  0.00    +0.000 NA
ATOM     26  C   UNL     1      -2.715  11.400  18.238  0.00  0.00    +0.000 A 
ATOM     27  C   UNL     1      -3.656  11.600  17.233  0.00  0.00    +0.000 A 
ATOM     28  C   UNL     1      -3.639  10.868  16.048  0.00  0.00    +0.000 A 
ATOM     29  C   UNL     1      -2.655   9.909  15.858  0.00  0.00    +0.000 A 
ATOM     30  C   UNL     1      -1.692   9.702  16.852  0.00  0.00    +0.000 A 
ATOM     31  C   UNL     1      -1.698  10.440  18.065  0.00  0.00    +0.000 A 
ATOM     32  C   UNL     1      -2.246  12.805  21.566  0.00  0.00    +0.000 C 
ATOM     33  C   UNL     1      -1.146  12.800  22.617  0.00  0.00    +0.000 C 
ATOM     34  C   UNL     1      -0.657  11.382  22.838  0.00  0.00    +0.000 C 
ATOM     35  C   UNL     1      -0.057  10.851  21.544  0.00  0.00    +0.000 C 
ENDBRANCH  20  22
ENDBRANCH  19  20
ENDBRANCH   1  19
TORSDOF 10
ENDMDL
