MODEL 1
REMARK VINA RESULT:      -7.4      0.000      0.000
REMARK  Name = 
REMARK  7 active torsions:
REMARK  status: ('A' for Active; 'I' for Inactive)
REMARK    1  A    between atoms: C_1  and  C_2
REMARK    2  A    between atoms: N_7  and  C_8
REMARK    3  A    between atoms: C_8  and  C_9
REMARK    4  A    between atoms: C_9  and  C_11
REMARK    5  A    between atoms: C_13  and  C_14
REMARK    6  A    between atoms: C_18  and  C_19
REMARK    7  A    between atoms: C_22  and  C_23
REMARK                            x       y       z     vdW  Elec       q    Type
REMARK                         _______ _______ _______ _____ _____    ______ ____
ROOT
ATOM      1  C   UNL     1       1.296   8.423  20.352  0.00  0.00    +0.000 A 
ATOM      2  C   UNL     1       1.251   7.224  21.095  0.00  0.00    +0.000 A 
ATOM      3  C   UNL     1       1.904   6.239  20.385  0.00  0.00    +0.000 A 
ATOM      4  C   UNL     1       2.100   4.817  20.793  0.00  0.00    +0.000 C 
ATOM      5  N   UNL     1       2.441   6.807  19.229  0.00  0.00    +0.000 N 
ATOM      6  C   UNL     1       3.262   6.136  18.261  0.00  0.00    +0.000 A 
ATOM      7  C   UNL     1       4.240   6.681  17.407  0.00  0.00    +0.000 A 
ATOM      8  C   UNL     1       4.662   5.613  16.656  0.00  0.00    +0.000 A 
ATOM      9  C   UNL     1       5.636   5.453  15.564  0.00  0.00    +0.000 C 
ATOM     10  O   UNL     1       4.001   4.493  17.054  0.00  0.00    +0.000 OA
ATOM     11  N   UNL     1       3.137   4.816  18.089  0.00  0.00    +0.000 NA
ATOM     12  C   UNL     1       2.037   8.149  19.203  0.00  0.00    +0.000 A 
ATOM     13  C   UNL     1       2.288   9.091  18.066  0.00  0.00    +0.000 C 
ENDROOT
BRANCH   1  14
ATOM     14  C   UNL     1       0.681   9.719  20.685  0.00  0.00    +0.000 C 
ATOM     15  O   UNL     1       1.264  10.559  21.377  0.00  0.00    +0.000 OA
BRANCH  14  16
ATOM     16  C   UNL     1      -0.729  10.027  20.171  0.00  0.00    +0.000 C 
BRANCH  16  23
ATOM     17  C   UNL     1      -5.306  12.135  17.042  0.00  0.00    +0.000 C 
ATOM     18  C   UNL     1      -4.171  11.204  16.708  0.00  0.00    +0.000 C 
ATOM     19  O   UNL     1      -4.138  10.638  15.615  0.00  0.00    +0.000 OA
ATOM     20  N   UNL     1      -3.168  11.070  17.653  0.00  0.00    +0.000 N 
ATOM     21  C   UNL     1      -2.000  10.247  17.330  0.00  0.00    +0.000 C 
ATOM     22  C   UNL     1      -0.710  10.896  17.866  0.00  0.00    +0.000 C 
ATOM     23  N   UNL     1      -0.740  11.233  19.313  0.00  0.00    +0.000 NA
ATOM     24  C   UNL     1      -1.934  12.063  19.580  0.00  0.00    +0.000 C 
ATOM     25  C   UNL     1      -3.266  11.486  19.054  0.00  0.00    +0.000 C 
ENDBRANCH  16  23
ENDBRANCH  14  16
ENDBRANCH   1  14
TORSDOF 3
ENDMDL
MODEL 2
REMARK VINA RESULT:      -7.3      1.595      2.964
REMARK  Name = 
REMARK  7 active torsions:
REMARK  status: ('A' for Active; 'I' for Inactive)
REMARK    1  A    between atoms: C_1  and  C_2
REMARK    2  A    between atoms: N_7  and  C_8
REMARK    3  A    between atoms: C_8  and  C_9
REMARK    4  A    between atoms: C_9  and  C_11
REMARK    5  A    between atoms: C_13  and  C_14
REMARK    6  A    between atoms: C_18  and  C_19
REMARK    7  A    between atoms: C_22  and  C_23
REMARK                            x       y       z     vdW  Elec       q    Type
REMARK                         _______ _______ _______ _____ _____    ______ ____
ROOT
ATOM      1  C   UNL     1       1.481   9.322  19.018  0.00  0.00    +0.000 A 
ATOM      2  C   UNL     1       2.276   9.002  17.897  0.00  0.00    +0.000 A 
ATOM      3  C   UNL     1       2.809   7.744  18.078  0.00  0.00    +0.000 A 
ATOM      4  C   UNL     1       3.708   7.006  17.142  0.00  0.00    +0.000 C 
ATOM      5  N   UNL     1       2.303   7.214  19.266  0.00  0.00    +0.000 N 
ATOM      6  C   UNL     1       2.550   5.895  19.774  0.00  0.00    +0.000 A 
ATOM      7  C   UNL     1       1.736   5.106  20.609  0.00  0.00    +0.000 A 
ATOM      8  C   UNL     1       2.480   3.974  20.832  0.00  0.00    +0.000 A 
ATOM      9  C   UNL     1       2.266   2.751  21.621  0.00  0.00    +0.000 C 
ATOM     10  O   UNL     1       3.653   4.064  20.150  0.00  0.00    +0.000 OA
ATOM     11  N   UNL     1       3.687   5.264  19.456  0.00  0.00    +0.000 NA
ATOM     12  C   UNL     1       1.506   8.205  19.853  0.00  0.00    +0.000 A 
ATOM     13  C   UNL     1       0.875   8.098  21.207  0.00  0.00    +0.000 C 
ENDROOT
BRANCH   1  14
ATOM     14  C   UNL     1       0.766  10.580  19.293  0.00  0.00    +0.000 C 
ATOM     15  O   UNL     1       1.362  11.608  19.628  0.00  0.00    +0.000 OA
BRANCH  14  16
ATOM     16  C   UNL     1      -0.762  10.610  19.174  0.00  0.00    +0.000 C 
BRANCH  16  23
ATOM     17  C   UNL     1      -6.077  13.208  19.588  0.00  0.00    +0.000 C 
ATOM     18  C   UNL     1      -5.512  12.160  18.668  0.00  0.00    +0.000 C 
ATOM     19  O   UNL     1      -6.242  11.595  17.853  0.00  0.00    +0.000 OA
ATOM     20  N   UNL     1      -4.151  11.916  18.751  0.00  0.00    +0.000 N 
ATOM     21  C   UNL     1      -3.545  10.970  17.811  0.00  0.00    +0.000 C 
ATOM     22  C   UNL     1      -2.166  11.474  17.344  0.00  0.00    +0.000 C 
ATOM     23  N   UNL     1      -1.223  11.810  18.443  0.00  0.00    +0.000 NA
ATOM     24  C   UNL     1      -1.886  12.766  19.357  0.00  0.00    +0.000 C 
ATOM     25  C   UNL     1      -3.284  12.338  19.854  0.00  0.00    +0.000 C 
ENDBRANCH  16  23
ENDBRANCH  14  16
ENDBRANCH   1  14
TORSDOF 3
ENDMDL
MODEL 3
REMARK VINA RESULT:      -7.0      3.625      5.408
REMARK  Name = 
REMARK  7 active torsions:
REMARK  status: ('A' for Active; 'I' for Inactive)
REMARK    1  A    between atoms: C_1  and  C_2
REMARK    2  A    between atoms: N_7  and  C_8
REMARK    3  A    between atoms: C_8  and  C_9
REMARK    4  A    between atoms: C_9  and  C_11
REMARK    5  A    between atoms: C_13  and  C_14
REMARK    6  A    between atoms: C_18  and  C_19
REMARK    7  A    between atoms: C_22  and  C_23
REMARK                            x       y       z     vdW  Elec       q    Type
REMARK                         _______ _______ _______ _____ _____    ______ ____
ROOT
ATOM      1  C   UNL     1       1.106   9.728  19.294  0.00  0.00    +0.000 A 
ATOM      2  C   UNL     1       1.863   9.492  18.126  0.00  0.00    +0.000 A 
ATOM      3  C   UNL     1       2.460   8.253  18.230  0.00  0.00    +0.000 A 
ATOM      4  C   UNL     1       3.347   7.597  17.226  0.00  0.00    +0.000 C 
ATOM      5  N   UNL     1       2.033   7.653  19.415  0.00  0.00    +0.000 N 
ATOM      6  C   UNL     1       2.361   6.326  19.855  0.00  0.00    +0.000 A 
ATOM      7  C   UNL     1       1.622   5.466  20.690  0.00  0.00    +0.000 A 
ATOM      8  C   UNL     1       2.424   4.363  20.832  0.00  0.00    +0.000 A 
ATOM      9  C   UNL     1       2.302   3.100  21.576  0.00  0.00    +0.000 C 
ATOM     10  O   UNL     1       3.560   4.535  20.103  0.00  0.00    +0.000 OA
ATOM     11  N   UNL     1       3.509   5.763  19.461  0.00  0.00    +0.000 NA
ATOM     12  C   UNL     1       1.220   8.580  20.079  0.00  0.00    +0.000 A 
ATOM     13  C   UNL     1       0.656   8.388  21.453  0.00  0.00    +0.000 C 
ENDROOT
BRANCH   1  14
ATOM     14  C   UNL     1       0.349  10.940  19.654  0.00  0.00    +0.000 C 
ATOM     15  O   UNL     1      -0.880  10.927  19.776  0.00  0.00    +0.000 OA
BRANCH  14  16
ATOM     16  C   UNL     1       1.106  12.254  19.867  0.00  0.00    +0.000 C 
BRANCH  16  23
ATOM     17  C   UNL     1       4.869  16.680  18.666  0.00  0.00    +0.000 C 
ATOM     18  C   UNL     1       3.475  16.637  19.234  0.00  0.00    +0.000 C 
ATOM     19  O   UNL     1       2.946  17.669  19.650  0.00  0.00    +0.000 OA
ATOM     20  N   UNL     1       2.822  15.417  19.210  0.00  0.00    +0.000 N 
ATOM     21  C   UNL     1       1.432  15.350  19.668  0.00  0.00    +0.000 C 
ATOM     22  C   UNL     1       0.608  14.405  18.774  0.00  0.00    +0.000 C 
ATOM     23  N   UNL     1       1.181  13.043  18.617  0.00  0.00    +0.000 NA
ATOM     24  C   UNL     1       2.580  13.170  18.153  0.00  0.00    +0.000 C 
ATOM     25  C   UNL     1       3.466  14.119  18.990  0.00  0.00    +0.000 C 
ENDBRANCH  16  23
ENDBRANCH  14  16
ENDBRANCH   1  14
TORSDOF 3
ENDMDL
MODEL 4
REMARK VINA RESULT:      -7.0      3.378      5.507
REMARK  Name = 
REMARK  7 active torsions:
REMARK  status: ('A' for Active; 'I' for Inactive)
REMARK    1  A    between atoms: C_1  and  C_2
REMARK    2  A    between atoms: N_7  and  C_8
REMARK    3  A    between atoms: C_8  and  C_9
REMARK    4  A    between atoms: C_9  and  C_11
REMARK    5  A    between atoms: C_13  and  C_14
REMARK    6  A    between atoms: C_18  and  C_19
REMARK    7  A    between atoms: C_22  and  C_23
REMARK                            x       y       z     vdW  Elec       q    Type
REMARK                         _______ _______ _______ _____ _____    ______ ____
ROOT
ATOM      1  C   UNL     1       1.210   9.606  19.127  0.00  0.00    +0.000 A 
ATOM      2  C   UNL     1       2.043   9.350  18.017  0.00  0.00    +0.000 A 
ATOM      3  C   UNL     1       2.627   8.112  18.180  0.00  0.00    +0.000 A 
ATOM      4  C   UNL     1       3.577   7.438  17.247  0.00  0.00    +0.000 C 
ATOM      5  N   UNL     1       2.118   7.530  19.342  0.00  0.00    +0.000 N 
ATOM      6  C   UNL     1       2.411   6.209  19.823  0.00  0.00    +0.000 A 
ATOM      7  C   UNL     1       1.614   5.365  20.619  0.00  0.00    +0.000 A 
ATOM      8  C   UNL     1       2.401   4.261  20.830  0.00  0.00    +0.000 A 
ATOM      9  C   UNL     1       2.223   3.009  21.583  0.00  0.00    +0.000 C 
ATOM     10  O   UNL     1       3.583   4.419  20.178  0.00  0.00    +0.000 OA
ATOM     11  N   UNL     1       3.581   5.637  19.516  0.00  0.00    +0.000 NA
ATOM     12  C   UNL     1       1.266   8.470  19.935  0.00  0.00    +0.000 A 
ATOM     13  C   UNL     1       0.610   8.300  21.271  0.00  0.00    +0.000 C 
ENDROOT
BRANCH   1  14
ATOM     14  C   UNL     1       0.435  10.825  19.417  0.00  0.00    +0.000 C 
ATOM     15  O   UNL     1      -0.685  11.015  18.933  0.00  0.00    +0.000 OA
BRANCH  14  16
ATOM     16  C   UNL     1       1.042  11.893  20.333  0.00  0.00    +0.000 C 
BRANCH  16  23
ATOM     17  C   UNL     1       5.320  15.131  17.805  0.00  0.00    +0.000 C 
ATOM     18  C   UNL     1       4.778  15.055  19.207  0.00  0.00    +0.000 C 
ATOM     19  O   UNL     1       5.320  15.688  20.113  0.00  0.00    +0.000 OA
ATOM     20  N   UNL     1       3.636  14.297  19.400  0.00  0.00    +0.000 N 
ATOM     21  C   UNL     1       3.023  14.270  20.730  0.00  0.00    +0.000 C 
ATOM     22  C   UNL     1       1.486  14.298  20.623  0.00  0.00    +0.000 C 
ATOM     23  N   UNL     1       0.906  13.246  19.749  0.00  0.00    +0.000 NA
ATOM     24  C   UNL     1       1.558  13.320  18.424  0.00  0.00    +0.000 C 
ATOM     25  C   UNL     1       3.102  13.316  18.450  0.00  0.00    +0.000 C 
ENDBRANCH  16  23
ENDBRANCH  14  16
ENDBRANCH   1  14
TORSDOF 3
ENDMDL
MODEL 5
REMARK VINA RESULT:      -6.9      3.462      4.927
REMARK  Name = 
REMARK  7 active torsions:
REMARK  status: ('A' for Active; 'I' for Inactive)
REMARK    1  A    between atoms: C_1  and  C_2
REMARK    2  A    between atoms: N_7  and  C_8
REMARK    3  A    between atoms: C_8  and  C_9
REMARK    4  A    between atoms: C_9  and  C_11
REMARK    5  A    between atoms: C_13  and  C_14
REMARK    6  A    between atoms: C_18  and  C_19
REMARK    7  A    between atoms: C_22  and  C_23
REMARK                            x       y       z     vdW  Elec       q    Type
REMARK                         _______ _______ _______ _____ _____    ______ ____
ROOT
ATOM      1  C   UNL     1       1.391   9.519  19.040  0.00  0.00    +0.000 A 
ATOM      2  C   UNL     1       2.164   9.192  17.906  0.00  0.00    +0.000 A 
ATOM      3  C   UNL     1       2.700   7.934  18.085  0.00  0.00    +0.000 A 
ATOM      4  C   UNL     1       3.580   7.190  17.137  0.00  0.00    +0.000 C 
ATOM      5  N   UNL     1       2.216   7.412  19.285  0.00  0.00    +0.000 N 
ATOM      6  C   UNL     1       2.472   6.095  19.797  0.00  0.00    +0.000 A 
ATOM      7  C   UNL     1       1.673   5.312  20.652  0.00  0.00    +0.000 A 
ATOM      8  C   UNL     1       2.420   4.182  20.868  0.00  0.00    +0.000 A 
ATOM      9  C   UNL     1       2.220   2.963  21.668  0.00  0.00    +0.000 C 
ATOM     10  O   UNL     1       3.580   4.267  20.163  0.00  0.00    +0.000 OA
ATOM     11  N   UNL     1       3.601   5.462  19.461  0.00  0.00    +0.000 NA
ATOM     12  C   UNL     1       1.432   8.407  19.882  0.00  0.00    +0.000 A 
ATOM     13  C   UNL     1       0.826   8.309  21.248  0.00  0.00    +0.000 C 
ENDROOT
BRANCH   1  14
ATOM     14  C   UNL     1       0.683  10.780  19.321  0.00  0.00    +0.000 C 
ATOM     15  O   UNL     1      -0.342  10.812  20.010  0.00  0.00    +0.000 OA
BRANCH  14  16
ATOM     16  C   UNL     1       1.223  12.085  18.729  0.00  0.00    +0.000 C 
BRANCH  16  23
ATOM     17  C   UNL     1       0.911  18.005  18.538  0.00  0.00    +0.000 C 
ATOM     18  C   UNL     1       1.998  17.019  18.201  0.00  0.00    +0.000 C 
ATOM     19  O   UNL     1       3.047  17.409  17.689  0.00  0.00    +0.000 OA
ATOM     20  N   UNL     1       1.775  15.696  18.541  0.00  0.00    +0.000 N 
ATOM     21  C   UNL     1       2.843  14.719  18.315  0.00  0.00    +0.000 C 
ATOM     22  C   UNL     1       2.915  13.711  19.477  0.00  0.00    +0.000 C 
ATOM     23  N   UNL     1       1.632  13.032  19.791  0.00  0.00    +0.000 NA
ATOM     24  C   UNL     1       0.594  14.062  20.010  0.00  0.00    +0.000 C 
ATOM     25  C   UNL     1       0.473  15.122  18.894  0.00  0.00    +0.000 C 
ENDBRANCH  16  23
ENDBRANCH  14  16
ENDBRANCH   1  14
TORSDOF 3
ENDMDL
MODEL 6
REMARK VINA RESULT:      -6.9      2.956      4.396
REMARK  Name = 
REMARK  7 active torsions:
REMARK  status: ('A' for Active; 'I' for Inactive)
REMARK    1  A    between atoms: C_1  and  C_2
REMARK    2  A    between atoms: N_7  and  C_8
REMARK    3  A    between atoms: C_8  and  C_9
REMARK    4  A    between atoms: C_9  and  C_11
REMARK    5  A    between atoms: C_13  and  C_14
REMARK    6  A    between atoms: C_18  and  C_19
REMARK    7  A    between atoms: C_22  and  C_23
REMARK                            x       y       z     vdW  Elec       q    Type
REMARK                         _______ _______ _______ _____ _____    ______ ____
ROOT
ATOM      1  C   UNL     1       1.142   8.716  20.126  0.00  0.00    +0.000 A 
ATOM      2  C   UNL     1       1.183   7.586  20.971  0.00  0.00    +0.000 A 
ATOM      3  C   UNL     1       1.904   6.592  20.344  0.00  0.00    +0.000 A 
ATOM      4  C   UNL     1       2.201   5.228  20.874  0.00  0.00    +0.000 C 
ATOM      5  N   UNL     1       2.398   7.093  19.139  0.00  0.00    +0.000 N 
ATOM      6  C   UNL     1       3.264   6.400  18.228  0.00  0.00    +0.000 A 
ATOM      7  C   UNL     1       4.200   6.935  17.323  0.00  0.00    +0.000 A 
ATOM      8  C   UNL     1       4.696   5.838  16.665  0.00  0.00    +0.000 A 
ATOM      9  C   UNL     1       5.678   5.653  15.585  0.00  0.00    +0.000 C 
ATOM     10  O   UNL     1       4.118   4.713  17.164  0.00  0.00    +0.000 OA
ATOM     11  N   UNL     1       3.234   5.064  18.173  0.00  0.00    +0.000 NA
ATOM     12  C   UNL     1       1.900   8.395  18.999  0.00  0.00    +0.000 A 
ATOM     13  C   UNL     1       2.082   9.250  17.782  0.00  0.00    +0.000 C 
ENDROOT
BRANCH   1  14
ATOM     14  C   UNL     1       0.436   9.989  20.348  0.00  0.00    +0.000 C 
ATOM     15  O   UNL     1      -0.779  10.102  20.159  0.00  0.00    +0.000 OA
BRANCH  14  16
ATOM     16  C   UNL     1       1.234  11.211  20.813  0.00  0.00    +0.000 C 
BRANCH  16  23
ATOM     17  C   UNL     1       4.035  15.360  17.633  0.00  0.00    +0.000 C 
ATOM     18  C   UNL     1       3.781  15.189  19.107  0.00  0.00    +0.000 C 
ATOM     19  O   UNL     1       4.290  15.965  19.915  0.00  0.00    +0.000 OA
ATOM     20  N   UNL     1       2.923  14.170  19.483  0.00  0.00    +0.000 N 
ATOM     21  C   UNL     1       2.576  14.026  20.899  0.00  0.00    +0.000 C 
ATOM     22  C   UNL     1       1.090  13.657  21.062  0.00  0.00    +0.000 C 
ATOM     23  N   UNL     1       0.657  12.467  20.285  0.00  0.00    +0.000 NA
ATOM     24  C   UNL     1       1.029  12.667  18.868  0.00  0.00    +0.000 C 
ATOM     25  C   UNL     1       2.503  13.059  18.625  0.00  0.00    +0.000 C 
ENDBRANCH  16  23
ENDBRANCH  14  16
ENDBRANCH   1  14
TORSDOF 3
ENDMDL
MODEL 7
REMARK VINA RESULT:      -6.8      2.398      3.911
REMARK  Name = 
REMARK  7 active torsions:
REMARK  status: ('A' for Active; 'I' for Inactive)
REMARK    1  A    between atoms: C_1  and  C_2
REMARK    2  A    between atoms: N_7  and  C_8
REMARK    3  A    between atoms: C_8  and  C_9
REMARK    4  A    between atoms: C_9  and  C_11
REMARK    5  A    between atoms: C_13  and  C_14
REMARK    6  A    between atoms: C_18  and  C_19
REMARK    7  A    between atoms: C_22  and  C_23
REMARK                            x       y       z     vdW  Elec       q    Type
REMARK                         _______ _______ _______ _____ _____    ______ ____
ROOT
ATOM      1  C   UNL     1       2.371   8.692  18.344  0.00  0.00    +0.000 A 
ATOM      2  C   UNL     1       3.173   8.036  17.386  0.00  0.00    +0.000 A 
ATOM      3  C   UNL     1       3.418   6.751  17.820  0.00  0.00    +0.000 A 
ATOM      4  C   UNL     1       4.219   5.704  17.121  0.00  0.00    +0.000 C 
ATOM      5  N   UNL     1       2.717   6.543  19.009  0.00  0.00    +0.000 N 
ATOM      6  C   UNL     1       2.644   5.310  19.740  0.00  0.00    +0.000 A 
ATOM      7  C   UNL     1       1.618   4.848  20.588  0.00  0.00    +0.000 A 
ATOM      8  C   UNL     1       2.091   3.653  21.067  0.00  0.00    +0.000 A 
ATOM      9  C   UNL     1       1.565   2.649  22.006  0.00  0.00    +0.000 C 
ATOM     10  O   UNL     1       3.309   3.398  20.520  0.00  0.00    +0.000 OA
ATOM     11  N   UNL     1       3.648   4.429  19.658  0.00  0.00    +0.000 NA
ATOM     12  C   UNL     1       2.096   7.754  19.340  0.00  0.00    +0.000 A 
ATOM     13  C   UNL     1       1.347   8.007  20.611  0.00  0.00    +0.000 C 
ENDROOT
BRANCH   1  14
ATOM     14  C   UNL     1       1.911  10.091  18.336  0.00  0.00    +0.000 C 
ATOM     15  O   UNL     1       2.627  11.010  17.925  0.00  0.00    +0.000 OA
BRANCH  14  16
ATOM     16  C   UNL     1       0.512  10.418  18.868  0.00  0.00    +0.000 C 
BRANCH  16  23
ATOM     17  C   UNL     1      -2.726  12.594  23.336  0.00  0.00    +0.000 C 
ATOM     18  C   UNL     1      -2.992  12.407  21.866  0.00  0.00    +0.000 C 
ATOM     19  O   UNL     1      -4.110  12.640  21.407  0.00  0.00    +0.000 OA
ATOM     20  N   UNL     1      -1.922  12.023  21.076  0.00  0.00    +0.000 N 
ATOM     21  C   UNL     1      -2.115  11.920  19.628  0.00  0.00    +0.000 C 
ATOM     22  C   UNL     1      -0.880  12.449  18.873  0.00  0.00    +0.000 C 
ATOM     23  N   UNL     1       0.409  11.834  19.283  0.00  0.00    +0.000 NA
ATOM     24  C   UNL     1       0.551  11.969  20.749  0.00  0.00    +0.000 C 
ATOM     25  C   UNL     1      -0.657  11.475  21.575  0.00  0.00    +0.000 C 
ENDBRANCH  16  23
ENDBRANCH  14  16
ENDBRANCH   1  14
TORSDOF 3
ENDMDL
MODEL 8
REMARK VINA RESULT:      -6.8      3.231      4.660
REMARK  Name = 
REMARK  7 active torsions:
REMARK  status: ('A' for Active; 'I' for Inactive)
REMARK    1  A    between atoms: C_1  and  C_2
REMARK    2  A    between atoms: N_7  and  C_8
REMARK    3  A    between atoms: C_8  and  C_9
REMARK    4  A    between atoms: C_9  and  C_11
REMARK    5  A    between atoms: C_13  and  C_14
REMARK    6  A    between atoms: C_18  and  C_19
REMARK    7  A    between atoms: C_22  and  C_23
REMARK                            x       y       z     vdW  Elec       q    Type
REMARK                         _______ _______ _______ _____ _____    ______ ____
ROOT
ATOM      1  C   UNL     1       1.097   9.644  19.431  0.00  0.00    +0.000 A 
ATOM      2  C   UNL     1       1.846   9.437  18.253  0.00  0.00    +0.000 A 
ATOM      3  C   UNL     1       2.444   8.197  18.321  0.00  0.00    +0.000 A 
ATOM      4  C   UNL     1       3.324   7.566  17.294  0.00  0.00    +0.000 C 
ATOM      5  N   UNL     1       2.024   7.566  19.493  0.00  0.00    +0.000 N 
ATOM      6  C   UNL     1       2.355   6.228  19.897  0.00  0.00    +0.000 A 
ATOM      7  C   UNL     1       1.621   5.347  20.714  0.00  0.00    +0.000 A 
ATOM      8  C   UNL     1       2.424   4.240  20.822  0.00  0.00    +0.000 A 
ATOM      9  C   UNL     1       2.306   2.959  21.534  0.00  0.00    +0.000 C 
ATOM     10  O   UNL     1       3.555   4.432  20.091  0.00  0.00    +0.000 OA
ATOM     11  N   UNL     1       3.500   5.675  19.481  0.00  0.00    +0.000 NA
ATOM     12  C   UNL     1       1.215   8.476  20.185  0.00  0.00    +0.000 A 
ATOM     13  C   UNL     1       0.660   8.249  21.558  0.00  0.00    +0.000 C 
ENDROOT
BRANCH   1  14
ATOM     14  C   UNL     1       0.342  10.845  19.826  0.00  0.00    +0.000 C 
ATOM     15  O   UNL     1      -0.867  10.957  19.605  0.00  0.00    +0.000 OA
BRANCH  14  16
ATOM     16  C   UNL     1       1.082  11.995  20.518  0.00  0.00    +0.000 C 
BRANCH  16  23
ATOM     17  C   UNL     1       1.304  17.870  19.737  0.00  0.00    +0.000 C 
ATOM     18  C   UNL     1       0.523  16.771  19.068  0.00  0.00    +0.000 C 
ATOM     19  O   UNL     1      -0.340  17.046  18.235  0.00  0.00    +0.000 OA
ATOM     20  N   UNL     1       0.862  15.469  19.396  0.00  0.00    +0.000 N 
ATOM     21  C   UNL     1       0.190  14.368  18.701  0.00  0.00    +0.000 C 
ATOM     22  C   UNL     1       1.183  13.232  18.391  0.00  0.00    +0.000 C 
ATOM     23  N   UNL     1       1.942  12.733  19.567  0.00  0.00    +0.000 NA
ATOM     24  C   UNL     1       2.599  13.882  20.227  0.00  0.00    +0.000 C 
ATOM     25  C   UNL     1       1.669  15.071  20.553  0.00  0.00    +0.000 C 
ENDBRANCH  16  23
ENDBRANCH  14  16
ENDBRANCH   1  14
TORSDOF 3
ENDMDL
MODEL 9
REMARK VINA RESULT:      -6.8      1.723      3.194
REMARK  Name = 
REMARK  7 active torsions:
REMARK  status: ('A' for Active; 'I' for Inactive)
REMARK    1  A    between atoms: C_1  and  C_2
REMARK    2  A    between atoms: N_7  and  C_8
REMARK    3  A    between atoms: C_8  and  C_9
REMARK    4  A    between atoms: C_9  and  C_11
REMARK    5  A    between atoms: C_13  and  C_14
REMARK    6  A    between atoms: C_18  and  C_19
REMARK    7  A    between atoms: C_22  and  C_23
REMARK                            x       y       z     vdW  Elec       q    Type
REMARK                         _______ _______ _______ _____ _____    ______ ____
ROOT
ATOM      1  C   UNL     1       1.631   9.555  18.832  0.00  0.00    +0.000 A 
ATOM      2  C   UNL     1       2.431   9.145  17.744  0.00  0.00    +0.000 A 
ATOM      3  C   UNL     1       2.886   7.867  17.987  0.00  0.00    +0.000 A 
ATOM      4  C   UNL     1       3.761   7.042  17.103  0.00  0.00    +0.000 C 
ATOM      5  N   UNL     1       2.325   7.415  19.182  0.00  0.00    +0.000 N 
ATOM      6  C   UNL     1       2.483   6.105  19.748  0.00  0.00    +0.000 A 
ATOM      7  C   UNL     1       1.607   5.399  20.593  0.00  0.00    +0.000 A 
ATOM      8  C   UNL     1       2.278   4.236  20.878  0.00  0.00    +0.000 A 
ATOM      9  C   UNL     1       1.977   3.060  21.709  0.00  0.00    +0.000 C 
ATOM     10  O   UNL     1       3.469   4.232  20.221  0.00  0.00    +0.000 OA
ATOM     11  N   UNL     1       3.588   5.399  19.482  0.00  0.00    +0.000 NA
ATOM     12  C   UNL     1       1.574   8.473  19.711  0.00  0.00    +0.000 A 
ATOM     13  C   UNL     1       0.908   8.457  21.053  0.00  0.00    +0.000 C 
ENDROOT
BRANCH   1  14
ATOM     14  C   UNL     1       0.985  10.862  19.040  0.00  0.00    +0.000 C 
ATOM     15  O   UNL     1       1.492  11.734  19.752  0.00  0.00    +0.000 OA
BRANCH  14  16
ATOM     16  C   UNL     1      -0.363  11.142  18.367  0.00  0.00    +0.000 C 
BRANCH  16  23
ATOM     17  C   UNL     1      -6.193  11.966  17.652  0.00  0.00    +0.000 C 
ATOM     18  C   UNL     1      -5.195  12.477  18.657  0.00  0.00    +0.000 C 
ATOM     19  O   UNL     1      -5.535  13.314  19.494  0.00  0.00    +0.000 OA
ATOM     20  N   UNL     1      -3.926  11.926  18.621  0.00  0.00    +0.000 N 
ATOM     21  C   UNL     1      -2.952  12.328  19.639  0.00  0.00    +0.000 C 
ATOM     22  C   UNL     1      -2.113  11.120  20.098  0.00  0.00    +0.000 C 
ATOM     23  N   UNL     1      -1.454  10.368  19.000  0.00  0.00    +0.000 NA
ATOM     24  C   UNL     1      -2.481   9.988  18.005  0.00  0.00    +0.000 C 
ATOM     25  C   UNL     1      -3.376  11.145  17.510  0.00  0.00    +0.000 C 
ENDBRANCH  16  23
ENDBRANCH  14  16
ENDBRANCH   1  14
TORSDOF 3
ENDMDL
