MODEL 1
REMARK VINA RESULT:      -8.5      0.000      0.000
REMARK  Name = 
REMARK  3 active torsions:
REMARK  status: ('A' for Active; 'I' for Inactive)
REMARK    1  A    between atoms: C_2  and  C_14
REMARK    2  A    between atoms: N_3  and  C_4
REMARK    3  A    between atoms: C_17  and  C_18
REMARK                            x       y       z     vdW  Elec       q    Type
REMARK                         _______ _______ _______ _____ _____    ______ ____
ROOT
ATOM      1  O   UNL     1       1.657   8.853  19.110  0.00  0.00    +0.000 OA
ATOM      2  C   UNL     1       1.303   8.524  20.237  0.00  0.00    +0.000 C 
ATOM      3  N   UNL     1       1.486   7.289  20.835  0.00  0.00    +0.000 N 
ATOM      4  H   UNL     1       0.957   7.102  21.678  0.00  0.00    +0.000 HD
ENDROOT
BRANCH   3   5
ATOM      5  C   UNL     1       2.150   6.187  20.259  0.00  0.00    +0.000 A 
ATOM      6  C   UNL     1       3.405   6.281  19.664  0.00  0.00    +0.000 A 
ATOM      7  C   UNL     1       3.979   5.170  19.039  0.00  0.00    +0.000 A 
ATOM      8  C   UNL     1       3.325   3.950  18.987  0.00  0.00    +0.000 A 
ATOM      9  N   UNL     1       3.904   2.930  18.328  0.00  0.00    +0.000 NA
ATOM     10  C   UNL     1       3.235   1.761  18.265  0.00  0.00    +0.000 A 
ATOM     11  C   UNL     1       2.004   1.547  18.855  0.00  0.00    +0.000 A 
ATOM     12  C   UNL     1       1.416   2.598  19.548  0.00  0.00    +0.000 A 
ATOM     13  C   UNL     1       2.070   3.834  19.620  0.00  0.00    +0.000 A 
ATOM     14  C   UNL     1       1.501   4.948  20.272  0.00  0.00    +0.000 A 
ENDBRANCH   3   5
BRANCH   2  15
ATOM     15  C   UNL     1       0.521   9.503  21.033  0.00  0.00    +0.000 A 
ATOM     16  C   UNL     1       0.121  10.689  20.414  0.00  0.00    +0.000 A 
ATOM     17  C   UNL     1      -0.623  11.634  21.124  0.00  0.00    +0.000 A 
ATOM     18  C   UNL     1      -0.995  11.419  22.464  0.00  0.00    +0.000 A 
ATOM     19  C   UNL     1      -0.561  10.225  23.072  0.00  0.00    +0.000 A 
ATOM     20  C   UNL     1       0.197   9.279  22.372  0.00  0.00    +0.000 A 
BRANCH  18  21
ATOM     21  C   UNL     1      -1.803  12.418  23.202  0.00  0.00    +0.000 A 
ATOM     22  C   UNL     1      -1.281  13.685  23.523  0.00  0.00    +0.000 A 
ATOM     23  C   UNL     1      -2.027  14.625  24.241  0.00  0.00    +0.000 A 
ATOM     24  C   UNL     1      -3.324  14.324  24.639  0.00  0.00    +0.000 A 
ATOM     25  C   UNL     1      -3.874  13.086  24.322  0.00  0.00    +0.000 A 
ATOM     26  C   UNL     1      -3.118  12.142  23.617  0.00  0.00    +0.000 A 
ENDBRANCH  18  21
ENDBRANCH   2  15
TORSDOF 3
ENDMDL
MODEL 2
REMARK VINA RESULT:      -8.2      1.976      2.995
REMARK  Name = 
REMARK  3 active torsions:
REMARK  status: ('A' for Active; 'I' for Inactive)
REMARK    1  A    between atoms: C_2  and  C_14
REMARK    2  A    between atoms: N_3  and  C_4
REMARK    3  A    between atoms: C_17  and  C_18
REMARK                            x       y       z     vdW  Elec       q    Type
REMARK                         _______ _______ _______ _____ _____    ______ ____
ROOT
ATOM      1  O   UNL     1       1.846   9.303  17.425  0.00  0.00    +0.000 OA
ATOM      2  C   UNL     1       1.746   8.898  18.578  0.00  0.00    +0.000 C 
ATOM      3  N   UNL     1       2.172   7.674  19.066  0.00  0.00    +0.000 N 
ATOM      4  H   UNL     1       1.832   7.399  19.979  0.00  0.00    +0.000 HD
ENDROOT
BRANCH   3   5
ATOM      5  C   UNL     1       2.835   6.678  18.321  0.00  0.00    +0.000 A 
ATOM      6  C   UNL     1       2.348   5.382  18.180  0.00  0.00    +0.000 A 
ATOM      7  C   UNL     1       3.090   4.416  17.494  0.00  0.00    +0.000 A 
ATOM      8  C   UNL     1       4.326   4.708  16.941  0.00  0.00    +0.000 A 
ATOM      9  N   UNL     1       5.017   3.726  16.337  0.00  0.00    +0.000 NA
ATOM     10  C   UNL     1       6.230   4.027  15.832  0.00  0.00    +0.000 A 
ATOM     11  C   UNL     1       6.791   5.290  15.881  0.00  0.00    +0.000 A 
ATOM     12  C   UNL     1       6.067   6.306  16.492  0.00  0.00    +0.000 A 
ATOM     13  C   UNL     1       4.811   6.028  17.046  0.00  0.00    +0.000 A 
ATOM     14  C   UNL     1       4.051   7.010  17.716  0.00  0.00    +0.000 A 
ENDBRANCH   3   5
BRANCH   2  15
ATOM     15  C   UNL     1       1.023   9.751  19.554  0.00  0.00    +0.000 A 
ATOM     16  C   UNL     1       0.984  11.128  19.326  0.00  0.00    +0.000 A 
ATOM     17  C   UNL     1       0.307  11.966  20.215  0.00  0.00    +0.000 A 
ATOM     18  C   UNL     1      -0.355  11.455  21.346  0.00  0.00    +0.000 A 
ATOM     19  C   UNL     1      -0.285  10.066  21.564  0.00  0.00    +0.000 A 
ATOM     20  C   UNL     1       0.404   9.220  20.687  0.00  0.00    +0.000 A 
BRANCH  18  21
ATOM     21  C   UNL     1      -1.089  12.351  22.271  0.00  0.00    +0.000 A 
ATOM     22  C   UNL     1      -2.291  11.945  22.880  0.00  0.00    +0.000 A 
ATOM     23  C   UNL     1      -3.003  12.793  23.734  0.00  0.00    +0.000 A 
ATOM     24  C   UNL     1      -2.517  14.064  24.014  0.00  0.00    +0.000 A 
ATOM     25  C   UNL     1      -1.322  14.488  23.441  0.00  0.00    +0.000 A 
ATOM     26  C   UNL     1      -0.620  13.642  22.574  0.00  0.00    +0.000 A 
ENDBRANCH  18  21
ENDBRANCH   2  15
TORSDOF 3
ENDMDL
MODEL 3
REMARK VINA RESULT:      -8.2      1.926      2.937
REMARK  Name = 
REMARK  3 active torsions:
REMARK  status: ('A' for Active; 'I' for Inactive)
REMARK    1  A    between atoms: C_2  and  C_14
REMARK    2  A    between atoms: N_3  and  C_4
REMARK    3  A    between atoms: C_17  and  C_18
REMARK                            x       y       z     vdW  Elec       q    Type
REMARK                         _______ _______ _______ _____ _____    ______ ____
ROOT
ATOM      1  O   UNL     1       1.798   9.375  17.387  0.00  0.00    +0.000 OA
ATOM      2  C   UNL     1       1.634   8.991  18.539  0.00  0.00    +0.000 C 
ATOM      3  N   UNL     1       2.015   7.769  19.068  0.00  0.00    +0.000 N 
ATOM      4  H   UNL     1       1.626   7.515  19.967  0.00  0.00    +0.000 HD
ENDROOT
BRANCH   3   5
ATOM      5  C   UNL     1       2.698   6.751  18.373  0.00  0.00    +0.000 A 
ATOM      6  C   UNL     1       2.272   5.426  18.351  0.00  0.00    +0.000 A 
ATOM      7  C   UNL     1       3.035   4.446  17.710  0.00  0.00    +0.000 A 
ATOM      8  C   UNL     1       4.232   4.752  17.084  0.00  0.00    +0.000 A 
ATOM      9  N   UNL     1       4.948   3.760  16.528  0.00  0.00    +0.000 NA
ATOM     10  C   UNL     1       6.124   4.078  15.952  0.00  0.00    +0.000 A 
ATOM     11  C   UNL     1       6.622   5.365  15.882  0.00  0.00    +0.000 A 
ATOM     12  C   UNL     1       5.872   6.391  16.444  0.00  0.00    +0.000 A 
ATOM     13  C   UNL     1       4.654   6.098  17.069  0.00  0.00    +0.000 A 
ATOM     14  C   UNL     1       3.872   7.092  17.694  0.00  0.00    +0.000 A 
ENDBRANCH   3   5
BRANCH   2  15
ATOM     15  C   UNL     1       0.876   9.871  19.464  0.00  0.00    +0.000 A 
ATOM     16  C   UNL     1       0.848   9.538  20.820  0.00  0.00    +0.000 A 
ATOM     17  C   UNL     1       0.155  10.344  21.726  0.00  0.00    +0.000 A 
ATOM     18  C   UNL     1      -0.521  11.505  21.308  0.00  0.00    +0.000 A 
ATOM     19  C   UNL     1      -0.495  11.809  19.933  0.00  0.00    +0.000 A 
ATOM     20  C   UNL     1       0.186  10.999  19.016  0.00  0.00    +0.000 A 
BRANCH  18  21
ATOM     21  C   UNL     1      -1.235  12.365  22.280  0.00  0.00    +0.000 A 
ATOM     22  C   UNL     1      -0.691  13.590  22.708  0.00  0.00    +0.000 A 
ATOM     23  C   UNL     1      -1.347  14.396  23.644  0.00  0.00    +0.000 A 
ATOM     24  C   UNL     1      -2.575  14.001  24.161  0.00  0.00    +0.000 A 
ATOM     25  C   UNL     1      -3.146  12.803  23.745  0.00  0.00    +0.000 A 
ATOM     26  C   UNL     1      -2.479  11.992  22.819  0.00  0.00    +0.000 A 
ENDBRANCH  18  21
ENDBRANCH   2  15
TORSDOF 3
ENDMDL
MODEL 4
REMARK VINA RESULT:      -8.2      1.946      2.967
REMARK  Name = 
REMARK  3 active torsions:
REMARK  status: ('A' for Active; 'I' for Inactive)
REMARK    1  A    between atoms: C_2  and  C_14
REMARK    2  A    between atoms: N_3  and  C_4
REMARK    3  A    between atoms: C_17  and  C_18
REMARK                            x       y       z     vdW  Elec       q    Type
REMARK                         _______ _______ _______ _____ _____    ______ ____
ROOT
ATOM      1  O   UNL     1       1.797   6.647  21.109  0.00  0.00    +0.000 OA
ATOM      2  C   UNL     1       1.568   7.579  20.347  0.00  0.00    +0.000 C 
ATOM      3  N   UNL     1       1.986   7.698  19.032  0.00  0.00    +0.000 N 
ATOM      4  H   UNL     1       1.903   8.610  18.602  0.00  0.00    +0.000 HD
ENDROOT
BRANCH   3   5
ATOM      5  C   UNL     1       2.731   6.738  18.318  0.00  0.00    +0.000 A 
ATOM      6  C   UNL     1       2.296   5.431  18.119  0.00  0.00    +0.000 A 
ATOM      7  C   UNL     1       3.114   4.502  17.469  0.00  0.00    +0.000 A 
ATOM      8  C   UNL     1       4.375   4.842  17.009  0.00  0.00    +0.000 A 
ATOM      9  N   UNL     1       5.137   3.893  16.438  0.00  0.00    +0.000 NA
ATOM     10  C   UNL     1       6.372   4.242  16.026  0.00  0.00    +0.000 A 
ATOM     11  C   UNL     1       6.888   5.519  16.137  0.00  0.00    +0.000 A 
ATOM     12  C   UNL     1       6.092   6.501  16.714  0.00  0.00    +0.000 A 
ATOM     13  C   UNL     1       4.810   6.174  17.173  0.00  0.00    +0.000 A 
ATOM     14  C   UNL     1       3.975   7.119  17.806  0.00  0.00    +0.000 A 
ENDBRANCH   3   5
BRANCH   2  15
ATOM     15  C   UNL     1       0.841   8.756  20.887  0.00  0.00    +0.000 A 
ATOM     16  C   UNL     1       0.543   8.779  22.252  0.00  0.00    +0.000 A 
ATOM     17  C   UNL     1      -0.132   9.870  22.803  0.00  0.00    +0.000 A 
ATOM     18  C   UNL     1      -0.520  10.969  22.014  0.00  0.00    +0.000 A 
ATOM     19  C   UNL     1      -0.225  10.912  20.638  0.00  0.00    +0.000 A 
ATOM     20  C   UNL     1       0.438   9.816  20.074  0.00  0.00    +0.000 A 
BRANCH  18  21
ATOM     21  C   UNL     1      -1.216  12.131  22.613  0.00  0.00    +0.000 A 
ATOM     22  C   UNL     1      -0.617  13.404  22.644  0.00  0.00    +0.000 A 
ATOM     23  C   UNL     1      -1.256  14.501  23.229  0.00  0.00    +0.000 A 
ATOM     24  C   UNL     1      -2.522  14.353  23.783  0.00  0.00    +0.000 A 
ATOM     25  C   UNL     1      -3.148  13.110  23.753  0.00  0.00    +0.000 A 
ATOM     26  C   UNL     1      -2.498  12.011  23.180  0.00  0.00    +0.000 A 
ENDBRANCH  18  21
ENDBRANCH   2  15
TORSDOF 3
ENDMDL
MODEL 5
REMARK VINA RESULT:      -8.1      2.650      9.967
REMARK  Name = 
REMARK  3 active torsions:
REMARK  status: ('A' for Active; 'I' for Inactive)
REMARK    1  A    between atoms: C_2  and  C_14
REMARK    2  A    between atoms: N_3  and  C_4
REMARK    3  A    between atoms: C_17  and  C_18
REMARK                            x       y       z     vdW  Elec       q    Type
REMARK                         _______ _______ _______ _____ _____    ______ ____
ROOT
ATOM      1  O   UNL     1      -0.999  10.500  19.255  0.00  0.00    +0.000 OA
ATOM      2  C   UNL     1       0.039  10.293  19.873  0.00  0.00    +0.000 C 
ATOM      3  N   UNL     1       0.467  10.945  21.016  0.00  0.00    +0.000 N 
ATOM      4  H   UNL     1       1.434  10.815  21.287  0.00  0.00    +0.000 HD
ENDROOT
BRANCH   3   5
ATOM      5  C   UNL     1      -0.241  11.953  21.701  0.00  0.00    +0.000 A 
ATOM      6  C   UNL     1       0.209  13.267  21.800  0.00  0.00    +0.000 A 
ATOM      7  C   UNL     1      -0.499  14.204  22.559  0.00  0.00    +0.000 A 
ATOM      8  C   UNL     1      -1.657  13.863  23.236  0.00  0.00    +0.000 A 
ATOM      9  N   UNL     1      -2.267  14.793  23.992  0.00  0.00    +0.000 NA
ATOM     10  C   UNL     1      -3.376  14.429  24.665  0.00  0.00    +0.000 A 
ATOM     11  C   UNL     1      -3.932  13.165  24.606  0.00  0.00    +0.000 A 
ATOM     12  C   UNL     1      -3.308  12.210  23.812  0.00  0.00    +0.000 A 
ATOM     13  C   UNL     1      -2.142  12.544  23.112  0.00  0.00    +0.000 A 
ATOM     14  C   UNL     1      -1.443  11.604  22.326  0.00  0.00    +0.000 A 
ENDBRANCH   3   5
BRANCH   2  15
ATOM     15  C   UNL     1       0.995   9.305  19.313  0.00  0.00    +0.000 A 
ATOM     16  C   UNL     1       1.406   8.248  20.128  0.00  0.00    +0.000 A 
ATOM     17  C   UNL     1       2.298   7.291  19.638  0.00  0.00    +0.000 A 
ATOM     18  C   UNL     1       2.797   7.357  18.324  0.00  0.00    +0.000 A 
ATOM     19  C   UNL     1       2.383   8.443  17.529  0.00  0.00    +0.000 A 
ATOM     20  C   UNL     1       1.501   9.415  18.016  0.00  0.00    +0.000 A 
BRANCH  18  21
ATOM     21  C   UNL     1       3.726   6.325  17.807  0.00  0.00    +0.000 A 
ATOM     22  C   UNL     1       4.781   6.662  16.938  0.00  0.00    +0.000 A 
ATOM     23  C   UNL     1       5.647   5.691  16.426  0.00  0.00    +0.000 A 
ATOM     24  C   UNL     1       5.488   4.358  16.787  0.00  0.00    +0.000 A 
ATOM     25  C   UNL     1       4.465   3.997  17.658  0.00  0.00    +0.000 A 
ATOM     26  C   UNL     1       3.590   4.969  18.156  0.00  0.00    +0.000 A 
ENDBRANCH  18  21
ENDBRANCH   2  15
TORSDOF 3
ENDMDL
MODEL 6
REMARK VINA RESULT:      -8.1      2.610      9.999
REMARK  Name = 
REMARK  3 active torsions:
REMARK  status: ('A' for Active; 'I' for Inactive)
REMARK    1  A    between atoms: C_2  and  C_14
REMARK    2  A    between atoms: N_3  and  C_4
REMARK    3  A    between atoms: C_17  and  C_18
REMARK                            x       y       z     vdW  Elec       q    Type
REMARK                         _______ _______ _______ _____ _____    ______ ____
ROOT
ATOM      1  O   UNL     1      -0.512  11.178  18.918  0.00  0.00    +0.000 OA
ATOM      2  C   UNL     1       0.207  10.606  19.729  0.00  0.00    +0.000 C 
ATOM      3  N   UNL     1       0.358  10.920  21.069  0.00  0.00    +0.000 N 
ATOM      4  H   UNL     1       1.138  10.499  21.556  0.00  0.00    +0.000 HD
ENDROOT
BRANCH   3   5
ATOM      5  C   UNL     1      -0.324  11.946  21.754  0.00  0.00    +0.000 A 
ATOM      6  C   UNL     1       0.163  13.246  21.858  0.00  0.00    +0.000 A 
ATOM      7  C   UNL     1      -0.520  14.201  22.617  0.00  0.00    +0.000 A 
ATOM      8  C   UNL     1      -1.690  13.891  23.290  0.00  0.00    +0.000 A 
ATOM      9  N   UNL     1      -2.275  14.837  24.046  0.00  0.00    +0.000 NA
ATOM     10  C   UNL     1      -3.396  14.502  24.715  0.00  0.00    +0.000 A 
ATOM     11  C   UNL     1      -3.987  13.255  24.651  0.00  0.00    +0.000 A 
ATOM     12  C   UNL     1      -3.388  12.285  23.856  0.00  0.00    +0.000 A 
ATOM     13  C   UNL     1      -2.211  12.587  23.161  0.00  0.00    +0.000 A 
ATOM     14  C   UNL     1      -1.536  11.630  22.374  0.00  0.00    +0.000 A 
ENDBRANCH   3   5
BRANCH   2  15
ATOM     15  C   UNL     1       1.081   9.513  19.233  0.00  0.00    +0.000 A 
ATOM     16  C   UNL     1       1.371   8.455  20.098  0.00  0.00    +0.000 A 
ATOM     17  C   UNL     1       2.182   7.403  19.669  0.00  0.00    +0.000 A 
ATOM     18  C   UNL     1       2.718   7.371  18.368  0.00  0.00    +0.000 A 
ATOM     19  C   UNL     1       2.428   8.459  17.523  0.00  0.00    +0.000 A 
ATOM     20  C   UNL     1       1.628   9.526  17.949  0.00  0.00    +0.000 A 
BRANCH  18  21
ATOM     21  C   UNL     1       3.560   6.238  17.916  0.00  0.00    +0.000 A 
ATOM     22  C   UNL     1       3.360   4.937  18.412  0.00  0.00    +0.000 A 
ATOM     23  C   UNL     1       4.165   3.867  18.010  0.00  0.00    +0.000 A 
ATOM     24  C   UNL     1       5.182   4.073  17.086  0.00  0.00    +0.000 A 
ATOM     25  C   UNL     1       5.394   5.345  16.564  0.00  0.00    +0.000 A 
ATOM     26  C   UNL     1       4.595   6.416  16.981  0.00  0.00    +0.000 A 
ENDBRANCH  18  21
ENDBRANCH   2  15
TORSDOF 3
ENDMDL
MODEL 7
REMARK VINA RESULT:      -8.1      1.978      2.988
REMARK  Name = 
REMARK  3 active torsions:
REMARK  status: ('A' for Active; 'I' for Inactive)
REMARK    1  A    between atoms: C_2  and  C_14
REMARK    2  A    between atoms: N_3  and  C_4
REMARK    3  A    between atoms: C_17  and  C_18
REMARK                            x       y       z     vdW  Elec       q    Type
REMARK                         _______ _______ _______ _____ _____    ______ ____
ROOT
ATOM      1  O   UNL     1       1.720   6.480  21.082  0.00  0.00    +0.000 OA
ATOM      2  C   UNL     1       1.580   7.471  20.374  0.00  0.00    +0.000 C 
ATOM      3  N   UNL     1       2.055   7.642  19.085  0.00  0.00    +0.000 N 
ATOM      4  H   UNL     1       2.046   8.583  18.711  0.00  0.00    +0.000 HD
ENDROOT
BRANCH   3   5
ATOM      5  C   UNL     1       2.766   6.681  18.337  0.00  0.00    +0.000 A 
ATOM      6  C   UNL     1       2.307   5.383  18.134  0.00  0.00    +0.000 A 
ATOM      7  C   UNL     1       3.092   4.451  17.449  0.00  0.00    +0.000 A 
ATOM      8  C   UNL     1       4.345   4.780  16.957  0.00  0.00    +0.000 A 
ATOM      9  N   UNL     1       5.077   3.829  16.352  0.00  0.00    +0.000 NA
ATOM     10  C   UNL     1       6.304   4.166  15.909  0.00  0.00    +0.000 A 
ATOM     11  C   UNL     1       6.841   5.434  16.022  0.00  0.00    +0.000 A 
ATOM     12  C   UNL     1       6.076   6.419  16.634  0.00  0.00    +0.000 A 
ATOM     13  C   UNL     1       4.803   6.104  17.125  0.00  0.00    +0.000 A 
ATOM     14  C   UNL     1       4.000   7.052  17.794  0.00  0.00    +0.000 A 
ENDBRANCH   3   5
BRANCH   2  15
ATOM     15  C   UNL     1       0.908   8.656  20.962  0.00  0.00    +0.000 A 
ATOM     16  C   UNL     1       0.671   9.759  20.138  0.00  0.00    +0.000 A 
ATOM     17  C   UNL     1       0.033  10.891  20.650  0.00  0.00    +0.000 A 
ATOM     18  C   UNL     1      -0.392  10.953  21.990  0.00  0.00    +0.000 A 
ATOM     19  C   UNL     1      -0.123   9.836  22.805  0.00  0.00    +0.000 A 
ATOM     20  C   UNL     1       0.528   8.703  22.305  0.00  0.00    +0.000 A 
BRANCH  18  21
ATOM     21  C   UNL     1      -1.087  12.151  22.516  0.00  0.00    +0.000 A 
ATOM     22  C   UNL     1      -2.346  12.050  23.138  0.00  0.00    +0.000 A 
ATOM     23  C   UNL     1      -3.019  13.178  23.615  0.00  0.00    +0.000 A 
ATOM     24  C   UNL     1      -2.439  14.435  23.497  0.00  0.00    +0.000 A 
ATOM     25  C   UNL     1      -1.188  14.565  22.903  0.00  0.00    +0.000 A 
ATOM     26  C   UNL     1      -0.524  13.435  22.412  0.00  0.00    +0.000 A 
ENDBRANCH  18  21
ENDBRANCH   2  15
TORSDOF 3
ENDMDL
MODEL 8
REMARK VINA RESULT:      -8.0      1.174      2.242
REMARK  Name = 
REMARK  3 active torsions:
REMARK  status: ('A' for Active; 'I' for Inactive)
REMARK    1  A    between atoms: C_2  and  C_14
REMARK    2  A    between atoms: N_3  and  C_4
REMARK    3  A    between atoms: C_17  and  C_18
REMARK                            x       y       z     vdW  Elec       q    Type
REMARK                         _______ _______ _______ _____ _____    ______ ____
ROOT
ATOM      1  O   UNL     1       1.267   9.185  18.674  0.00  0.00    +0.000 OA
ATOM      2  C   UNL     1       1.164   8.877  19.856  0.00  0.00    +0.000 C 
ATOM      3  N   UNL     1       1.618   7.713  20.452  0.00  0.00    +0.000 N 
ATOM      4  H   UNL     1       1.275   7.507  21.382  0.00  0.00    +0.000 HD
ENDROOT
BRANCH   3   5
ATOM      5  C   UNL     1       2.316   6.676  19.801  0.00  0.00    +0.000 A 
ATOM      6  C   UNL     1       2.402   5.381  20.307  0.00  0.00    +0.000 A 
ATOM      7  C   UNL     1       3.175   4.415  19.657  0.00  0.00    +0.000 A 
ATOM      8  C   UNL     1       3.881   4.708  18.501  0.00  0.00    +0.000 A 
ATOM      9  N   UNL     1       4.649   3.753  17.948  0.00  0.00    +0.000 NA
ATOM     10  C   UNL     1       5.349   4.071  16.842  0.00  0.00    +0.000 A 
ATOM     11  C   UNL     1       5.306   5.311  16.234  0.00  0.00    +0.000 A 
ATOM     12  C   UNL     1       4.499   6.291  16.799  0.00  0.00    +0.000 A 
ATOM     13  C   UNL     1       3.771   6.006  17.961  0.00  0.00    +0.000 A 
ATOM     14  C   UNL     1       2.971   6.975  18.602  0.00  0.00    +0.000 A 
ENDBRANCH   3   5
BRANCH   2  15
ATOM     15  C   UNL     1       0.407   9.790  20.748  0.00  0.00    +0.000 A 
ATOM     16  C   UNL     1       0.051  11.049  20.258  0.00  0.00    +0.000 A 
ATOM     17  C   UNL     1      -0.669  11.936  21.062  0.00  0.00    +0.000 A 
ATOM     18  C   UNL     1      -1.062  11.590  22.368  0.00  0.00    +0.000 A 
ATOM     19  C   UNL     1      -0.673  10.324  22.846  0.00  0.00    +0.000 A 
ATOM     20  C   UNL     1       0.061   9.434  22.053  0.00  0.00    +0.000 A 
BRANCH  18  21
ATOM     21  C   UNL     1      -1.844  12.530  23.204  0.00  0.00    +0.000 A 
ATOM     22  C   UNL     1      -3.140  12.206  23.647  0.00  0.00    +0.000 A 
ATOM     23  C   UNL     1      -3.895  13.098  24.416  0.00  0.00    +0.000 A 
ATOM     24  C   UNL     1      -3.362  14.330  24.774  0.00  0.00    +0.000 A 
ATOM     25  C   UNL     1      -2.077  14.671  24.365  0.00  0.00    +0.000 A 
ATOM     26  C   UNL     1      -1.331  13.783  23.583  0.00  0.00    +0.000 A 
ENDBRANCH  18  21
ENDBRANCH   2  15
TORSDOF 3
ENDMDL
MODEL 9
REMARK VINA RESULT:      -8.0      2.651      9.970
REMARK  Name = 
REMARK  3 active torsions:
REMARK  status: ('A' for Active; 'I' for Inactive)
REMARK    1  A    between atoms: C_2  and  C_14
REMARK    2  A    between atoms: N_3  and  C_4
REMARK    3  A    between atoms: C_17  and  C_18
REMARK                            x       y       z     vdW  Elec       q    Type
REMARK                         _______ _______ _______ _____ _____    ______ ____
ROOT
ATOM      1  O   UNL     1      -0.879  10.504  19.201  0.00  0.00    +0.000 OA
ATOM      2  C   UNL     1       0.102  10.235  19.885  0.00  0.00    +0.000 C 
ATOM      3  N   UNL     1       0.483  10.849  21.066  0.00  0.00    +0.000 N 
ATOM      4  H   UNL     1       1.420  10.665  21.399  0.00  0.00    +0.000 HD
ENDROOT
BRANCH   3   5
ATOM      5  C   UNL     1      -0.218  11.884  21.716  0.00  0.00    +0.000 A 
ATOM      6  C   UNL     1       0.245  13.196  21.778  0.00  0.00    +0.000 A 
ATOM      7  C   UNL     1      -0.456  14.162  22.505  0.00  0.00    +0.000 A 
ATOM      8  C   UNL     1      -1.621  13.853  23.187  0.00  0.00    +0.000 A 
ATOM      9  N   UNL     1      -2.225  14.812  23.911  0.00  0.00    +0.000 NA
ATOM     10  C   UNL     1      -3.341  14.479  24.590  0.00  0.00    +0.000 A 
ATOM     11  C   UNL     1      -3.909  13.220  24.565  0.00  0.00    +0.000 A 
ATOM     12  C   UNL     1      -3.292  12.236  23.803  0.00  0.00    +0.000 A 
ATOM     13  C   UNL     1      -2.119  12.536  23.099  0.00  0.00    +0.000 A 
ATOM     14  C   UNL     1      -1.426  11.566  22.345  0.00  0.00    +0.000 A 
ENDBRANCH   3   5
BRANCH   2  15
ATOM     15  C   UNL     1       1.042   9.205  19.376  0.00  0.00    +0.000 A 
ATOM     16  C   UNL     1       1.489   9.312  18.057  0.00  0.00    +0.000 A 
ATOM     17  C   UNL     1       2.381   8.369  17.541  0.00  0.00    +0.000 A 
ATOM     18  C   UNL     1       2.858   7.302  18.325  0.00  0.00    +0.000 A 
ATOM     19  C   UNL     1       2.377   7.205  19.645  0.00  0.00    +0.000 A 
ATOM     20  C   UNL     1       1.471   8.137  20.166  0.00  0.00    +0.000 A 
BRANCH  18  21
ATOM     21  C   UNL     1       3.821   6.320  17.775  0.00  0.00    +0.000 A 
ATOM     22  C   UNL     1       3.815   4.977  18.196  0.00  0.00    +0.000 A 
ATOM     23  C   UNL     1       4.736   4.050  17.700  0.00  0.00    +0.000 A 
ATOM     24  C   UNL     1       5.676   4.442  16.754  0.00  0.00    +0.000 A 
ATOM     25  C   UNL     1       5.696   5.759  16.306  0.00  0.00    +0.000 A 
ATOM     26  C   UNL     1       4.782   6.688  16.816  0.00  0.00    +0.000 A 
ENDBRANCH  18  21
ENDBRANCH   2  15
TORSDOF 3
ENDMDL
