MODEL 1
REMARK VINA RESULT:      -8.1      0.000      0.000
REMARK  Name = 
REMARK  7 active torsions:
REMARK  status: ('A' for Active; 'I' for Inactive)
REMARK    1  A    between atoms: C_1  and  C_2
REMARK    2  A    between atoms: C_6  and  C_8
REMARK    3  A    between atoms: C_8  and  O_9
REMARK    4  A    between atoms: O_9  and  C_10
REMARK    5  A    between atoms: C_10  and  C_12
REMARK    6  A    between atoms: C_17  and  C_18
REMARK    7  A    between atoms: C_18  and  C_20
REMARK                            x       y       z     vdW  Elec       q    Type
REMARK                         _______ _______ _______ _____ _____    ______ ____
ROOT
ATOM      1  C   UNL     1       2.286   5.305  19.886  0.00  0.00    +0.000 A 
ATOM      2  C   UNL     1       1.173   4.665  20.475  0.00  0.00    +0.000 A 
ATOM      3  C   UNL     1       1.149   3.283  20.681  0.00  0.00    +0.000 A 
ATOM      4  C   UNL     1       2.246   2.516  20.323  0.00  0.00    +0.000 A 
ATOM      5  C   UNL     1       3.361   3.133  19.757  0.00  0.00    +0.000 A 
ATOM      6  C   UNL     1       3.388   4.522  19.499  0.00  0.00    +0.000 A 
ENDROOT
BRANCH   1   7
ATOM      7  C   UNL     1       2.181   6.788  19.821  0.00  0.00    +0.000 C 
ATOM      8  O   UNL     1       2.316   7.389  18.762  0.00  0.00    +0.000 OA
BRANCH   7   9
ATOM      9  O   UNL     1       2.035   7.373  21.033  0.00  0.00    +0.000 OA
BRANCH   9  10
ATOM     10  C   UNL     1       0.747   7.984  21.228  0.00  0.00    +0.000 C 
BRANCH  10  16
ATOM     11  C   UNL     1       2.560  12.959  18.131  0.00  0.00    +0.000 C 
ATOM     12  C   UNL     1       1.372  12.383  18.902  0.00  0.00    +0.000 C 
ATOM     13  C   UNL     1       1.590  12.540  20.418  0.00  0.00    +0.000 C 
ATOM     14  C   UNL     1       0.493  11.841  21.217  0.00  0.00    +0.000 C 
ATOM     15  N   UNL     1       0.385  10.442  20.810  0.00  0.00    +0.000 N 
ATOM     16  C   UNL     1       0.864   9.453  21.669  0.00  0.00    +0.000 C 
ATOM     17  O   UNL     1       1.331   9.734  22.781  0.00  0.00    +0.000 OA
ATOM     18  C   UNL     1       0.059  10.261  19.397  0.00  0.00    +0.000 C 
ATOM     19  C   UNL     1       1.138  10.908  18.524  0.00  0.00    +0.000 C 
ENDBRANCH  10  16
ENDBRANCH   9  10
ENDBRANCH   7   9
ENDBRANCH   1   7
BRANCH   6  20
ATOM     20  C   UNL     1       4.656   5.091  18.964  0.00  0.00    +0.000 C 
ATOM     21  O   UNL     1       5.525   5.462  19.749  0.00  0.00    +0.000 OA
BRANCH  20  22
ATOM     22  C   UNL     1       4.953   5.093  17.495  0.00  0.00    +0.000 A 
ATOM     23  C   UNL     1       4.907   6.322  16.819  0.00  0.00    +0.000 A 
ATOM     24  C   UNL     1       5.261   6.404  15.471  0.00  0.00    +0.000 A 
ATOM     25  C   UNL     1       5.666   5.261  14.786  0.00  0.00    +0.000 A 
ATOM     26  C   UNL     1       5.691   4.028  15.438  0.00  0.00    +0.000 A 
ATOM     27  C   UNL     1       5.315   3.939  16.783  0.00  0.00    +0.000 A 
ENDBRANCH  20  22
ENDBRANCH   6  20
TORSDOF 6
ENDMDL
MODEL 2
REMARK VINA RESULT:      -7.9      1.957      4.637
REMARK  Name = 
REMARK  7 active torsions:
REMARK  status: ('A' for Active; 'I' for Inactive)
REMARK    1  A    between atoms: C_1  and  C_2
REMARK    2  A    between atoms: C_6  and  C_8
REMARK    3  A    between atoms: C_8  and  O_9
REMARK    4  A    between atoms: O_9  and  C_10
REMARK    5  A    between atoms: C_10  and  C_12
REMARK    6  A    between atoms: C_17  and  C_18
REMARK    7  A    between atoms: C_18  and  C_20
REMARK                            x       y       z     vdW  Elec       q    Type
REMARK                         _______ _______ _______ _____ _____    ______ ____
ROOT
ATOM      1  C   UNL     1       3.381   6.542  17.873  0.00  0.00    +0.000 A 
ATOM      2  C   UNL     1       4.450   7.266  17.302  0.00  0.00    +0.000 A 
ATOM      3  C   UNL     1       5.352   6.665  16.419  0.00  0.00    +0.000 A 
ATOM      4  C   UNL     1       5.189   5.333  16.073  0.00  0.00    +0.000 A 
ATOM      5  C   UNL     1       4.129   4.607  16.614  0.00  0.00    +0.000 A 
ATOM      6  C   UNL     1       3.232   5.183  17.542  0.00  0.00    +0.000 A 
ENDROOT
BRANCH   1   7
ATOM      7  C   UNL     1       2.467   7.356  18.720  0.00  0.00    +0.000 C 
ATOM      8  O   UNL     1       2.271   7.073  19.896  0.00  0.00    +0.000 OA
BRANCH   7   9
ATOM      9  O   UNL     1       1.826   8.333  18.038  0.00  0.00    +0.000 OA
BRANCH   9  10
ATOM     10  C   UNL     1       1.417   9.439  18.862  0.00  0.00    +0.000 C 
BRANCH  10  16
ATOM     11  C   UNL     1      -2.919  12.660  21.770  0.00  0.00    +0.000 C 
ATOM     12  C   UNL     1      -1.886  12.764  20.648  0.00  0.00    +0.000 C 
ATOM     13  C   UNL     1      -2.423  12.110  19.361  0.00  0.00    +0.000 C 
ATOM     14  C   UNL     1      -1.357  12.066  18.269  0.00  0.00    +0.000 C 
ATOM     15  N   UNL     1      -0.150  11.410  18.767  0.00  0.00    +0.000 N 
ATOM     16  C   UNL     1       0.144  10.119  18.328  0.00  0.00    +0.000 C 
ATOM     17  O   UNL     1      -0.567   9.544  17.493  0.00  0.00    +0.000 OA
ATOM     18  C   UNL     1       0.453  12.079  19.918  0.00  0.00    +0.000 C 
ATOM     19  C   UNL     1      -0.547  12.132  21.076  0.00  0.00    +0.000 C 
ENDBRANCH  10  16
ENDBRANCH   9  10
ENDBRANCH   7   9
ENDBRANCH   1   7
BRANCH   6  20
ATOM     20  C   UNL     1       2.091   4.343  17.997  0.00  0.00    +0.000 C 
ATOM     21  O   UNL     1       1.148   4.147  17.234  0.00  0.00    +0.000 OA
BRANCH  20  22
ATOM     22  C   UNL     1       2.127   3.620  19.309  0.00  0.00    +0.000 A 
ATOM     23  C   UNL     1       3.338   3.028  19.698  0.00  0.00    +0.000 A 
ATOM     24  C   UNL     1       3.461   2.418  20.948  0.00  0.00    +0.000 A 
ATOM     25  C   UNL     1       2.376   2.394  21.822  0.00  0.00    +0.000 A 
ATOM     26  C   UNL     1       1.158   2.956  21.438  0.00  0.00    +0.000 A 
ATOM     27  C   UNL     1       1.026   3.547  20.177  0.00  0.00    +0.000 A 
ENDBRANCH  20  22
ENDBRANCH   6  20
TORSDOF 6
ENDMDL
MODEL 3
REMARK VINA RESULT:      -7.9      1.837      2.813
REMARK  Name = 
REMARK  7 active torsions:
REMARK  status: ('A' for Active; 'I' for Inactive)
REMARK    1  A    between atoms: C_1  and  C_2
REMARK    2  A    between atoms: C_6  and  C_8
REMARK    3  A    between atoms: C_8  and  O_9
REMARK    4  A    between atoms: O_9  and  C_10
REMARK    5  A    between atoms: C_10  and  C_12
REMARK    6  A    between atoms: C_17  and  C_18
REMARK    7  A    between atoms: C_18  and  C_20
REMARK                            x       y       z     vdW  Elec       q    Type
REMARK                         _______ _______ _______ _____ _____    ______ ____
ROOT
ATOM      1  C   UNL     1       2.681   4.958  19.614  0.00  0.00    +0.000 A 
ATOM      2  C   UNL     1       1.990   4.612  20.795  0.00  0.00    +0.000 A 
ATOM      3  C   UNL     1       2.211   3.394  21.444  0.00  0.00    +0.000 A 
ATOM      4  C   UNL     1       3.146   2.506  20.935  0.00  0.00    +0.000 A 
ATOM      5  C   UNL     1       3.852   2.838  19.779  0.00  0.00    +0.000 A 
ATOM      6  C   UNL     1       3.611   4.045  19.084  0.00  0.00    +0.000 A 
ENDROOT
BRANCH   1   7
ATOM      7  C   UNL     1       2.389   6.326  19.106  0.00  0.00    +0.000 C 
ATOM      8  O   UNL     1       2.146   6.525  17.922  0.00  0.00    +0.000 OA
BRANCH   7   9
ATOM      9  O   UNL     1       2.527   7.292  20.045  0.00  0.00    +0.000 OA
BRANCH   9  10
ATOM     10  C   UNL     1       1.275   7.784  20.553  0.00  0.00    +0.000 C 
BRANCH  10  16
ATOM     11  C   UNL     1      -2.542  11.878  23.062  0.00  0.00    +0.000 C 
ATOM     12  C   UNL     1      -1.058  11.594  22.832  0.00  0.00    +0.000 C 
ATOM     13  C   UNL     1      -0.651  11.991  21.401  0.00  0.00    +0.000 C 
ATOM     14  C   UNL     1       0.787  11.580  21.094  0.00  0.00    +0.000 C 
ATOM     15  N   UNL     1       0.971  10.154  21.352  0.00  0.00    +0.000 N 
ATOM     16  C   UNL     1       1.084   9.283  20.268  0.00  0.00    +0.000 C 
ATOM     17  O   UNL     1       1.079   9.700  19.102  0.00  0.00    +0.000 OA
ATOM     18  C   UNL     1       0.708   9.765  22.736  0.00  0.00    +0.000 C 
ATOM     19  C   UNL     1      -0.735  10.114  23.112  0.00  0.00    +0.000 C 
ENDBRANCH  10  16
ENDBRANCH   9  10
ENDBRANCH   7   9
ENDBRANCH   1   7
BRANCH   6  20
ATOM     20  C   UNL     1       4.474   4.336  17.906  0.00  0.00    +0.000 C 
ATOM     21  O   UNL     1       4.125   3.942  16.796  0.00  0.00    +0.000 OA
BRANCH  20  22
ATOM     22  C   UNL     1       5.682   5.214  18.020  0.00  0.00    +0.000 A 
ATOM     23  C   UNL     1       5.720   6.381  17.241  0.00  0.00    +0.000 A 
ATOM     24  C   UNL     1       6.776   7.285  17.368  0.00  0.00    +0.000 A 
ATOM     25  C   UNL     1       7.804   7.034  18.275  0.00  0.00    +0.000 A 
ATOM     26  C   UNL     1       7.792   5.866  19.037  0.00  0.00    +0.000 A 
ATOM     27  C   UNL     1       6.746   4.947  18.895  0.00  0.00    +0.000 A 
ENDBRANCH  20  22
ENDBRANCH   6  20
TORSDOF 6
ENDMDL
MODEL 4
REMARK VINA RESULT:      -7.9      2.670      7.858
REMARK  Name = 
REMARK  7 active torsions:
REMARK  status: ('A' for Active; 'I' for Inactive)
REMARK    1  A    between atoms: C_1  and  C_2
REMARK    2  A    between atoms: C_6  and  C_8
REMARK    3  A    between atoms: C_8  and  O_9
REMARK    4  A    between atoms: O_9  and  C_10
REMARK    5  A    between atoms: C_10  and  C_12
REMARK    6  A    between atoms: C_17  and  C_18
REMARK    7  A    between atoms: C_18  and  C_20
REMARK                            x       y       z     vdW  Elec       q    Type
REMARK                         _______ _______ _______ _____ _____    ______ ____
ROOT
ATOM      1  C   UNL     1       0.815   9.818  20.470  0.00  0.00    +0.000 A 
ATOM      2  C   UNL     1       1.075   9.075  21.642  0.00  0.00    +0.000 A 
ATOM      3  C   UNL     1       0.390   9.324  22.834  0.00  0.00    +0.000 A 
ATOM      4  C   UNL     1      -0.585  10.308  22.873  0.00  0.00    +0.000 A 
ATOM      5  C   UNL     1      -0.867  11.042  21.720  0.00  0.00    +0.000 A 
ATOM      6  C   UNL     1      -0.156  10.835  20.517  0.00  0.00    +0.000 A 
ENDROOT
BRANCH   1   7
ATOM      7  C   UNL     1       1.570   9.363  19.271  0.00  0.00    +0.000 C 
ATOM      8  O   UNL     1       1.766  10.113  18.322  0.00  0.00    +0.000 OA
BRANCH   7   9
ATOM      9  O   UNL     1       1.900   8.051  19.306  0.00  0.00    +0.000 OA
BRANCH   9  10
ATOM     10  C   UNL     1       2.368   7.540  18.045  0.00  0.00    +0.000 C 
BRANCH  10  16
ATOM     11  C   UNL     1       5.801   4.175  14.235  0.00  0.00    +0.000 C 
ATOM     12  C   UNL     1       5.758   4.713  15.666  0.00  0.00    +0.000 C 
ATOM     13  C   UNL     1       4.846   3.835  16.542  0.00  0.00    +0.000 C 
ATOM     14  C   UNL     1       4.664   4.432  17.935  0.00  0.00    +0.000 C 
ATOM     15  N   UNL     1       4.188   5.810  17.836  0.00  0.00    +0.000 N 
ATOM     16  C   UNL     1       2.858   6.086  18.156  0.00  0.00    +0.000 C 
ATOM     17  O   UNL     1       2.095   5.201  18.565  0.00  0.00    +0.000 OA
ATOM     18  C   UNL     1       5.094   6.698  17.111  0.00  0.00    +0.000 C 
ATOM     19  C   UNL     1       5.300   6.184  15.683  0.00  0.00    +0.000 C 
ENDBRANCH  10  16
ENDBRANCH   9  10
ENDBRANCH   7   9
ENDBRANCH   1   7
BRANCH   6  20
ATOM     20  C   UNL     1      -0.589  11.617  19.327  0.00  0.00    +0.000 C 
ATOM     21  O   UNL     1       0.062  12.602  18.987  0.00  0.00    +0.000 OA
BRANCH  20  22
ATOM     22  C   UNL     1      -1.717  11.153  18.455  0.00  0.00    +0.000 A 
ATOM     23  C   UNL     1      -2.966  11.771  18.616  0.00  0.00    +0.000 A 
ATOM     24  C   UNL     1      -4.032  11.448  17.774  0.00  0.00    +0.000 A 
ATOM     25  C   UNL     1      -3.860  10.505  16.762  0.00  0.00    +0.000 A 
ATOM     26  C   UNL     1      -2.630   9.865  16.607  0.00  0.00    +0.000 A 
ATOM     27  C   UNL     1      -1.568  10.170  17.465  0.00  0.00    +0.000 A 
ENDBRANCH  20  22
ENDBRANCH   6  20
TORSDOF 6
ENDMDL
MODEL 5
REMARK VINA RESULT:      -7.9      1.373      3.987
REMARK  Name = 
REMARK  7 active torsions:
REMARK  status: ('A' for Active; 'I' for Inactive)
REMARK    1  A    between atoms: C_1  and  C_2
REMARK    2  A    between atoms: C_6  and  C_8
REMARK    3  A    between atoms: C_8  and  O_9
REMARK    4  A    between atoms: O_9  and  C_10
REMARK    5  A    between atoms: C_10  and  C_12
REMARK    6  A    between atoms: C_17  and  C_18
REMARK    7  A    between atoms: C_18  and  C_20
REMARK                            x       y       z     vdW  Elec       q    Type
REMARK                         _______ _______ _______ _____ _____    ______ ____
ROOT
ATOM      1  C   UNL     1       3.433   6.590  17.750  0.00  0.00    +0.000 A 
ATOM      2  C   UNL     1       4.557   7.238  17.192  0.00  0.00    +0.000 A 
ATOM      3  C   UNL     1       5.526   6.533  16.473  0.00  0.00    +0.000 A 
ATOM      4  C   UNL     1       5.379   5.169  16.279  0.00  0.00    +0.000 A 
ATOM      5  C   UNL     1       4.266   4.515  16.808  0.00  0.00    +0.000 A 
ATOM      6  C   UNL     1       3.299   5.202  17.575  0.00  0.00    +0.000 A 
ENDROOT
BRANCH   1   7
ATOM      7  C   UNL     1       2.458   7.503  18.407  0.00  0.00    +0.000 C 
ATOM      8  O   UNL     1       1.795   8.300  17.754  0.00  0.00    +0.000 OA
BRANCH   7   9
ATOM      9  O   UNL     1       2.473   7.428  19.758  0.00  0.00    +0.000 OA
BRANCH   9  10
ATOM     10  C   UNL     1       1.174   7.580  20.358  0.00  0.00    +0.000 C 
BRANCH  10  16
ATOM     11  C   UNL     1       0.740  13.478  18.733  0.00  0.00    +0.000 C 
ATOM     12  C   UNL     1       0.016  12.387  19.520  0.00  0.00    +0.000 C 
ATOM     13  C   UNL     1       0.649  12.221  20.914  0.00  0.00    +0.000 C 
ATOM     14  C   UNL     1       0.045  11.037  21.666  0.00  0.00    +0.000 C 
ATOM     15  N   UNL     1       0.143   9.823  20.860  0.00  0.00    +0.000 N 
ATOM     16  C   UNL     1       1.079   8.852  21.217  0.00  0.00    +0.000 C 
ATOM     17  O   UNL     1       1.788   8.979  22.224  0.00  0.00    +0.000 OA
ATOM     18  C   UNL     1      -0.553   9.907  19.577  0.00  0.00    +0.000 C 
ATOM     19  C   UNL     1       0.024  11.056  18.744  0.00  0.00    +0.000 C 
ENDBRANCH  10  16
ENDBRANCH   9  10
ENDBRANCH   7   9
ENDBRANCH   1   7
BRANCH   6  20
ATOM     20  C   UNL     1       2.112   4.425  18.026  0.00  0.00    +0.000 C 
ATOM     21  O   UNL     1       1.156   4.292  17.264  0.00  0.00    +0.000 OA
BRANCH  20  22
ATOM     22  C   UNL     1       2.110   3.686  19.330  0.00  0.00    +0.000 A 
ATOM     23  C   UNL     1       3.299   3.058  19.728  0.00  0.00    +0.000 A 
ATOM     24  C   UNL     1       3.389   2.431  20.973  0.00  0.00    +0.000 A 
ATOM     25  C   UNL     1       2.291   2.427  21.832  0.00  0.00    +0.000 A 
ATOM     26  C   UNL     1       1.094   3.025  21.438  0.00  0.00    +0.000 A 
ATOM     27  C   UNL     1       0.996   3.634  20.182  0.00  0.00    +0.000 A 
ENDBRANCH  20  22
ENDBRANCH   6  20
TORSDOF 6
ENDMDL
MODEL 6
REMARK VINA RESULT:      -7.9      1.793      4.492
REMARK  Name = 
REMARK  7 active torsions:
REMARK  status: ('A' for Active; 'I' for Inactive)
REMARK    1  A    between atoms: C_1  and  C_2
REMARK    2  A    between atoms: C_6  and  C_8
REMARK    3  A    between atoms: C_8  and  O_9
REMARK    4  A    between atoms: O_9  and  C_10
REMARK    5  A    between atoms: C_10  and  C_12
REMARK    6  A    between atoms: C_17  and  C_18
REMARK    7  A    between atoms: C_18  and  C_20
REMARK                            x       y       z     vdW  Elec       q    Type
REMARK                         _______ _______ _______ _____ _____    ______ ____
ROOT
ATOM      1  C   UNL     1       3.735   6.199  17.574  0.00  0.00    +0.000 A 
ATOM      2  C   UNL     1       4.889   6.686  16.922  0.00  0.00    +0.000 A 
ATOM      3  C   UNL     1       5.660   5.869  16.092  0.00  0.00    +0.000 A 
ATOM      4  C   UNL     1       5.280   4.554  15.879  0.00  0.00    +0.000 A 
ATOM      5  C   UNL     1       4.134   4.060  16.501  0.00  0.00    +0.000 A 
ATOM      6  C   UNL     1       3.365   4.857  17.378  0.00  0.00    +0.000 A 
ENDROOT
BRANCH   1   7
ATOM      7  C   UNL     1       2.984   7.225  18.348  0.00  0.00    +0.000 C 
ATOM      8  O   UNL     1       2.299   6.915  19.315  0.00  0.00    +0.000 OA
BRANCH   7   9
ATOM      9  O   UNL     1       3.058   8.467  17.814  0.00  0.00    +0.000 OA
BRANCH   9  10
ATOM     10  C   UNL     1       1.786   9.131  17.721  0.00  0.00    +0.000 C 
BRANCH  10  16
ATOM     11  C   UNL     1      -2.738  12.630  19.937  0.00  0.00    +0.000 C 
ATOM     12  C   UNL     1      -1.422  11.963  20.336  0.00  0.00    +0.000 C 
ATOM     13  C   UNL     1      -0.226  12.806  19.859  0.00  0.00    +0.000 C 
ATOM     14  C   UNL     1       1.099  12.091  20.110  0.00  0.00    +0.000 C 
ATOM     15  N   UNL     1       1.077  10.761  19.507  0.00  0.00    +0.000 N 
ATOM     16  C   UNL     1       1.819  10.536  18.347  0.00  0.00    +0.000 C 
ATOM     17  O   UNL     1       2.527  11.422  17.852  0.00  0.00    +0.000 OA
ATOM     18  C   UNL     1       0.024   9.892  20.029  0.00  0.00    +0.000 C 
ATOM     19  C   UNL     1      -1.348  10.527  19.781  0.00  0.00    +0.000 C 
ENDBRANCH  10  16
ENDBRANCH   9  10
ENDBRANCH   7   9
ENDBRANCH   1   7
BRANCH   6  20
ATOM     20  C   UNL     1       2.118   4.256  17.927  0.00  0.00    +0.000 C 
ATOM     21  O   UNL     1       1.109   4.223  17.226  0.00  0.00    +0.000 OA
BRANCH  20  22
ATOM     22  C   UNL     1       2.101   3.569  19.259  0.00  0.00    +0.000 A 
ATOM     23  C   UNL     1       3.295   2.985  19.709  0.00  0.00    +0.000 A 
ATOM     24  C   UNL     1       3.368   2.409  20.979  0.00  0.00    +0.000 A 
ATOM     25  C   UNL     1       2.251   2.412  21.812  0.00  0.00    +0.000 A 
ATOM     26  C   UNL     1       1.050   2.966  21.366  0.00  0.00    +0.000 A 
ATOM     27  C   UNL     1       0.968   3.523  20.085  0.00  0.00    +0.000 A 
ENDBRANCH  20  22
ENDBRANCH   6  20
TORSDOF 6
ENDMDL
MODEL 7
REMARK VINA RESULT:      -7.9      1.337      2.490
REMARK  Name = 
REMARK  7 active torsions:
REMARK  status: ('A' for Active; 'I' for Inactive)
REMARK    1  A    between atoms: C_1  and  C_2
REMARK    2  A    between atoms: C_6  and  C_8
REMARK    3  A    between atoms: C_8  and  O_9
REMARK    4  A    between atoms: O_9  and  C_10
REMARK    5  A    between atoms: C_10  and  C_12
REMARK    6  A    between atoms: C_17  and  C_18
REMARK    7  A    between atoms: C_18  and  C_20
REMARK                            x       y       z     vdW  Elec       q    Type
REMARK                         _______ _______ _______ _____ _____    ______ ____
ROOT
ATOM      1  C   UNL     1       2.575   5.278  19.721  0.00  0.00    +0.000 A 
ATOM      2  C   UNL     1       1.471   4.688  20.374  0.00  0.00    +0.000 A 
ATOM      3  C   UNL     1       1.527   3.385  20.875  0.00  0.00    +0.000 A 
ATOM      4  C   UNL     1       2.697   2.653  20.752  0.00  0.00    +0.000 A 
ATOM      5  C   UNL     1       3.804   3.225  20.126  0.00  0.00    +0.000 A 
ATOM      6  C   UNL     1       3.754   4.525  19.574  0.00  0.00    +0.000 A 
ENDROOT
BRANCH   1   7
ATOM      7  C   UNL     1       2.373   6.700  19.330  0.00  0.00    +0.000 C 
ATOM      8  O   UNL     1       2.421   7.048  18.156  0.00  0.00    +0.000 OA
BRANCH   7   9
ATOM      9  O   UNL     1       2.247   7.538  20.385  0.00  0.00    +0.000 OA
BRANCH   9  10
ATOM     10  C   UNL     1       0.900   7.994  20.601  0.00  0.00    +0.000 C 
BRANCH  10  16
ATOM     11  C   UNL     1      -2.802  12.160  23.164  0.00  0.00    +0.000 C 
ATOM     12  C   UNL     1      -1.326  11.838  22.928  0.00  0.00    +0.000 C 
ATOM     13  C   UNL     1      -0.911  12.241  21.502  0.00  0.00    +0.000 C 
ATOM     14  C   UNL     1       0.516  11.795  21.187  0.00  0.00    +0.000 C 
ATOM     15  N   UNL     1       0.661  10.362  21.428  0.00  0.00    +0.000 N 
ATOM     16  C   UNL     1       0.749   9.501  20.334  0.00  0.00    +0.000 C 
ATOM     17  O   UNL     1       0.754   9.932  19.173  0.00  0.00    +0.000 OA
ATOM     18  C   UNL     1       0.390   9.963  22.808  0.00  0.00    +0.000 C 
ATOM     19  C   UNL     1      -1.043  10.346  23.190  0.00  0.00    +0.000 C 
ENDBRANCH  10  16
ENDBRANCH   9  10
ENDBRANCH   7   9
ENDBRANCH   1   7
BRANCH   6  20
ATOM     20  C   UNL     1       5.014   5.069  18.997  0.00  0.00    +0.000 C 
ATOM     21  O   UNL     1       5.921   5.411  19.753  0.00  0.00    +0.000 OA
BRANCH  20  22
ATOM     22  C   UNL     1       5.256   5.080  17.518  0.00  0.00    +0.000 A 
ATOM     23  C   UNL     1       5.523   3.855  16.889  0.00  0.00    +0.000 A 
ATOM     24  C   UNL     1       5.668   3.786  15.502  0.00  0.00    +0.000 A 
ATOM     25  C   UNL     1       5.547   4.940  14.730  0.00  0.00    +0.000 A 
ATOM     26  C   UNL     1       5.308   6.169  15.346  0.00  0.00    +0.000 A 
ATOM     27  C   UNL     1       5.185   6.244  16.737  0.00  0.00    +0.000 A 
ENDBRANCH  20  22
ENDBRANCH   6  20
TORSDOF 6
ENDMDL
MODEL 8
REMARK VINA RESULT:      -7.8      2.622      7.874
REMARK  Name = 
REMARK  7 active torsions:
REMARK  status: ('A' for Active; 'I' for Inactive)
REMARK    1  A    between atoms: C_1  and  C_2
REMARK    2  A    between atoms: C_6  and  C_8
REMARK    3  A    between atoms: C_8  and  O_9
REMARK    4  A    between atoms: O_9  and  C_10
REMARK    5  A    between atoms: C_10  and  C_12
REMARK    6  A    between atoms: C_17  and  C_18
REMARK    7  A    between atoms: C_18  and  C_20
REMARK                            x       y       z     vdW  Elec       q    Type
REMARK                         _______ _______ _______ _____ _____    ______ ____
ROOT
ATOM      1  C   UNL     1       0.956   9.478  20.253  0.00  0.00    +0.000 A 
ATOM      2  C   UNL     1       1.164   8.746  21.443  0.00  0.00    +0.000 A 
ATOM      3  C   UNL     1       0.537   9.100  22.640  0.00  0.00    +0.000 A 
ATOM      4  C   UNL     1      -0.329  10.182  22.667  0.00  0.00    +0.000 A 
ATOM      5  C   UNL     1      -0.560  10.906  21.498  0.00  0.00    +0.000 A 
ATOM      6  C   UNL     1       0.097  10.591  20.288  0.00  0.00    +0.000 A 
ENDROOT
BRANCH   1   7
ATOM      7  C   UNL     1       1.631   8.911  19.054  0.00  0.00    +0.000 C 
ATOM      8  O   UNL     1       1.619   9.501  17.981  0.00  0.00    +0.000 OA
BRANCH   7   9
ATOM      9  O   UNL     1       2.140   7.673  19.255  0.00  0.00    +0.000 OA
BRANCH   9  10
ATOM     10  C   UNL     1       2.766   7.111  18.088  0.00  0.00    +0.000 C 
BRANCH  10  16
ATOM     11  C   UNL     1       1.569   2.409  21.842  0.00  0.00    +0.000 C 
ATOM     12  C   UNL     1       1.881   2.740  20.382  0.00  0.00    +0.000 C 
ATOM     13  C   UNL     1       3.395   2.950  20.191  0.00  0.00    +0.000 C 
ATOM     14  C   UNL     1       3.719   3.429  18.778  0.00  0.00    +0.000 C 
ATOM     15  N   UNL     1       2.944   4.625  18.459  0.00  0.00    +0.000 N 
ATOM     16  C   UNL     1       3.595   5.859  18.423  0.00  0.00    +0.000 C 
ATOM     17  O   UNL     1       4.815   5.950  18.607  0.00  0.00    +0.000 OA
ATOM     18  C   UNL     1       1.497   4.424  18.514  0.00  0.00    +0.000 C 
ATOM     19  C   UNL     1       1.085   3.975  19.919  0.00  0.00    +0.000 C 
ENDBRANCH  10  16
ENDBRANCH   9  10
ENDBRANCH   7   9
ENDBRANCH   1   7
BRANCH   6  20
ATOM     20  C   UNL     1      -0.281  11.379  19.082  0.00  0.00    +0.000 C 
ATOM     21  O   UNL     1       0.530  12.168  18.603  0.00  0.00    +0.000 OA
BRANCH  20  22
ATOM     22  C   UNL     1      -1.570  11.131  18.359  0.00  0.00    +0.000 A 
ATOM     23  C   UNL     1      -1.596  10.109  17.399  0.00  0.00    +0.000 A 
ATOM     24  C   UNL     1      -2.789   9.770  16.756  0.00  0.00    +0.000 A 
ATOM     25  C   UNL     1      -3.965  10.448  17.066  0.00  0.00    +0.000 A 
ATOM     26  C   UNL     1      -3.948  11.484  18.001  0.00  0.00    +0.000 A 
ATOM     27  C   UNL     1      -2.750  11.841  18.629  0.00  0.00    +0.000 A 
ENDBRANCH  20  22
ENDBRANCH   6  20
TORSDOF 6
ENDMDL
MODEL 9
REMARK VINA RESULT:      -7.8      1.374      1.619
REMARK  Name = 
REMARK  7 active torsions:
REMARK  status: ('A' for Active; 'I' for Inactive)
REMARK    1  A    between atoms: C_1  and  C_2
REMARK    2  A    between atoms: C_6  and  C_8
REMARK    3  A    between atoms: C_8  and  O_9
REMARK    4  A    between atoms: O_9  and  C_10
REMARK    5  A    between atoms: C_10  and  C_12
REMARK    6  A    between atoms: C_17  and  C_18
REMARK    7  A    between atoms: C_18  and  C_20
REMARK                            x       y       z     vdW  Elec       q    Type
REMARK                         _______ _______ _______ _____ _____    ______ ____
ROOT
ATOM      1  C   UNL     1       2.605   5.157  19.679  0.00  0.00    +0.000 A 
ATOM      2  C   UNL     1       1.392   4.641  20.184  0.00  0.00    +0.000 A 
ATOM      3  C   UNL     1       1.255   3.292  20.523  0.00  0.00    +0.000 A 
ATOM      4  C   UNL     1       2.336   2.437  20.384  0.00  0.00    +0.000 A 
ATOM      5  C   UNL     1       3.548   2.932  19.903  0.00  0.00    +0.000 A 
ATOM      6  C   UNL     1       3.694   4.283  19.514  0.00  0.00    +0.000 A 
ENDROOT
BRANCH   1   7
ATOM      7  C   UNL     1       2.603   6.628  19.454  0.00  0.00    +0.000 C 
ATOM      8  O   UNL     1       3.098   7.117  18.446  0.00  0.00    +0.000 OA
BRANCH   7   9
ATOM      9  O   UNL     1       2.111   7.334  20.499  0.00  0.00    +0.000 OA
BRANCH   9  10
ATOM     10  C   UNL     1       1.540   8.600  20.122  0.00  0.00    +0.000 C 
BRANCH  10  16
ATOM     11  C   UNL     1      -0.835  14.240  20.534  0.00  0.00    +0.000 C 
ATOM     12  C   UNL     1      -1.165  12.770  20.789  0.00  0.00    +0.000 C 
ATOM     13  C   UNL     1      -0.553  12.307  22.124  0.00  0.00    +0.000 C 
ATOM     14  C   UNL     1      -0.738  10.805  22.333  0.00  0.00    +0.000 C 
ATOM     15  N   UNL     1      -0.209  10.067  21.189  0.00  0.00    +0.000 N 
ATOM     16  C   UNL     1       0.992   9.371  21.335  0.00  0.00    +0.000 C 
ATOM     17  O   UNL     1       1.587   9.330  22.420  0.00  0.00    +0.000 OA
ATOM     18  C   UNL     1      -0.855  10.398  19.921  0.00  0.00    +0.000 C 
ATOM     19  C   UNL     1      -0.682  11.890  19.620  0.00  0.00    +0.000 C 
ENDBRANCH  10  16
ENDBRANCH   9  10
ENDBRANCH   7   9
ENDBRANCH   1   7
BRANCH   6  20
ATOM     20  C   UNL     1       5.050   4.725  19.088  0.00  0.00    +0.000 C 
ATOM     21  O   UNL     1       5.873   5.044  19.943  0.00  0.00    +0.000 OA
BRANCH  20  22
ATOM     22  C   UNL     1       5.480   4.659  17.654  0.00  0.00    +0.000 A 
ATOM     23  C   UNL     1       6.852   4.754  17.376  0.00  0.00    +0.000 A 
ATOM     24  C   UNL     1       7.323   4.609  16.070  0.00  0.00    +0.000 A 
ATOM     25  C   UNL     1       6.429   4.368  15.029  0.00  0.00    +0.000 A 
ATOM     26  C   UNL     1       5.060   4.297  15.287  0.00  0.00    +0.000 A 
ATOM     27  C   UNL     1       4.583   4.465  16.592  0.00  0.00    +0.000 A 
ENDBRANCH  20  22
ENDBRANCH   6  20
TORSDOF 6
ENDMDL
