MODEL 1
REMARK VINA RESULT:      -7.9      0.000      0.000
REMARK  Name = 
REMARK  4 active torsions:
REMARK  status: ('A' for Active; 'I' for Inactive)
REMARK    1  A    between atoms: C_1  and  C_2
REMARK    2  A    between atoms: C_10  and  C_11
REMARK    3  A    between atoms: C_15  and  C_16
REMARK    4  A    between atoms: N_18  and  C_19
REMARK                            x       y       z     vdW  Elec       q    Type
REMARK                         _______ _______ _______ _____ _____    ______ ____
ROOT
ATOM      1  C   UNL     1       1.461   9.231  18.231  0.00  0.00    +0.000 C 
ATOM      2  O   UNL     1       2.223   9.599  17.310  0.00  0.00    +0.000 OA
ATOM      3  N   UNL     1       0.518  10.229  18.766  0.00  0.00    +0.000 N 
ATOM      4  C   UNL     1       1.166  11.619  18.619  0.00  0.00    +0.000 C 
ATOM      5  C   UNL     1       0.890  12.463  19.854  0.00  0.00    +0.000 C 
ATOM      6  C   UNL     1       1.908  13.448  20.375  0.00  0.00    +0.000 C 
ATOM      7  C   UNL     1      -0.433  13.169  19.665  0.00  0.00    +0.000 C 
ATOM      8  N   UNL     1      -1.375  12.226  20.197  0.00  0.00    +0.000 N 
ATOM      9  C   UNL     1      -1.664  12.127  21.605  0.00  0.00    +0.000 C 
ATOM     10  C   UNL     1      -1.863  11.345  19.234  0.00  0.00    +0.000 A 
ATOM     11  C   UNL     1      -3.192  11.748  18.882  0.00  0.00    +0.000 A 
ATOM     12  C   UNL     1      -3.682  11.526  17.631  0.00  0.00    +0.000 A 
ATOM     13  C   UNL     1      -2.890  10.752  16.779  0.00  0.00    +0.000 A 
ATOM     14  C   UNL     1      -1.604  10.184  17.168  0.00  0.00    +0.000 A 
ATOM     15  C   UNL     1      -1.013  10.475  18.412  0.00  0.00    +0.000 A 
ENDROOT
BRANCH   1  25
ATOM     16  C   UNL     1       1.257   8.077  21.429  0.00  0.00    +0.000 C 
ATOM     17  C   UNL     1       1.748   7.225  20.316  0.00  0.00    +0.000 A 
ATOM     18  N   UNL     1       2.028   5.986  20.668  0.00  0.00    +0.000 NA
ATOM     19  C   UNL     1       2.753   5.245  19.843  0.00  0.00    +0.000 A 
ATOM     20  C   UNL     1       3.242   3.944  19.926  0.00  0.00    +0.000 A 
ATOM     21  C   UNL     1       4.099   3.791  18.813  0.00  0.00    +0.000 A 
ATOM     22  N   UNL     1       4.112   4.886  18.047  0.00  0.00    +0.000 NA
ATOM     23  N   UNL     1       3.254   5.778  18.659  0.00  0.00    +0.000 N 
ATOM     24  C   UNL     1       2.860   7.066  18.243  0.00  0.00    +0.000 A 
ATOM     25  C   UNL     1       2.004   7.878  18.949  0.00  0.00    +0.000 A 
ENDBRANCH   1  25
TORSDOF 1
ENDMDL
MODEL 2
REMARK VINA RESULT:      -6.8      8.456     10.719
REMARK  Name = 
REMARK  4 active torsions:
REMARK  status: ('A' for Active; 'I' for Inactive)
REMARK    1  A    between atoms: C_1  and  C_2
REMARK    2  A    between atoms: C_10  and  C_11
REMARK    3  A    between atoms: C_15  and  C_16
REMARK    4  A    between atoms: N_18  and  C_19
REMARK                            x       y       z     vdW  Elec       q    Type
REMARK                         _______ _______ _______ _____ _____    ______ ____
ROOT
ATOM      1  C   UNL     1       8.956  13.971  22.384  0.00  0.00    +0.000 C 
ATOM      2  O   UNL     1       9.624  14.906  22.877  0.00  0.00    +0.000 OA
ATOM      3  N   UNL     1       9.036  13.781  20.925  0.00  0.00    +0.000 N 
ATOM      4  C   UNL     1       9.291  15.158  20.282  0.00  0.00    +0.000 C 
ATOM      5  C   UNL     1       8.471  15.306  19.009  0.00  0.00    +0.000 C 
ATOM      6  C   UNL     1       7.894  16.638  18.598  0.00  0.00    +0.000 C 
ATOM      7  C   UNL     1       9.266  14.731  17.859  0.00  0.00    +0.000 C 
ATOM      8  N   UNL     1       8.872  13.352  17.857  0.00  0.00    +0.000 N 
ATOM      9  C   UNL     1       7.667  12.889  17.216  0.00  0.00    +0.000 C 
ATOM     10  C   UNL     1       9.695  12.552  18.647  0.00  0.00    +0.000 A 
ATOM     11  C   UNL     1      10.565  11.808  17.787  0.00  0.00    +0.000 A 
ATOM     12  C   UNL     1      11.813  11.447  18.195  0.00  0.00    +0.000 A 
ATOM     13  C   UNL     1      12.126  11.695  19.534  0.00  0.00    +0.000 A 
ATOM     14  C   UNL     1      11.197  12.300  20.481  0.00  0.00    +0.000 A 
ATOM     15  C   UNL     1       9.939  12.783  20.076  0.00  0.00    +0.000 A 
ENDROOT
BRANCH   1  25
ATOM     16  C   UNL     1       5.556  14.076  22.211  0.00  0.00    +0.000 C 
ATOM     17  C   UNL     1       6.267  13.305  23.263  0.00  0.00    +0.000 A 
ATOM     18  N   UNL     1       5.469  12.627  24.065  0.00  0.00    +0.000 NA
ATOM     19  C   UNL     1       5.965  12.165  25.204  0.00  0.00    +0.000 A 
ATOM     20  C   UNL     1       5.399  11.460  26.262  0.00  0.00    +0.000 A 
ATOM     21  C   UNL     1       6.394  11.423  27.266  0.00  0.00    +0.000 A 
ATOM     22  N   UNL     1       7.525  12.006  26.860  0.00  0.00    +0.000 NA
ATOM     23  N   UNL     1       7.279  12.438  25.572  0.00  0.00    +0.000 N 
ATOM     24  C   UNL     1       8.150  13.070  24.661  0.00  0.00    +0.000 A 
ATOM     25  C   UNL     1       7.787  13.473  23.398  0.00  0.00    +0.000 A 
ENDBRANCH   1  25
TORSDOF 1
ENDMDL
MODEL 3
REMARK VINA RESULT:      -6.8      4.066      8.792
REMARK  Name = 
REMARK  4 active torsions:
REMARK  status: ('A' for Active; 'I' for Inactive)
REMARK    1  A    between atoms: C_1  and  C_2
REMARK    2  A    between atoms: C_10  and  C_11
REMARK    3  A    between atoms: C_15  and  C_16
REMARK    4  A    between atoms: N_18  and  C_19
REMARK                            x       y       z     vdW  Elec       q    Type
REMARK                         _______ _______ _______ _____ _____    ______ ____
ROOT
ATOM      1  C   UNL     1      -1.663  13.446  23.348  0.00  0.00    +0.000 C 
ATOM      2  O   UNL     1      -0.840  14.034  24.083  0.00  0.00    +0.000 OA
ATOM      3  N   UNL     1      -1.141  12.807  22.127  0.00  0.00    +0.000 N 
ATOM      4  C   UNL     1       0.089  13.610  21.661  0.00  0.00    +0.000 C 
ATOM      5  C   UNL     1       0.088  13.744  20.145  0.00  0.00    +0.000 C 
ATOM      6  C   UNL     1       0.604  14.989  19.467  0.00  0.00    +0.000 C 
ATOM      7  C   UNL     1       0.778  12.534  19.558  0.00  0.00    +0.000 C 
ATOM      8  N   UNL     1      -0.299  11.600  19.396  0.00  0.00    +0.000 N 
ATOM      9  C   UNL     1      -1.176  11.617  18.253  0.00  0.00    +0.000 C 
ATOM     10  C   UNL     1      -0.482  10.785  20.510  0.00  0.00    +0.000 A 
ATOM     11  C   UNL     1       0.051   9.488  20.217  0.00  0.00    +0.000 A 
ATOM     12  C   UNL     1       0.576   8.707  21.201  0.00  0.00    +0.000 A 
ATOM     13  C   UNL     1       0.417   9.165  22.511  0.00  0.00    +0.000 A 
ATOM     14  C   UNL     1      -0.272  10.404  22.855  0.00  0.00    +0.000 A 
ATOM     15  C   UNL     1      -0.736  11.290  21.865  0.00  0.00    +0.000 A 
ENDROOT
BRANCH   1  25
ATOM     16  C   UNL     1      -3.008  16.455  24.205  0.00  0.00    +0.000 C 
ATOM     17  C   UNL     1      -3.855  15.293  23.830  0.00  0.00    +0.000 A 
ATOM     18  N   UNL     1      -5.147  15.556  23.799  0.00  0.00    +0.000 NA
ATOM     19  C   UNL     1      -5.996  14.539  23.782  0.00  0.00    +0.000 A 
ATOM     20  C   UNL     1      -7.386  14.470  23.783  0.00  0.00    +0.000 A 
ATOM     21  C   UNL     1      -7.696  13.101  23.950  0.00  0.00    +0.000 A 
ATOM     22  N   UNL     1      -6.594  12.347  23.992  0.00  0.00    +0.000 NA
ATOM     23  N   UNL     1      -5.538  13.226  23.854  0.00  0.00    +0.000 N 
ATOM     24  C   UNL     1      -4.157  12.956  23.780  0.00  0.00    +0.000 A 
ATOM     25  C   UNL     1      -3.186  13.922  23.658  0.00  0.00    +0.000 A 
ENDBRANCH   1  25
TORSDOF 1
ENDMDL
MODEL 4
REMARK VINA RESULT:      -6.7      2.508      4.227
REMARK  Name = 
REMARK  4 active torsions:
REMARK  status: ('A' for Active; 'I' for Inactive)
REMARK    1  A    between atoms: C_1  and  C_2
REMARK    2  A    between atoms: C_10  and  C_11
REMARK    3  A    between atoms: C_15  and  C_16
REMARK    4  A    between atoms: N_18  and  C_19
REMARK                            x       y       z     vdW  Elec       q    Type
REMARK                         _______ _______ _______ _____ _____    ______ ____
ROOT
ATOM      1  C   UNL     1      -0.965  11.162  20.218  0.00  0.00    +0.000 C 
ATOM      2  O   UNL     1      -1.829  11.009  19.327  0.00  0.00    +0.000 OA
ATOM      3  N   UNL     1      -0.907  12.475  20.883  0.00  0.00    +0.000 N 
ATOM      4  C   UNL     1      -1.372  13.540  19.871  0.00  0.00    +0.000 C 
ATOM      5  C   UNL     1      -0.508  14.788  19.984  0.00  0.00    +0.000 C 
ATOM      6  C   UNL     1      -0.165  15.617  18.771  0.00  0.00    +0.000 C 
ATOM      7  C   UNL     1      -1.099  15.683  21.049  0.00  0.00    +0.000 C 
ATOM      8  N   UNL     1      -0.453  15.226  22.245  0.00  0.00    +0.000 N 
ATOM      9  C   UNL     1       0.859  15.673  22.639  0.00  0.00    +0.000 C 
ATOM     10  C   UNL     1      -1.163  14.217  22.893  0.00  0.00    +0.000 A 
ATOM     11  C   UNL     1      -1.816  14.783  24.035  0.00  0.00    +0.000 A 
ATOM     12  C   UNL     1      -2.998  14.281  24.485  0.00  0.00    +0.000 A 
ATOM     13  C   UNL     1      -3.445  13.102  23.883  0.00  0.00    +0.000 A 
ATOM     14  C   UNL     1      -2.714  12.407  22.830  0.00  0.00    +0.000 A 
ATOM     15  C   UNL     1      -1.544  12.947  22.263  0.00  0.00    +0.000 A 
ENDROOT
BRANCH   1  25
ATOM     16  C   UNL     1       0.582   9.220  22.550  0.00  0.00    +0.000 C 
ATOM     17  C   UNL     1       0.768   8.998  21.093  0.00  0.00    +0.000 A 
ATOM     18  N   UNL     1       1.521   7.957  20.799  0.00  0.00    +0.000 NA
ATOM     19  C   UNL     1       1.998   7.852  19.567  0.00  0.00    +0.000 A 
ATOM     20  C   UNL     1       2.830   6.920  18.953  0.00  0.00    +0.000 A 
ATOM     21  C   UNL     1       3.125   7.458  17.680  0.00  0.00    +0.000 A 
ATOM     22  N   UNL     1       2.485   8.612  17.472  0.00  0.00    +0.000 NA
ATOM     23  N   UNL     1       1.757   8.846  18.622  0.00  0.00    +0.000 N 
ATOM     24  C   UNL     1       0.866   9.897  18.916  0.00  0.00    +0.000 A 
ATOM     25  C   UNL     1       0.204  10.038  20.113  0.00  0.00    +0.000 A 
ENDBRANCH   1  25
TORSDOF 1
ENDMDL
MODEL 5
REMARK VINA RESULT:      -6.6      2.541      7.763
REMARK  Name = 
REMARK  4 active torsions:
REMARK  status: ('A' for Active; 'I' for Inactive)
REMARK    1  A    between atoms: C_1  and  C_2
REMARK    2  A    between atoms: C_10  and  C_11
REMARK    3  A    between atoms: C_15  and  C_16
REMARK    4  A    between atoms: N_18  and  C_19
REMARK                            x       y       z     vdW  Elec       q    Type
REMARK                         _______ _______ _______ _____ _____    ______ ____
ROOT
ATOM      1  C   UNL     1       2.175   7.860  18.225  0.00  0.00    +0.000 C 
ATOM      2  O   UNL     1       1.587   7.988  17.128  0.00  0.00    +0.000 OA
ATOM      3  N   UNL     1       2.897   6.598  18.459  0.00  0.00    +0.000 N 
ATOM      4  C   UNL     1       2.173   5.486  17.676  0.00  0.00    +0.000 C 
ATOM      5  C   UNL     1       2.116   4.209  18.503  0.00  0.00    +0.000 C 
ATOM      6  C   UNL     1       0.931   3.279  18.430  0.00  0.00    +0.000 C 
ATOM      7  C   UNL     1       3.383   3.423  18.256  0.00  0.00    +0.000 C 
ATOM      8  N   UNL     1       4.276   3.935  19.255  0.00  0.00    +0.000 N 
ATOM      9  C   UNL     1       4.279   3.455  20.614  0.00  0.00    +0.000 C 
ATOM     10  C   UNL     1       5.025   5.021  18.807  0.00  0.00    +0.000 A 
ATOM     11  C   UNL     1       6.357   4.571  18.532  0.00  0.00    +0.000 A 
ATOM     12  C   UNL     1       7.109   5.160  17.562  0.00  0.00    +0.000 A 
ATOM     13  C   UNL     1       6.579   6.312  16.976  0.00  0.00    +0.000 A 
ATOM     14  C   UNL     1       5.296   6.893  17.355  0.00  0.00    +0.000 A 
ATOM     15  C   UNL     1       4.441   6.258  18.276  0.00  0.00    +0.000 A 
ENDROOT
BRANCH   1  25
ATOM     16  C   UNL     1       2.028  11.263  18.289  0.00  0.00    +0.000 C 
ATOM     17  C   UNL     1       1.336  10.426  19.303  0.00  0.00    +0.000 A 
ATOM     18  N   UNL     1       0.621  11.114  20.171  0.00  0.00    +0.000 NA
ATOM     19  C   UNL     1       0.224  10.508  21.281  0.00  0.00    +0.000 A 
ATOM     20  C   UNL     1      -0.495  10.946  22.389  0.00  0.00    +0.000 A 
ATOM     21  C   UNL     1      -0.435   9.885  23.321  0.00  0.00    +0.000 A 
ATOM     22  N   UNL     1       0.219   8.830  22.826  0.00  0.00    +0.000 NA
ATOM     23  N   UNL     1       0.600   9.196  21.550  0.00  0.00    +0.000 N 
ATOM     24  C   UNL     1       1.272   8.439  20.569  0.00  0.00    +0.000 A 
ATOM     25  C   UNL     1       1.618   8.917  19.327  0.00  0.00    +0.000 A 
ENDBRANCH   1  25
TORSDOF 1
ENDMDL
MODEL 6
REMARK VINA RESULT:      -6.6      2.769      4.286
REMARK  Name = 
REMARK  4 active torsions:
REMARK  status: ('A' for Active; 'I' for Inactive)
REMARK    1  A    between atoms: C_1  and  C_2
REMARK    2  A    between atoms: C_10  and  C_11
REMARK    3  A    between atoms: C_15  and  C_16
REMARK    4  A    between atoms: N_18  and  C_19
REMARK                            x       y       z     vdW  Elec       q    Type
REMARK                         _______ _______ _______ _____ _____    ______ ____
ROOT
ATOM      1  C   UNL     1      -1.373  12.291  19.622  0.00  0.00    +0.000 C 
ATOM      2  O   UNL     1      -1.006  13.141  18.781  0.00  0.00    +0.000 OA
ATOM      3  N   UNL     1      -2.410  12.701  20.586  0.00  0.00    +0.000 N 
ATOM      4  C   UNL     1      -2.263  14.216  20.824  0.00  0.00    +0.000 C 
ATOM      5  C   UNL     1      -2.467  14.541  22.296  0.00  0.00    +0.000 C 
ATOM      6  C   UNL     1      -1.695  15.649  22.970  0.00  0.00    +0.000 C 
ATOM      7  C   UNL     1      -3.945  14.745  22.540  0.00  0.00    +0.000 C 
ATOM      8  N   UNL     1      -4.402  13.422  22.852  0.00  0.00    +0.000 N 
ATOM      9  C   UNL     1      -4.294  12.853  24.171  0.00  0.00    +0.000 C 
ATOM     10  C   UNL     1      -4.825  12.715  21.728  0.00  0.00    +0.000 A 
ATOM     11  C   UNL     1      -6.257  12.691  21.719  0.00  0.00    +0.000 A 
ATOM     12  C   UNL     1      -6.949  12.650  20.547  0.00  0.00    +0.000 A 
ATOM     13  C   UNL     1      -6.196  12.471  19.384  0.00  0.00    +0.000 A 
ATOM     14  C   UNL     1      -4.746  12.323  19.377  0.00  0.00    +0.000 A 
ATOM     15  C   UNL     1      -3.983  12.464  20.552  0.00  0.00    +0.000 A 
ENDROOT
BRANCH   1  25
ATOM     16  C   UNL     1      -0.232  10.519  22.298  0.00  0.00    +0.000 C 
ATOM     17  C   UNL     1       0.084  10.125  20.900  0.00  0.00    +0.000 A 
ATOM     18  N   UNL     1       0.779   9.009  20.800  0.00  0.00    +0.000 NA
ATOM     19  C   UNL     1       1.370   8.737  19.645  0.00  0.00    +0.000 A 
ATOM     20  C   UNL     1       2.184   7.689  19.226  0.00  0.00    +0.000 A 
ATOM     21  C   UNL     1       2.649   8.062  17.944  0.00  0.00    +0.000 A 
ATOM     22  N   UNL     1       2.127   9.227  17.550  0.00  0.00    +0.000 NA
ATOM     23  N   UNL     1       1.307   9.634  18.583  0.00  0.00    +0.000 N 
ATOM     24  C   UNL     1       0.476  10.770  18.667  0.00  0.00    +0.000 A 
ATOM     25  C   UNL     1      -0.292  11.086  19.763  0.00  0.00    +0.000 A 
ENDBRANCH   1  25
TORSDOF 1
ENDMDL
MODEL 7
REMARK VINA RESULT:      -6.6      1.146      1.346
REMARK  Name = 
REMARK  4 active torsions:
REMARK  status: ('A' for Active; 'I' for Inactive)
REMARK    1  A    between atoms: C_1  and  C_2
REMARK    2  A    between atoms: C_10  and  C_11
REMARK    3  A    between atoms: C_15  and  C_16
REMARK    4  A    between atoms: N_18  and  C_19
REMARK                            x       y       z     vdW  Elec       q    Type
REMARK                         _______ _______ _______ _____ _____    ______ ____
ROOT
ATOM      1  C   UNL     1       0.753  10.325  18.735  0.00  0.00    +0.000 C 
ATOM      2  O   UNL     1       1.522  10.890  17.927  0.00  0.00    +0.000 OA
ATOM      3  N   UNL     1      -0.336  11.136  19.307  0.00  0.00    +0.000 N 
ATOM      4  C   UNL     1       0.147  12.597  19.376  0.00  0.00    +0.000 C 
ATOM      5  C   UNL     1      -0.308  13.243  20.676  0.00  0.00    +0.000 C 
ATOM      6  C   UNL     1       0.547  14.263  21.387  0.00  0.00    +0.000 C 
ATOM      7  C   UNL     1      -1.693  13.813  20.467  0.00  0.00    +0.000 C 
ATOM      8  N   UNL     1      -2.546  12.712  20.809  0.00  0.00    +0.000 N 
ATOM      9  C   UNL     1      -2.911  12.405  22.169  0.00  0.00    +0.000 C 
ATOM     10  C   UNL     1      -2.860  11.909  19.715  0.00  0.00    +0.000 A 
ATOM     11  C   UNL     1      -4.203  12.201  19.308  0.00  0.00    +0.000 A 
ATOM     12  C   UNL     1      -4.580  12.085  18.006  0.00  0.00    +0.000 A 
ATOM     13  C   UNL     1      -3.647  11.518  17.134  0.00  0.00    +0.000 A 
ATOM     14  C   UNL     1      -2.330  11.054  17.553  0.00  0.00    +0.000 A 
ATOM     15  C   UNL     1      -1.860  11.251  18.865  0.00  0.00    +0.000 A 
ENDROOT
BRANCH   1  25
ATOM     16  C   UNL     1       0.913   9.026  21.879  0.00  0.00    +0.000 C 
ATOM     17  C   UNL     1       1.315   8.242  20.683  0.00  0.00    +0.000 A 
ATOM     18  N   UNL     1       1.668   7.000  20.947  0.00  0.00    +0.000 NA
ATOM     19  C   UNL     1       2.327   6.321  20.019  0.00  0.00    +0.000 A 
ATOM     20  C   UNL     1       2.862   5.036  19.990  0.00  0.00    +0.000 A 
ATOM     21  C   UNL     1       3.606   4.964  18.791  0.00  0.00    +0.000 A 
ATOM     22  N   UNL     1       3.506   6.091  18.079  0.00  0.00    +0.000 NA
ATOM     23  N   UNL     1       2.687   6.923  18.817  0.00  0.00    +0.000 N 
ATOM     24  C   UNL     1       2.213   8.213  18.504  0.00  0.00    +0.000 A 
ATOM     25  C   UNL     1       1.409   8.962  19.330  0.00  0.00    +0.000 A 
ENDBRANCH   1  25
TORSDOF 1
ENDMDL
MODEL 8
REMARK VINA RESULT:      -6.5      1.997      7.789
REMARK  Name = 
REMARK  4 active torsions:
REMARK  status: ('A' for Active; 'I' for Inactive)
REMARK    1  A    between atoms: C_1  and  C_2
REMARK    2  A    between atoms: C_10  and  C_11
REMARK    3  A    between atoms: C_15  and  C_16
REMARK    4  A    between atoms: N_18  and  C_19
REMARK                            x       y       z     vdW  Elec       q    Type
REMARK                         _______ _______ _______ _____ _____    ______ ____
ROOT
ATOM      1  C   UNL     1       1.966   6.962  20.210  0.00  0.00    +0.000 C 
ATOM      2  O   UNL     1       2.195   6.984  21.439  0.00  0.00    +0.000 OA
ATOM      3  N   UNL     1       2.595   5.883  19.427  0.00  0.00    +0.000 N 
ATOM      4  C   UNL     1       3.922   5.509  20.116  0.00  0.00    +0.000 C 
ATOM      5  C   UNL     1       5.004   5.259  19.076  0.00  0.00    +0.000 C 
ATOM      6  C   UNL     1       6.443   5.629  19.337  0.00  0.00    +0.000 C 
ATOM      7  C   UNL     1       4.931   3.811  18.649  0.00  0.00    +0.000 C 
ATOM      8  N   UNL     1       4.002   3.847  17.557  0.00  0.00    +0.000 N 
ATOM      9  C   UNL     1       4.395   4.191  16.214  0.00  0.00    +0.000 C 
ATOM     10  C   UNL     1       2.683   3.652  17.960  0.00  0.00    +0.000 A 
ATOM     11  C   UNL     1       2.296   2.316  17.619  0.00  0.00    +0.000 A 
ATOM     12  C   UNL     1       1.384   1.638  18.368  0.00  0.00    +0.000 A 
ATOM     13  C   UNL     1       0.737   2.364  19.371  0.00  0.00    +0.000 A 
ATOM     14  C   UNL     1       0.989   3.776  19.634  0.00  0.00    +0.000 A 
ATOM     15  C   UNL     1       1.997   4.486  18.954  0.00  0.00    +0.000 A 
ENDROOT
BRANCH   1  25
ATOM     16  C   UNL     1       2.644   8.808  17.429  0.00  0.00    +0.000 C 
ATOM     17  C   UNL     1       1.525   9.148  18.346  0.00  0.00    +0.000 A 
ATOM     18  N   UNL     1       0.796  10.172  17.949  0.00  0.00    +0.000 NA
ATOM     19  C   UNL     1      -0.016  10.745  18.826  0.00  0.00    +0.000 A 
ATOM     20  C   UNL     1      -0.873  11.838  18.744  0.00  0.00    +0.000 A 
ATOM     21  C   UNL     1      -1.323  12.065  20.065  0.00  0.00    +0.000 A 
ATOM     22  N   UNL     1      -0.839  11.153  20.914  0.00  0.00    +0.000 NA
ATOM     23  N   UNL     1      -0.057  10.312  20.148  0.00  0.00    +0.000 N 
ATOM     24  C   UNL     1       0.645   9.152  20.533  0.00  0.00    +0.000 A 
ATOM     25  C   UNL     1       1.413   8.395  19.679  0.00  0.00    +0.000 A 
ENDBRANCH   1  25
TORSDOF 1
ENDMDL
MODEL 9
REMARK VINA RESULT:      -6.5      4.230      8.336
REMARK  Name = 
REMARK  4 active torsions:
REMARK  status: ('A' for Active; 'I' for Inactive)
REMARK    1  A    between atoms: C_1  and  C_2
REMARK    2  A    between atoms: C_10  and  C_11
REMARK    3  A    between atoms: C_15  and  C_16
REMARK    4  A    between atoms: N_18  and  C_19
REMARK                            x       y       z     vdW  Elec       q    Type
REMARK                         _______ _______ _______ _____ _____    ______ ____
ROOT
ATOM      1  C   UNL     1      -3.178  12.879  22.089  0.00  0.00    +0.000 C 
ATOM      2  O   UNL     1      -3.207  13.655  23.069  0.00  0.00    +0.000 OA
ATOM      3  N   UNL     1      -1.853  12.494  21.574  0.00  0.00    +0.000 N 
ATOM      4  C   UNL     1      -0.883  13.661  21.842  0.00  0.00    +0.000 C 
ATOM      5  C   UNL     1       0.043  13.862  20.652  0.00  0.00    +0.000 C 
ATOM      6  C   UNL     1       0.512  15.238  20.247  0.00  0.00    +0.000 C 
ATOM      7  C   UNL     1       1.241  12.956  20.819  0.00  0.00    +0.000 C 
ATOM      8  N   UNL     1       0.816  11.744  20.181  0.00  0.00    +0.000 N 
ATOM      9  C   UNL     1       0.903  11.544  18.757  0.00  0.00    +0.000 C 
ATOM     10  C   UNL     1       0.196  10.858  21.060  0.00  0.00    +0.000 A 
ATOM     11  C   UNL     1       1.117   9.806  21.371  0.00  0.00    +0.000 A 
ATOM     12  C   UNL     1       1.082   9.179  22.579  0.00  0.00    +0.000 A 
ATOM     13  C   UNL     1       0.012   9.500  23.417  0.00  0.00    +0.000 A 
ATOM     14  C   UNL     1      -1.039  10.445  23.057  0.00  0.00    +0.000 A 
ATOM     15  C   UNL     1      -0.985  11.193  21.866  0.00  0.00    +0.000 A 
ENDROOT
BRANCH   1  25
ATOM     16  C   UNL     1      -6.401  12.838  23.191  0.00  0.00    +0.000 C 
ATOM     17  C   UNL     1      -6.062  13.043  21.759  0.00  0.00    +0.000 A 
ATOM     18  N   UNL     1      -7.105  13.268  20.986  0.00  0.00    +0.000 NA
ATOM     19  C   UNL     1      -6.952  13.156  19.674  0.00  0.00    +0.000 A 
ATOM     20  C   UNL     1      -7.836  13.289  18.607  0.00  0.00    +0.000 A 
ATOM     21  C   UNL     1      -7.116  12.867  17.466  0.00  0.00    +0.000 A 
ATOM     22  N   UNL     1      -5.855  12.545  17.770  0.00  0.00    +0.000 NA
ATOM     23  N   UNL     1      -5.736  12.755  19.129  0.00  0.00    +0.000 N 
ATOM     24  C   UNL     1      -4.603  12.621  19.956  0.00  0.00    +0.000 A 
ATOM     25  C   UNL     1      -4.606  12.843  21.313  0.00  0.00    +0.000 A 
ENDBRANCH   1  25
TORSDOF 1
ENDMDL
