MODEL 1
REMARK VINA RESULT:      -8.3      0.000      0.000
REMARK  Name = 
REMARK  8 active torsions:
REMARK  status: ('A' for Active; 'I' for Inactive)
REMARK    1  A    between atoms: C_1  and  C_2
REMARK    2  A    between atoms: C_2  and  C_3
REMARK    3  A    between atoms: C_3  and  C_4
REMARK    4  A    between atoms: C_3  and  N_5
REMARK    5  A    between atoms: C_6  and  C_8
REMARK    6  A    between atoms: C_13  and  N_14
REMARK    7  A    between atoms: C_15  and  C_17
REMARK    8  A    between atoms: C_17  and  N_18
REMARK                            x       y       z     vdW  Elec       q    Type
REMARK                         _______ _______ _______ _____ _____    ______ ____
ROOT
ATOM      1  N   UNL     1       2.579   6.606  19.914  0.00  0.00    +0.000 N 
ATOM      2  C   UNL     1       2.164   7.355  18.819  0.00  0.00    +0.000 C 
ATOM      3  O   UNL     1       1.643   6.886  17.810  0.00  0.00    +0.000 OA
ATOM      4  H   UNL     1       2.699   7.083  20.812  0.00  0.00    +0.000 HD
ENDROOT
BRANCH   1  10
ATOM      5  C   UNL     1       3.479   4.354  19.530  0.00  0.00    +0.000 A 
ATOM      6  C   UNL     1       3.332   2.957  19.595  0.00  0.00    +0.000 A 
ATOM      7  C   UNL     1       2.186   2.395  20.154  0.00  0.00    +0.000 A 
ATOM      8  C   UNL     1       1.177   3.222  20.639  0.00  0.00    +0.000 A 
ATOM      9  C   UNL     1       1.310   4.613  20.568  0.00  0.00    +0.000 A 
ATOM     10  C   UNL     1       2.455   5.197  20.011  0.00  0.00    +0.000 A 
BRANCH   5  12
ATOM     11  N   UNL     1       4.913   4.840  17.625  0.00  0.00    +0.000 N 
ATOM     12  C   UNL     1       4.747   4.930  18.994  0.00  0.00    +0.000 C 
ATOM     13  O   UNL     1       5.572   5.410  19.763  0.00  0.00    +0.000 OA
ATOM     14  H   UNL     1       4.326   4.184  17.123  0.00  0.00    +0.000 HD
BRANCH  11  15
ATOM     15  C   UNL     1       6.043   5.388  16.885  0.00  0.00    +0.000 C 
ATOM     16  C   UNL     1       7.336   4.647  17.220  0.00  0.00    +0.000 C 
BRANCH  15  18
ATOM     17  C   UNL     1       7.581   7.314  17.577  0.00  0.00    +0.000 C 
ATOM     18  C   UNL     1       6.206   6.908  17.060  0.00  0.00    +0.000 C 
ENDBRANCH  15  18
ENDBRANCH  11  15
ENDBRANCH   5  12
ENDBRANCH   1  10
BRANCH   2  19
ATOM     19  C   UNL     1       2.294   8.853  19.003  0.00  0.00    +0.000 C 
BRANCH  19  20
ATOM     20  N   UNL     1       1.253   9.582  19.722  0.00  0.00    +0.000 N 
ATOM     21  C   UNL     1       0.888   9.280  21.049  0.00  0.00    +0.000 C 
ATOM     22  O   UNL     1       1.404   8.423  21.742  0.00  0.00    +0.000 OA
ATOM     23  C   UNL     1      -0.175  10.190  21.488  0.00  0.00    +0.000 A 
ATOM     24  C   UNL     1      -0.647  10.310  22.786  0.00  0.00    +0.000 A 
ATOM     25  C   UNL     1      -1.568  11.323  23.058  0.00  0.00    +0.000 A 
ATOM     26  C   UNL     1      -2.011  12.179  22.031  0.00  0.00    +0.000 A 
ATOM     27  C   UNL     1      -1.543  12.034  20.717  0.00  0.00    +0.000 A 
ATOM     28  C   UNL     1      -0.623  11.028  20.477  0.00  0.00    +0.000 A 
ATOM     29  S   UNL     1       0.218  10.674  18.979  0.00  0.00    +0.000 S 
ATOM     30  O   UNL     1       0.957  11.854  18.597  0.00  0.00    +0.000 OA
ATOM     31  O   UNL     1      -0.709   9.975  18.124  0.00  0.00    +0.000 OA
ENDBRANCH  19  20
ENDBRANCH   2  19
TORSDOF 6
ENDMDL
MODEL 2
REMARK VINA RESULT:      -8.2      0.879      1.326
REMARK  Name = 
REMARK  8 active torsions:
REMARK  status: ('A' for Active; 'I' for Inactive)
REMARK    1  A    between atoms: C_1  and  C_2
REMARK    2  A    between atoms: C_2  and  C_3
REMARK    3  A    between atoms: C_3  and  C_4
REMARK    4  A    between atoms: C_3  and  N_5
REMARK    5  A    between atoms: C_6  and  C_8
REMARK    6  A    between atoms: C_13  and  N_14
REMARK    7  A    between atoms: C_15  and  C_17
REMARK    8  A    between atoms: C_17  and  N_18
REMARK                            x       y       z     vdW  Elec       q    Type
REMARK                         _______ _______ _______ _____ _____    ______ ____
ROOT
ATOM      1  N   UNL     1       2.719   6.190  19.792  0.00  0.00    +0.000 N 
ATOM      2  C   UNL     1       2.253   6.913  18.701  0.00  0.00    +0.000 C 
ATOM      3  O   UNL     1       1.639   6.428  17.754  0.00  0.00    +0.000 OA
ATOM      4  H   UNL     1       2.925   6.695  20.658  0.00  0.00    +0.000 HD
ENDROOT
BRANCH   1  10
ATOM      5  C   UNL     1       3.486   3.888  19.418  0.00  0.00    +0.000 A 
ATOM      6  C   UNL     1       3.289   2.502  19.552  0.00  0.00    +0.000 A 
ATOM      7  C   UNL     1       2.178   2.012  20.235  0.00  0.00    +0.000 A 
ATOM      8  C   UNL     1       1.253   2.900  20.776  0.00  0.00    +0.000 A 
ATOM      9  C   UNL     1       1.436   4.280  20.638  0.00  0.00    +0.000 A 
ATOM     10  C   UNL     1       2.546   4.792  19.956  0.00  0.00    +0.000 A 
BRANCH   5  12
ATOM     11  N   UNL     1       4.647   4.507  17.371  0.00  0.00    +0.000 N 
ATOM     12  C   UNL     1       4.722   4.387  18.746  0.00  0.00    +0.000 C 
ATOM     13  O   UNL     1       5.723   4.628  19.411  0.00  0.00    +0.000 OA
ATOM     14  H   UNL     1       3.896   4.020  16.897  0.00  0.00    +0.000 HD
BRANCH  11  15
ATOM     15  C   UNL     1       5.712   5.030  16.523  0.00  0.00    +0.000 C 
ATOM     16  C   UNL     1       5.246   6.257  15.743  0.00  0.00    +0.000 C 
BRANCH  15  18
ATOM     17  C   UNL     1       5.911   4.138  14.132  0.00  0.00    +0.000 C 
ATOM     18  C   UNL     1       6.323   3.970  15.589  0.00  0.00    +0.000 C 
ENDBRANCH  15  18
ENDBRANCH  11  15
ENDBRANCH   5  12
ENDBRANCH   1  10
BRANCH   2  19
ATOM     19  C   UNL     1       2.456   8.411  18.812  0.00  0.00    +0.000 C 
BRANCH  19  20
ATOM     20  N   UNL     1       1.472   9.217  19.529  0.00  0.00    +0.000 N 
ATOM     21  C   UNL     1       1.042   8.913  20.837  0.00  0.00    +0.000 C 
ATOM     22  O   UNL     1       1.452   7.988  21.514  0.00  0.00    +0.000 OA
ATOM     23  C   UNL     1       0.063   9.910  21.279  0.00  0.00    +0.000 A 
ATOM     24  C   UNL     1      -0.430  10.037  22.569  0.00  0.00    +0.000 A 
ATOM     25  C   UNL     1      -1.254  11.128  22.851  0.00  0.00    +0.000 A 
ATOM     26  C   UNL     1      -1.582  12.055  21.843  0.00  0.00    +0.000 A 
ATOM     27  C   UNL     1      -1.094  11.905  20.537  0.00  0.00    +0.000 A 
ATOM     28  C   UNL     1      -0.272  10.820  20.285  0.00  0.00    +0.000 A 
ATOM     29  S   UNL     1       0.571  10.429  18.798  0.00  0.00    +0.000 S 
ATOM     30  O   UNL     1       1.433  11.541  18.474  0.00  0.00    +0.000 OA
ATOM     31  O   UNL     1      -0.397   9.853  17.898  0.00  0.00    +0.000 OA
ENDBRANCH  19  20
ENDBRANCH   2  19
TORSDOF 6
ENDMDL
MODEL 3
REMARK VINA RESULT:      -8.0      1.811      4.254
REMARK  Name = 
REMARK  8 active torsions:
REMARK  status: ('A' for Active; 'I' for Inactive)
REMARK    1  A    between atoms: C_1  and  C_2
REMARK    2  A    between atoms: C_2  and  C_3
REMARK    3  A    between atoms: C_3  and  C_4
REMARK    4  A    between atoms: C_3  and  N_5
REMARK    5  A    between atoms: C_6  and  C_8
REMARK    6  A    between atoms: C_13  and  N_14
REMARK    7  A    between atoms: C_15  and  C_17
REMARK    8  A    between atoms: C_17  and  N_18
REMARK                            x       y       z     vdW  Elec       q    Type
REMARK                         _______ _______ _______ _____ _____    ______ ____
ROOT
ATOM      1  N   UNL     1       3.956   6.486  18.479  0.00  0.00    +0.000 N 
ATOM      2  C   UNL     1       2.595   6.468  18.759  0.00  0.00    +0.000 C 
ATOM      3  O   UNL     1       1.746   5.917  18.062  0.00  0.00    +0.000 OA
ATOM      4  H   UNL     1       4.607   6.677  19.245  0.00  0.00    +0.000 HD
ENDROOT
BRANCH   1  10
ATOM      5  C   UNL     1       4.806   4.482  17.345  0.00  0.00    +0.000 A 
ATOM      6  C   UNL     1       5.426   3.881  16.234  0.00  0.00    +0.000 A 
ATOM      7  C   UNL     1       5.767   4.646  15.120  0.00  0.00    +0.000 A 
ATOM      8  C   UNL     1       5.503   6.013  15.114  0.00  0.00    +0.000 A 
ATOM      9  C   UNL     1       4.897   6.619  16.219  0.00  0.00    +0.000 A 
ATOM     10  C   UNL     1       4.546   5.868  17.347  0.00  0.00    +0.000 A 
BRANCH   5  12
ATOM     11  N   UNL     1       3.092   3.145  18.438  0.00  0.00    +0.000 N 
ATOM     12  C   UNL     1       4.385   3.628  18.494  0.00  0.00    +0.000 C 
ATOM     13  O   UNL     1       5.163   3.425  19.421  0.00  0.00    +0.000 OA
ATOM     14  H   UNL     1       2.450   3.594  17.795  0.00  0.00    +0.000 HD
BRANCH  11  15
ATOM     15  C   UNL     1       2.495   2.246  19.419  0.00  0.00    +0.000 C 
ATOM     16  C   UNL     1       1.030   1.964  19.093  0.00  0.00    +0.000 C 
BRANCH  15  18
ATOM     17  C   UNL     1       1.342   2.919  21.603  0.00  0.00    +0.000 C 
ATOM     18  C   UNL     1       2.665   2.729  20.870  0.00  0.00    +0.000 C 
ENDBRANCH  15  18
ENDBRANCH  11  15
ENDBRANCH   5  12
ENDBRANCH   1  10
BRANCH   2  19
ATOM     19  C   UNL     1       2.223   7.096  20.088  0.00  0.00    +0.000 C 
BRANCH  19  20
ATOM     20  N   UNL     1       1.446   8.332  20.105  0.00  0.00    +0.000 N 
ATOM     21  C   UNL     1       1.504   9.285  19.069  0.00  0.00    +0.000 C 
ATOM     22  O   UNL     1       2.166   9.178  18.052  0.00  0.00    +0.000 OA
ATOM     23  C   UNL     1       0.608  10.404  19.375  0.00  0.00    +0.000 A 
ATOM     24  C   UNL     1       0.268  11.426  18.502  0.00  0.00    +0.000 A 
ATOM     25  C   UNL     1      -0.707  12.338  18.909  0.00  0.00    +0.000 A 
ATOM     26  C   UNL     1      -1.306  12.225  20.178  0.00  0.00    +0.000 A 
ATOM     27  C   UNL     1      -0.939  11.199  21.061  0.00  0.00    +0.000 A 
ATOM     28  C   UNL     1       0.023  10.302  20.630  0.00  0.00    +0.000 A 
ATOM     29  S   UNL     1       0.604   8.868  21.454  0.00  0.00    +0.000 S 
ATOM     30  O   UNL     1      -0.529   8.003  21.689  0.00  0.00    +0.000 OA
ATOM     31  O   UNL     1       1.526   9.305  22.473  0.00  0.00    +0.000 OA
ENDBRANCH  19  20
ENDBRANCH   2  19
TORSDOF 6
ENDMDL
MODEL 4
REMARK VINA RESULT:      -7.9      1.428      1.932
REMARK  Name = 
REMARK  8 active torsions:
REMARK  status: ('A' for Active; 'I' for Inactive)
REMARK    1  A    between atoms: C_1  and  C_2
REMARK    2  A    between atoms: C_2  and  C_3
REMARK    3  A    between atoms: C_3  and  C_4
REMARK    4  A    between atoms: C_3  and  N_5
REMARK    5  A    between atoms: C_6  and  C_8
REMARK    6  A    between atoms: C_13  and  N_14
REMARK    7  A    between atoms: C_15  and  C_17
REMARK    8  A    between atoms: C_17  and  N_18
REMARK                            x       y       z     vdW  Elec       q    Type
REMARK                         _______ _______ _______ _____ _____    ______ ____
ROOT
ATOM      1  N   UNL     1       2.219   6.976  20.439  0.00  0.00    +0.000 N 
ATOM      2  C   UNL     1       1.176   7.727  20.967  0.00  0.00    +0.000 C 
ATOM      3  O   UNL     1       0.035   7.307  21.146  0.00  0.00    +0.000 OA
ATOM      4  H   UNL     1       3.179   7.284  20.619  0.00  0.00    +0.000 HD
ENDROOT
BRANCH   1  10
ATOM      5  C   UNL     1       2.669   5.188  18.819  0.00  0.00    +0.000 A 
ATOM      6  C   UNL     1       2.519   3.851  18.407  0.00  0.00    +0.000 A 
ATOM      7  C   UNL     1       1.830   2.941  19.207  0.00  0.00    +0.000 A 
ATOM      8  C   UNL     1       1.279   3.363  20.414  0.00  0.00    +0.000 A 
ATOM      9  C   UNL     1       1.414   4.693  20.825  0.00  0.00    +0.000 A 
ATOM     10  C   UNL     1       2.104   5.621  20.036  0.00  0.00    +0.000 A 
BRANCH   5  12
ATOM     11  N   UNL     1       4.700   5.643  17.557  0.00  0.00    +0.000 N 
ATOM     12  C   UNL     1       3.474   6.123  17.979  0.00  0.00    +0.000 C 
ATOM     13  O   UNL     1       3.046   7.246  17.735  0.00  0.00    +0.000 OA
ATOM     14  H   UNL     1       5.080   4.837  18.039  0.00  0.00    +0.000 HD
BRANCH  11  15
ATOM     15  C   UNL     1       5.618   6.362  16.682  0.00  0.00    +0.000 C 
ATOM     16  C   UNL     1       5.545   5.835  15.250  0.00  0.00    +0.000 C 
BRANCH  15  18
ATOM     17  C   UNL     1       7.377   5.241  18.166  0.00  0.00    +0.000 C 
ATOM     18  C   UNL     1       7.066   6.379  17.201  0.00  0.00    +0.000 C 
ENDBRANCH  15  18
ENDBRANCH  11  15
ENDBRANCH   5  12
ENDBRANCH   1  10
BRANCH   2  19
ATOM     19  C   UNL     1       1.577   9.112  21.433  0.00  0.00    +0.000 C 
BRANCH  19  20
ATOM     20  N   UNL     1       0.580  10.178  21.456  0.00  0.00    +0.000 N 
ATOM     21  C   UNL     1      -0.181  10.488  22.601  0.00  0.00    +0.000 C 
ATOM     22  O   UNL     1      -0.077   9.940  23.683  0.00  0.00    +0.000 OA
ATOM     23  C   UNL     1      -1.083  11.606  22.307  0.00  0.00    +0.000 A 
ATOM     24  C   UNL     1      -1.839  12.297  23.241  0.00  0.00    +0.000 A 
ATOM     25  C   UNL     1      -2.540  13.425  22.811  0.00  0.00    +0.000 A 
ATOM     26  C   UNL     1      -2.489  13.828  21.463  0.00  0.00    +0.000 A 
ATOM     27  C   UNL     1      -1.737  13.108  20.523  0.00  0.00    +0.000 A 
ATOM     28  C   UNL     1      -1.044  11.999  20.976  0.00  0.00    +0.000 A 
ATOM     29  S   UNL     1       0.057  10.974  20.074  0.00  0.00    +0.000 S 
ATOM     30  O   UNL     1       1.122  11.808  19.567  0.00  0.00    +0.000 OA
ATOM     31  O   UNL     1      -0.748  10.091  19.267  0.00  0.00    +0.000 OA
ENDBRANCH  19  20
ENDBRANCH   2  19
TORSDOF 6
ENDMDL
MODEL 5
REMARK VINA RESULT:      -7.9      1.012      1.019
REMARK  Name = 
REMARK  8 active torsions:
REMARK  status: ('A' for Active; 'I' for Inactive)
REMARK    1  A    between atoms: C_1  and  C_2
REMARK    2  A    between atoms: C_2  and  C_3
REMARK    3  A    between atoms: C_3  and  C_4
REMARK    4  A    between atoms: C_3  and  N_5
REMARK    5  A    between atoms: C_6  and  C_8
REMARK    6  A    between atoms: C_13  and  N_14
REMARK    7  A    between atoms: C_15  and  C_17
REMARK    8  A    between atoms: C_17  and  N_18
REMARK                            x       y       z     vdW  Elec       q    Type
REMARK                         _______ _______ _______ _____ _____    ______ ____
ROOT
ATOM      1  N   UNL     1       2.641   6.306  19.331  0.00  0.00    +0.000 N 
ATOM      2  C   UNL     1       2.077   7.171  18.401  0.00  0.00    +0.000 C 
ATOM      3  O   UNL     1       1.367   6.819  17.462  0.00  0.00    +0.000 OA
ATOM      4  H   UNL     1       2.937   6.688  20.233  0.00  0.00    +0.000 HD
ENDROOT
BRANCH   1  10
ATOM      5  C   UNL     1       3.335   4.080  18.562  0.00  0.00    +0.000 A 
ATOM      6  C   UNL     1       3.137   2.688  18.523  0.00  0.00    +0.000 A 
ATOM      7  C   UNL     1       2.100   2.105  19.249  0.00  0.00    +0.000 A 
ATOM      8  C   UNL     1       1.250   2.907  20.005  0.00  0.00    +0.000 A 
ATOM      9  C   UNL     1       1.434   4.293  20.040  0.00  0.00    +0.000 A 
ATOM     10  C   UNL     1       2.470   4.898  19.318  0.00  0.00    +0.000 A 
BRANCH   5  12
ATOM     11  N   UNL     1       5.557   5.071  18.625  0.00  0.00    +0.000 N 
ATOM     12  C   UNL     1       4.497   4.671  17.834  0.00  0.00    +0.000 C 
ATOM     13  O   UNL     1       4.451   4.802  16.616  0.00  0.00    +0.000 OA
ATOM     14  H   UNL     1       5.385   5.186  19.617  0.00  0.00    +0.000 HD
BRANCH  11  15
ATOM     15  C   UNL     1       6.812   5.615  18.122  0.00  0.00    +0.000 C 
ATOM     16  C   UNL     1       7.845   5.750  19.239  0.00  0.00    +0.000 C 
BRANCH  15  18
ATOM     17  C   UNL     1       7.733   7.957  17.651  0.00  0.00    +0.000 C 
ATOM     18  C   UNL     1       6.639   6.938  17.355  0.00  0.00    +0.000 C 
ENDBRANCH  15  18
ENDBRANCH  11  15
ENDBRANCH   5  12
ENDBRANCH   1  10
BRANCH   2  19
ATOM     19  C   UNL     1       2.306   8.639  18.695  0.00  0.00    +0.000 C 
BRANCH  19  20
ATOM     20  N   UNL     1       1.338   9.368  19.510  0.00  0.00    +0.000 N 
ATOM     21  C   UNL     1       0.991   8.975  20.818  0.00  0.00    +0.000 C 
ATOM     22  O   UNL     1       1.467   8.029  21.417  0.00  0.00    +0.000 OA
ATOM     23  C   UNL     1       0.005   9.910  21.369  0.00  0.00    +0.000 A 
ATOM     24  C   UNL     1      -0.420   9.946  22.689  0.00  0.00    +0.000 A 
ATOM     25  C   UNL     1      -1.262  10.989  23.078  0.00  0.00    +0.000 A 
ATOM     26  C   UNL     1      -1.675  11.959  22.145  0.00  0.00    +0.000 A 
ATOM     27  C   UNL     1      -1.255  11.901  20.807  0.00  0.00    +0.000 A 
ATOM     28  C   UNL     1      -0.413  10.862  20.450  0.00  0.00    +0.000 A 
ATOM     29  S   UNL     1       0.359  10.586  18.900  0.00  0.00    +0.000 S 
ATOM     30  O   UNL     1       1.165  11.745  18.595  0.00  0.00    +0.000 OA
ATOM     31  O   UNL     1      -0.638  10.028  18.020  0.00  0.00    +0.000 OA
ENDBRANCH  19  20
ENDBRANCH   2  19
TORSDOF 6
ENDMDL
MODEL 6
REMARK VINA RESULT:      -7.8      1.501      2.313
REMARK  Name = 
REMARK  8 active torsions:
REMARK  status: ('A' for Active; 'I' for Inactive)
REMARK    1  A    between atoms: C_1  and  C_2
REMARK    2  A    between atoms: C_2  and  C_3
REMARK    3  A    between atoms: C_3  and  C_4
REMARK    4  A    between atoms: C_3  and  N_5
REMARK    5  A    between atoms: C_6  and  C_8
REMARK    6  A    between atoms: C_13  and  N_14
REMARK    7  A    between atoms: C_15  and  C_17
REMARK    8  A    between atoms: C_17  and  N_18
REMARK                            x       y       z     vdW  Elec       q    Type
REMARK                         _______ _______ _______ _____ _____    ______ ____
ROOT
ATOM      1  N   UNL     1       2.263   6.791  19.312  0.00  0.00    +0.000 N 
ATOM      2  C   UNL     1       1.685   7.829  20.032  0.00  0.00    +0.000 C 
ATOM      3  O   UNL     1       1.306   7.744  21.198  0.00  0.00    +0.000 OA
ATOM      4  H   UNL     1       2.826   7.024  18.489  0.00  0.00    +0.000 HD
ENDROOT
BRANCH   1  10
ATOM      5  C   UNL     1       3.514   4.679  19.295  0.00  0.00    +0.000 A 
ATOM      6  C   UNL     1       3.712   3.377  19.788  0.00  0.00    +0.000 A 
ATOM      7  C   UNL     1       2.916   2.887  20.822  0.00  0.00    +0.000 A 
ATOM      8  C   UNL     1       1.913   3.689  21.360  0.00  0.00    +0.000 A 
ATOM      9  C   UNL     1       1.703   4.981  20.868  0.00  0.00    +0.000 A 
ATOM     10  C   UNL     1       2.493   5.491  19.830  0.00  0.00    +0.000 A 
BRANCH   5  12
ATOM     11  N   UNL     1       5.747   5.367  18.616  0.00  0.00    +0.000 N 
ATOM     12  C   UNL     1       4.428   5.205  18.238  0.00  0.00    +0.000 C 
ATOM     13  O   UNL     1       3.981   5.491  17.133  0.00  0.00    +0.000 OA
ATOM     14  H   UNL     1       5.954   5.379  19.607  0.00  0.00    +0.000 HD
BRANCH  11  15
ATOM     15  C   UNL     1       6.818   5.808  17.729  0.00  0.00    +0.000 C 
ATOM     16  C   UNL     1       7.500   4.621  17.052  0.00  0.00    +0.000 C 
BRANCH  15  18
ATOM     17  C   UNL     1       7.943   8.107  17.786  0.00  0.00    +0.000 C 
ATOM     18  C   UNL     1       7.843   6.725  18.421  0.00  0.00    +0.000 C 
ENDBRANCH  15  18
ENDBRANCH  11  15
ENDBRANCH   5  12
ENDBRANCH   1  10
BRANCH   2  19
ATOM     19  C   UNL     1       1.655   9.156  19.300  0.00  0.00    +0.000 C 
BRANCH  19  20
ATOM     20  N   UNL     1       0.581  10.105  19.578  0.00  0.00    +0.000 N 
ATOM     21  C   UNL     1      -0.524  10.280  18.721  0.00  0.00    +0.000 C 
ATOM     22  O   UNL     1      -0.724   9.656  17.695  0.00  0.00    +0.000 OA
ATOM     23  C   UNL     1      -1.427  11.292  19.279  0.00  0.00    +0.000 A 
ATOM     24  C   UNL     1      -2.697  11.585  18.808  0.00  0.00    +0.000 A 
ATOM     25  C   UNL     1      -3.477  12.482  19.540  0.00  0.00    +0.000 A 
ATOM     26  C   UNL     1      -2.970  13.078  20.710  0.00  0.00    +0.000 A 
ATOM     27  C   UNL     1      -1.675  12.790  21.166  0.00  0.00    +0.000 A 
ATOM     28  C   UNL     1      -0.926  11.891  20.426  0.00  0.00    +0.000 A 
ATOM     29  S   UNL     1       0.665  11.254  20.797  0.00  0.00    +0.000 S 
ATOM     30  O   UNL     1       0.590  10.599  22.082  0.00  0.00    +0.000 OA
ATOM     31  O   UNL     1       1.624  12.274  20.452  0.00  0.00    +0.000 OA
ENDBRANCH  19  20
ENDBRANCH   2  19
TORSDOF 6
ENDMDL
MODEL 7
REMARK VINA RESULT:      -7.8      0.884      1.956
REMARK  Name = 
REMARK  8 active torsions:
REMARK  status: ('A' for Active; 'I' for Inactive)
REMARK    1  A    between atoms: C_1  and  C_2
REMARK    2  A    between atoms: C_2  and  C_3
REMARK    3  A    between atoms: C_3  and  C_4
REMARK    4  A    between atoms: C_3  and  N_5
REMARK    5  A    between atoms: C_6  and  C_8
REMARK    6  A    between atoms: C_13  and  N_14
REMARK    7  A    between atoms: C_15  and  C_17
REMARK    8  A    between atoms: C_17  and  N_18
REMARK                            x       y       z     vdW  Elec       q    Type
REMARK                         _______ _______ _______ _____ _____    ______ ____
ROOT
ATOM      1  N   UNL     1       2.531   6.637  20.000  0.00  0.00    +0.000 N 
ATOM      2  C   UNL     1       2.076   7.445  18.966  0.00  0.00    +0.000 C 
ATOM      3  O   UNL     1       1.503   7.035  17.960  0.00  0.00    +0.000 OA
ATOM      4  H   UNL     1       2.698   7.064  20.915  0.00  0.00    +0.000 HD
ENDROOT
BRANCH   1  10
ATOM      5  C   UNL     1       3.404   4.397  19.500  0.00  0.00    +0.000 A 
ATOM      6  C   UNL     1       3.245   3.000  19.498  0.00  0.00    +0.000 A 
ATOM      7  C   UNL     1       2.097   2.423  20.040  0.00  0.00    +0.000 A 
ATOM      8  C   UNL     1       1.101   3.235  20.573  0.00  0.00    +0.000 A 
ATOM      9  C   UNL     1       1.247   4.626  20.568  0.00  0.00    +0.000 A 
ATOM     10  C   UNL     1       2.393   5.225  20.030  0.00  0.00    +0.000 A 
BRANCH   5  12
ATOM     11  N   UNL     1       4.865   4.887  17.616  0.00  0.00    +0.000 N 
ATOM     12  C   UNL     1       4.674   4.986  18.981  0.00  0.00    +0.000 C 
ATOM     13  O   UNL     1       5.479   5.484  19.761  0.00  0.00    +0.000 OA
ATOM     14  H   UNL     1       4.296   4.219  17.110  0.00  0.00    +0.000 HD
BRANCH  11  15
ATOM     15  C   UNL     1       6.001   5.445  16.892  0.00  0.00    +0.000 C 
ATOM     16  C   UNL     1       7.289   4.693  17.219  0.00  0.00    +0.000 C 
BRANCH  15  18
ATOM     17  C   UNL     1       7.556   7.357  17.582  0.00  0.00    +0.000 C 
ATOM     18  C   UNL     1       6.168   6.961  17.094  0.00  0.00    +0.000 C 
ENDBRANCH  15  18
ENDBRANCH  11  15
ENDBRANCH   5  12
ENDBRANCH   1  10
BRANCH   2  19
ATOM     19  C   UNL     1       2.234   8.931  19.221  0.00  0.00    +0.000 C 
BRANCH  19  20
ATOM     20  N   UNL     1       1.288   9.613  20.099  0.00  0.00    +0.000 N 
ATOM     21  C   UNL     1       0.716  10.862  19.783  0.00  0.00    +0.000 C 
ATOM     22  O   UNL     1       0.913  11.486  18.757  0.00  0.00    +0.000 OA
ATOM     23  C   UNL     1      -0.194  11.274  20.856  0.00  0.00    +0.000 A 
ATOM     24  C   UNL     1      -1.069  12.349  20.802  0.00  0.00    +0.000 A 
ATOM     25  C   UNL     1      -1.964  12.519  21.859  0.00  0.00    +0.000 A 
ATOM     26  C   UNL     1      -1.957  11.631  22.951  0.00  0.00    +0.000 A 
ATOM     27  C   UNL     1      -1.054  10.559  23.005  0.00  0.00    +0.000 A 
ATOM     28  C   UNL     1      -0.183  10.407  21.940  0.00  0.00    +0.000 A 
ATOM     29  S   UNL     1       0.973   9.116  21.671  0.00  0.00    +0.000 S 
ATOM     30  O   UNL     1       0.245   7.869  21.645  0.00  0.00    +0.000 OA
ATOM     31  O   UNL     1       2.114   9.382  22.512  0.00  0.00    +0.000 OA
ENDBRANCH  19  20
ENDBRANCH   2  19
TORSDOF 6
ENDMDL
MODEL 8
REMARK VINA RESULT:      -7.8      1.713      2.689
REMARK  Name = 
REMARK  8 active torsions:
REMARK  status: ('A' for Active; 'I' for Inactive)
REMARK    1  A    between atoms: C_1  and  C_2
REMARK    2  A    between atoms: C_2  and  C_3
REMARK    3  A    between atoms: C_3  and  C_4
REMARK    4  A    between atoms: C_3  and  N_5
REMARK    5  A    between atoms: C_6  and  C_8
REMARK    6  A    between atoms: C_13  and  N_14
REMARK    7  A    between atoms: C_15  and  C_17
REMARK    8  A    between atoms: C_17  and  N_18
REMARK                            x       y       z     vdW  Elec       q    Type
REMARK                         _______ _______ _______ _____ _____    ______ ____
ROOT
ATOM      1  N   UNL     1       2.457   5.794  18.833  0.00  0.00    +0.000 N 
ATOM      2  C   UNL     1       2.027   6.520  19.937  0.00  0.00    +0.000 C 
ATOM      3  O   UNL     1       1.505   6.029  20.935  0.00  0.00    +0.000 OA
ATOM      4  H   UNL     1       3.148   6.219  18.210  0.00  0.00    +0.000 HD
ENDROOT
BRANCH   1  10
ATOM      5  C   UNL     1       3.487   3.602  18.432  0.00  0.00    +0.000 A 
ATOM      6  C   UNL     1       3.366   2.209  18.277  0.00  0.00    +0.000 A 
ATOM      7  C   UNL     1       2.125   1.591  18.421  0.00  0.00    +0.000 A 
ATOM      8  C   UNL     1       1.000   2.358  18.708  0.00  0.00    +0.000 A 
ATOM      9  C   UNL     1       1.110   3.745  18.853  0.00  0.00    +0.000 A 
ATOM     10  C   UNL     1       2.348   4.385  18.713  0.00  0.00    +0.000 A 
BRANCH   5  12
ATOM     11  N   UNL     1       5.237   4.618  17.080  0.00  0.00    +0.000 N 
ATOM     12  C   UNL     1       4.838   4.230  18.345  0.00  0.00    +0.000 C 
ATOM     13  O   UNL     1       5.526   4.340  19.355  0.00  0.00    +0.000 OA
ATOM     14  H   UNL     1       4.735   4.231  16.290  0.00  0.00    +0.000 HD
BRANCH  11  15
ATOM     15  C   UNL     1       6.487   5.303  16.775  0.00  0.00    +0.000 C 
ATOM     16  C   UNL     1       6.399   6.791  17.107  0.00  0.00    +0.000 C 
BRANCH  15  18
ATOM     17  C   UNL     1       6.218   3.965  14.610  0.00  0.00    +0.000 C 
ATOM     18  C   UNL     1       6.969   5.078  15.331  0.00  0.00    +0.000 C 
ENDBRANCH  15  18
ENDBRANCH  11  15
ENDBRANCH   5  12
ENDBRANCH   1  10
BRANCH   2  19
ATOM     19  C   UNL     1       2.361   7.997  19.880  0.00  0.00    +0.000 C 
BRANCH  19  20
ATOM     20  N   UNL     1       1.281   8.972  19.756  0.00  0.00    +0.000 N 
ATOM     21  C   UNL     1       0.958   9.604  18.538  0.00  0.00    +0.000 C 
ATOM     22  O   UNL     1       1.505   9.394  17.471  0.00  0.00    +0.000 OA
ATOM     23  C   UNL     1      -0.172  10.517  18.739  0.00  0.00    +0.000 A 
ATOM     24  C   UNL     1      -0.875  11.161  17.733  0.00  0.00    +0.000 A 
ATOM     25  C   UNL     1      -2.012  11.888  18.090  0.00  0.00    +0.000 A 
ATOM     26  C   UNL     1      -2.411  11.973  19.437  0.00  0.00    +0.000 A 
ATOM     27  C   UNL     1      -1.679  11.335  20.450  0.00  0.00    +0.000 A 
ATOM     28  C   UNL     1      -0.562  10.613  20.068  0.00  0.00    +0.000 A 
ATOM     29  S   UNL     1       0.480   9.627  21.077  0.00  0.00    +0.000 S 
ATOM     30  O   UNL     1      -0.338   8.611  21.697  0.00  0.00    +0.000 OA
ATOM     31  O   UNL     1       1.354  10.524  21.792  0.00  0.00    +0.000 OA
ENDBRANCH  19  20
ENDBRANCH   2  19
TORSDOF 6
ENDMDL
MODEL 9
REMARK VINA RESULT:      -7.8      1.160      2.283
REMARK  Name = 
REMARK  8 active torsions:
REMARK  status: ('A' for Active; 'I' for Inactive)
REMARK    1  A    between atoms: C_1  and  C_2
REMARK    2  A    between atoms: C_2  and  C_3
REMARK    3  A    between atoms: C_3  and  C_4
REMARK    4  A    between atoms: C_3  and  N_5
REMARK    5  A    between atoms: C_6  and  C_8
REMARK    6  A    between atoms: C_13  and  N_14
REMARK    7  A    between atoms: C_15  and  C_17
REMARK    8  A    between atoms: C_17  and  N_18
REMARK                            x       y       z     vdW  Elec       q    Type
REMARK                         _______ _______ _______ _____ _____    ______ ____
ROOT
ATOM      1  N   UNL     1       2.481   6.598  20.033  0.00  0.00    +0.000 N 
ATOM      2  C   UNL     1       2.029   7.402  18.994  0.00  0.00    +0.000 C 
ATOM      3  O   UNL     1       1.448   6.988  17.993  0.00  0.00    +0.000 OA
ATOM      4  H   UNL     1       2.656   7.032  20.943  0.00  0.00    +0.000 HD
ENDROOT
BRANCH   1  10
ATOM      5  C   UNL     1       3.270   4.351  19.437  0.00  0.00    +0.000 A 
ATOM      6  C   UNL     1       3.096   2.955  19.451  0.00  0.00    +0.000 A 
ATOM      7  C   UNL     1       2.007   2.389  20.112  0.00  0.00    +0.000 A 
ATOM      8  C   UNL     1       1.084   3.211  20.751  0.00  0.00    +0.000 A 
ATOM      9  C   UNL     1       1.244   4.600  20.733  0.00  0.00    +0.000 A 
ATOM     10  C   UNL     1       2.332   5.188  20.075  0.00  0.00    +0.000 A 
BRANCH   5  12
ATOM     11  N   UNL     1       4.629   4.645  17.440  0.00  0.00    +0.000 N 
ATOM     12  C   UNL     1       4.483   4.927  18.785  0.00  0.00    +0.000 C 
ATOM     13  O   UNL     1       5.285   5.573  19.450  0.00  0.00    +0.000 OA
ATOM     14  H   UNL     1       4.083   3.883  17.058  0.00  0.00    +0.000 HD
BRANCH  11  15
ATOM     15  C   UNL     1       5.702   5.154  16.594  0.00  0.00    +0.000 C 
ATOM     16  C   UNL     1       5.249   6.378  15.801  0.00  0.00    +0.000 C 
BRANCH  15  18
ATOM     17  C   UNL     1       6.523   4.563  14.243  0.00  0.00    +0.000 C 
ATOM     18  C   UNL     1       6.313   4.083  15.674  0.00  0.00    +0.000 C 
ENDBRANCH  15  18
ENDBRANCH  11  15
ENDBRANCH   5  12
ENDBRANCH   1  10
BRANCH   2  19
ATOM     19  C   UNL     1       2.200   8.888  19.235  0.00  0.00    +0.000 C 
BRANCH  19  20
ATOM     20  N   UNL     1       1.263   9.586  20.111  0.00  0.00    +0.000 N 
ATOM     21  C   UNL     1       0.702  10.837  19.788  0.00  0.00    +0.000 C 
ATOM     22  O   UNL     1       0.902  11.451  18.756  0.00  0.00    +0.000 OA
ATOM     23  C   UNL     1      -0.201  11.266  20.860  0.00  0.00    +0.000 A 
ATOM     24  C   UNL     1      -1.065  12.348  20.800  0.00  0.00    +0.000 A 
ATOM     25  C   UNL     1      -1.955  12.535  21.859  0.00  0.00    +0.000 A 
ATOM     26  C   UNL     1      -1.953  11.655  22.958  0.00  0.00    +0.000 A 
ATOM     27  C   UNL     1      -1.060  10.575  23.017  0.00  0.00    +0.000 A 
ATOM     28  C   UNL     1      -0.194  10.407  21.951  0.00  0.00    +0.000 A 
ATOM     29  S   UNL     1       0.949   9.103  21.687  0.00  0.00    +0.000 S 
ATOM     30  O   UNL     1       0.210   7.863  21.674  0.00  0.00    +0.000 OA
ATOM     31  O   UNL     1       2.095   9.365  22.523  0.00  0.00    +0.000 OA
ENDBRANCH  19  20
ENDBRANCH   2  19
TORSDOF 6
ENDMDL
