MODEL 1
REMARK VINA RESULT:      -7.2      0.000      0.000
REMARK  Name = 
REMARK  3 active torsions:
REMARK  status: ('A' for Active; 'I' for Inactive)
REMARK    1  A    between atoms: C_1  and  N_2
REMARK    2  A    between atoms: C_6  and  C_7
REMARK    3  A    between atoms: C_16  and  O_17
REMARK                            x       y       z     vdW  Elec       q    Type
REMARK                         _______ _______ _______ _____ _____    ______ ____
ROOT
ATOM      1  C   UNL     1       4.980   4.600  18.517  0.00  0.00    +0.000 A 
ATOM      2  N   UNL     1       4.070   4.829  19.503  0.00  0.00    +0.000 NA
ATOM      3  C   UNL     1       2.935   4.106  19.468  0.00  0.00    +0.000 A 
ATOM      4  C   UNL     1       1.981   4.290  20.462  0.00  0.00    +0.000 A 
ATOM      5  C   UNL     1       0.805   3.540  20.486  0.00  0.00    +0.000 A 
ATOM      6  C   UNL     1       0.573   2.596  19.494  0.00  0.00    +0.000 A 
ATOM      7  C   UNL     1       1.517   2.412  18.483  0.00  0.00    +0.000 A 
ATOM      8  C   UNL     1       2.696   3.148  18.450  0.00  0.00    +0.000 A 
ATOM      9  N   UNL     1       3.590   2.926  17.469  0.00  0.00    +0.000 NA
ATOM     10  C   UNL     1       4.720   3.663  17.524  0.00  0.00    +0.000 A 
ENDROOT
BRANCH   1  16
ATOM     11  C   UNL     1       5.735   7.004  16.713  0.00  0.00    +0.000 C 
ATOM     12  N   UNL     1       6.545   6.442  17.768  0.00  0.00    +0.000 N 
ATOM     13  C   UNL     1       7.768   6.929  18.145  0.00  0.00    +0.000 A 
ATOM     14  C   UNL     1       8.154   6.144  19.201  0.00  0.00    +0.000 A 
ATOM     15  N   UNL     1       7.202   5.200  19.469  0.00  0.00    +0.000 NA
ATOM     16  C   UNL     1       6.220   5.383  18.597  0.00  0.00    +0.000 A 
ENDBRANCH   1  16
BRANCH  10  17
ATOM     17  O   UNL     1       5.589   3.337  16.536  0.00  0.00    +0.000 OA
ATOM     18  H   UNL     1       5.128   2.585  16.129  0.00  0.00    +0.000 HD
ENDBRANCH  10  17
TORSDOF 2
ENDMDL
MODEL 2
REMARK VINA RESULT:      -7.0      1.864      2.829
REMARK  Name = 
REMARK  3 active torsions:
REMARK  status: ('A' for Active; 'I' for Inactive)
REMARK    1  A    between atoms: C_1  and  N_2
REMARK    2  A    between atoms: C_6  and  C_7
REMARK    3  A    between atoms: C_16  and  O_17
REMARK                            x       y       z     vdW  Elec       q    Type
REMARK                         _______ _______ _______ _____ _____    ______ ____
ROOT
ATOM      1  C   UNL     1       4.661   3.893  17.380  0.00  0.00    +0.000 A 
ATOM      2  N   UNL     1       3.325   3.637  17.317  0.00  0.00    +0.000 NA
ATOM      3  C   UNL     1       2.696   3.382  18.479  0.00  0.00    +0.000 A 
ATOM      4  C   UNL     1       1.329   3.132  18.472  0.00  0.00    +0.000 A 
ATOM      5  C   UNL     1       0.627   2.895  19.653  0.00  0.00    +0.000 A 
ATOM      6  C   UNL     1       1.306   2.898  20.866  0.00  0.00    +0.000 A 
ATOM      7  C   UNL     1       2.682   3.134  20.885  0.00  0.00    +0.000 A 
ATOM      8  C   UNL     1       3.391   3.378  19.715  0.00  0.00    +0.000 A 
ATOM      9  N   UNL     1       4.714   3.620  19.779  0.00  0.00    +0.000 NA
ATOM     10  C   UNL     1       5.323   3.873  18.601  0.00  0.00    +0.000 A 
ENDROOT
BRANCH   1  16
ATOM     11  C   UNL     1       5.046   6.713  16.154  0.00  0.00    +0.000 C 
ATOM     12  N   UNL     1       5.459   5.462  15.562  0.00  0.00    +0.000 N 
ATOM     13  C   UNL     1       6.121   5.355  14.370  0.00  0.00    +0.000 A 
ATOM     14  C   UNL     1       6.362   4.014  14.215  0.00  0.00    +0.000 A 
ATOM     15  N   UNL     1       5.862   3.312  15.277  0.00  0.00    +0.000 NA
ATOM     16  C   UNL     1       5.314   4.195  16.100  0.00  0.00    +0.000 A 
ENDBRANCH   1  16
BRANCH  10  17
ATOM     17  O   UNL     1       6.638   4.164  18.760  0.00  0.00    +0.000 OA
ATOM     18  H   UNL     1       7.025   3.272  18.735  0.00  0.00    +0.000 HD
ENDBRANCH  10  17
TORSDOF 2
ENDMDL
MODEL 3
REMARK VINA RESULT:      -6.9      0.827      1.543
REMARK  Name = 
REMARK  3 active torsions:
REMARK  status: ('A' for Active; 'I' for Inactive)
REMARK    1  A    between atoms: C_1  and  N_2
REMARK    2  A    between atoms: C_6  and  C_7
REMARK    3  A    between atoms: C_16  and  O_17
REMARK                            x       y       z     vdW  Elec       q    Type
REMARK                         _______ _______ _______ _____ _____    ______ ____
ROOT
ATOM      1  C   UNL     1       4.999   5.212  18.068  0.00  0.00    +0.000 A 
ATOM      2  N   UNL     1       4.056   5.559  18.987  0.00  0.00    +0.000 NA
ATOM      3  C   UNL     1       3.044   4.693  19.182  0.00  0.00    +0.000 A 
ATOM      4  C   UNL     1       2.065   4.991  20.122  0.00  0.00    +0.000 A 
ATOM      5  C   UNL     1       1.016   4.110  20.382  0.00  0.00    +0.000 A 
ATOM      6  C   UNL     1       0.937   2.912  19.684  0.00  0.00    +0.000 A 
ATOM      7  C   UNL     1       1.907   2.607  18.726  0.00  0.00    +0.000 A 
ATOM      8  C   UNL     1       2.961   3.474  18.462  0.00  0.00    +0.000 A 
ATOM      9  N   UNL     1       3.886   3.133  17.546  0.00  0.00    +0.000 NA
ATOM     10  C   UNL     1       4.891   4.017  17.367  0.00  0.00    +0.000 A 
ENDROOT
BRANCH   1  16
ATOM     11  C   UNL     1       7.568   5.345  19.796  0.00  0.00    +0.000 C 
ATOM     12  N   UNL     1       7.235   6.217  18.693  0.00  0.00    +0.000 N 
ATOM     13  C   UNL     1       8.045   7.219  18.231  0.00  0.00    +0.000 A 
ATOM     14  C   UNL     1       7.376   7.752  17.159  0.00  0.00    +0.000 A 
ATOM     15  N   UNL     1       6.189   7.101  16.964  0.00  0.00    +0.000 NA
ATOM     16  C   UNL     1       6.105   6.163  17.898  0.00  0.00    +0.000 A 
ENDBRANCH   1  16
BRANCH  10  17
ATOM     17  O   UNL     1       5.808   3.573  16.473  0.00  0.00    +0.000 OA
ATOM     18  H   UNL     1       5.375   2.761  16.158  0.00  0.00    +0.000 HD
ENDBRANCH  10  17
TORSDOF 2
ENDMDL
MODEL 4
REMARK VINA RESULT:      -6.9      2.114      3.032
REMARK  Name = 
REMARK  3 active torsions:
REMARK  status: ('A' for Active; 'I' for Inactive)
REMARK    1  A    between atoms: C_1  and  N_2
REMARK    2  A    between atoms: C_6  and  C_7
REMARK    3  A    between atoms: C_16  and  O_17
REMARK                            x       y       z     vdW  Elec       q    Type
REMARK                         _______ _______ _______ _____ _____    ______ ____
ROOT
ATOM      1  C   UNL     1       4.387   4.740  17.388  0.00  0.00    +0.000 A 
ATOM      2  N   UNL     1       3.983   3.553  17.917  0.00  0.00    +0.000 NA
ATOM      3  C   UNL     1       3.085   3.604  18.919  0.00  0.00    +0.000 A 
ATOM      4  C   UNL     1       2.626   2.419  19.482  0.00  0.00    +0.000 A 
ATOM      5  C   UNL     1       1.671   2.420  20.499  0.00  0.00    +0.000 A 
ATOM      6  C   UNL     1       1.171   3.628  20.968  0.00  0.00    +0.000 A 
ATOM      7  C   UNL     1       1.634   4.826  20.420  0.00  0.00    +0.000 A 
ATOM      8  C   UNL     1       2.580   4.838  19.402  0.00  0.00    +0.000 A 
ATOM      9  N   UNL     1       2.985   6.014  18.886  0.00  0.00    +0.000 NA
ATOM     10  C   UNL     1       3.886   5.938  17.884  0.00  0.00    +0.000 A 
ENDROOT
BRANCH   1  16
ATOM     11  C   UNL     1       7.475   4.755  17.645  0.00  0.00    +0.000 C 
ATOM     12  N   UNL     1       6.722   4.679  16.415  0.00  0.00    +0.000 N 
ATOM     13  C   UNL     1       7.284   4.565  15.172  0.00  0.00    +0.000 A 
ATOM     14  C   UNL     1       6.223   4.472  14.308  0.00  0.00    +0.000 A 
ATOM     15  N   UNL     1       5.041   4.528  14.994  0.00  0.00    +0.000 NA
ATOM     16  C   UNL     1       5.345   4.651  16.278  0.00  0.00    +0.000 A 
ENDBRANCH   1  16
BRANCH  10  17
ATOM     17  O   UNL     1       4.196   7.159  17.384  0.00  0.00    +0.000 OA
ATOM     18  H   UNL     1       4.860   7.456  18.029  0.00  0.00    +0.000 HD
ENDBRANCH  10  17
TORSDOF 2
ENDMDL
MODEL 5
REMARK VINA RESULT:      -6.8      3.172      5.696
REMARK  Name = 
REMARK  3 active torsions:
REMARK  status: ('A' for Active; 'I' for Inactive)
REMARK    1  A    between atoms: C_1  and  N_2
REMARK    2  A    between atoms: C_6  and  C_7
REMARK    3  A    between atoms: C_16  and  O_17
REMARK                            x       y       z     vdW  Elec       q    Type
REMARK                         _______ _______ _______ _____ _____    ______ ____
ROOT
ATOM      1  C   UNL     1       5.602   4.844  16.643  0.00  0.00    +0.000 A 
ATOM      2  N   UNL     1       5.102   4.183  15.562  0.00  0.00    +0.000 NA
ATOM      3  C   UNL     1       5.818   4.243  14.424  0.00  0.00    +0.000 A 
ATOM      4  C   UNL     1       5.361   3.571  13.297  0.00  0.00    +0.000 A 
ATOM      5  C   UNL     1       6.085   3.575  12.105  0.00  0.00    +0.000 A 
ATOM      6  C   UNL     1       7.285   4.272  12.034  0.00  0.00    +0.000 A 
ATOM      7  C   UNL     1       7.748   4.963  13.156  0.00  0.00    +0.000 A 
ATOM      8  C   UNL     1       7.039   4.960  14.351  0.00  0.00    +0.000 A 
ATOM      9  N   UNL     1       7.531   5.622  15.415  0.00  0.00    +0.000 NA
ATOM     10  C   UNL     1       6.796   5.549  16.545  0.00  0.00    +0.000 A 
ENDROOT
BRANCH   1  16
ATOM     11  C   UNL     1       3.676   6.998  17.764  0.00  0.00    +0.000 C 
ATOM     12  N   UNL     1       3.973   5.720  18.369  0.00  0.00    +0.000 N 
ATOM     13  C   UNL     1       3.404   5.265  19.528  0.00  0.00    +0.000 A 
ATOM     14  C   UNL     1       3.920   4.008  19.709  0.00  0.00    +0.000 A 
ATOM     15  N   UNL     1       4.784   3.695  18.695  0.00  0.00    +0.000 NA
ATOM     16  C   UNL     1       4.813   4.738  17.877  0.00  0.00    +0.000 A 
ENDBRANCH   1  16
BRANCH  10  17
ATOM     17  O   UNL     1       7.388   6.192  17.581  0.00  0.00    +0.000 OA
ATOM     18  H   UNL     1       7.082   5.651  18.329  0.00  0.00    +0.000 HD
ENDBRANCH  10  17
TORSDOF 2
ENDMDL
MODEL 6
REMARK VINA RESULT:      -6.8      1.477      5.617
REMARK  Name = 
REMARK  3 active torsions:
REMARK  status: ('A' for Active; 'I' for Inactive)
REMARK    1  A    between atoms: C_1  and  N_2
REMARK    2  A    between atoms: C_6  and  C_7
REMARK    3  A    between atoms: C_16  and  O_17
REMARK                            x       y       z     vdW  Elec       q    Type
REMARK                         _______ _______ _______ _____ _____    ______ ____
ROOT
ATOM      1  C   UNL     1       3.885   4.136  18.783  0.00  0.00    +0.000 A 
ATOM      2  N   UNL     1       3.921   5.307  18.090  0.00  0.00    +0.000 NA
ATOM      3  C   UNL     1       5.124   5.892  17.939  0.00  0.00    +0.000 A 
ATOM      4  C   UNL     1       5.218   7.080  17.225  0.00  0.00    +0.000 A 
ATOM      5  C   UNL     1       6.446   7.706  17.013  0.00  0.00    +0.000 A 
ATOM      6  C   UNL     1       7.603   7.137  17.532  0.00  0.00    +0.000 A 
ATOM      7  C   UNL     1       7.520   5.951  18.263  0.00  0.00    +0.000 A 
ATOM      8  C   UNL     1       6.303   5.315  18.476  0.00  0.00    +0.000 A 
ATOM      9  N   UNL     1       6.269   4.162  19.169  0.00  0.00    +0.000 NA
ATOM     10  C   UNL     1       5.052   3.594  19.309  0.00  0.00    +0.000 A 
ENDROOT
BRANCH   1  16
ATOM     11  C   UNL     1       1.695   4.895  20.841  0.00  0.00    +0.000 C 
ATOM     12  N   UNL     1       1.607   3.851  19.847  0.00  0.00    +0.000 N 
ATOM     13  C   UNL     1       0.506   3.061  19.654  0.00  0.00    +0.000 A 
ATOM     14  C   UNL     1       0.827   2.253  18.593  0.00  0.00    +0.000 A 
ATOM     15  N   UNL     1       2.090   2.533  18.145  0.00  0.00    +0.000 NA
ATOM     16  C   UNL     1       2.563   3.508  18.908  0.00  0.00    +0.000 A 
ENDBRANCH   1  16
BRANCH  10  17
ATOM     17  O   UNL     1       5.114   2.411  19.967  0.00  0.00    +0.000 OA
ATOM     18  H   UNL     1       4.302   2.457  20.499  0.00  0.00    +0.000 HD
ENDBRANCH  10  17
TORSDOF 2
ENDMDL
MODEL 7
REMARK VINA RESULT:      -6.7      1.817      5.577
REMARK  Name = 
REMARK  3 active torsions:
REMARK  status: ('A' for Active; 'I' for Inactive)
REMARK    1  A    between atoms: C_1  and  N_2
REMARK    2  A    between atoms: C_6  and  C_7
REMARK    3  A    between atoms: C_16  and  O_17
REMARK                            x       y       z     vdW  Elec       q    Type
REMARK                         _______ _______ _______ _____ _____    ______ ____
ROOT
ATOM      1  C   UNL     1       3.730   4.760  19.215  0.00  0.00    +0.000 A 
ATOM      2  N   UNL     1       5.034   4.803  19.605  0.00  0.00    +0.000 NA
ATOM      3  C   UNL     1       5.857   5.601  18.898  0.00  0.00    +0.000 A 
ATOM      4  C   UNL     1       7.194   5.695  19.266  0.00  0.00    +0.000 A 
ATOM      5  C   UNL     1       8.077   6.533  18.585  0.00  0.00    +0.000 A 
ATOM      6  C   UNL     1       7.618   7.286  17.512  0.00  0.00    +0.000 A 
ATOM      7  C   UNL     1       6.280   7.189  17.124  0.00  0.00    +0.000 A 
ATOM      8  C   UNL     1       5.389   6.363  17.798  0.00  0.00    +0.000 A 
ATOM      9  N   UNL     1       4.102   6.314  17.405  0.00  0.00    +0.000 NA
ATOM     10  C   UNL     1       3.296   5.508  18.127  0.00  0.00    +0.000 A 
ENDROOT
BRANCH   1  16
ATOM     11  C   UNL     1       2.881   1.860  18.525  0.00  0.00    +0.000 C 
ATOM     12  N   UNL     1       2.470   2.616  19.685  0.00  0.00    +0.000 N 
ATOM     13  C   UNL     1       1.659   2.131  20.675  0.00  0.00    +0.000 A 
ATOM     14  C   UNL     1       1.569   3.145  21.593  0.00  0.00    +0.000 A 
ATOM     15  N   UNL     1       2.300   4.227  21.183  0.00  0.00    +0.000 NA
ATOM     16  C   UNL     1       2.851   3.903  20.022  0.00  0.00    +0.000 A 
ENDBRANCH   1  16
BRANCH  10  17
ATOM     17  O   UNL     1       2.009   5.561  17.704  0.00  0.00    +0.000 OA
ATOM     18  H   UNL     1       1.709   6.377  18.139  0.00  0.00    +0.000 HD
ENDBRANCH  10  17
TORSDOF 2
ENDMDL
MODEL 8
REMARK VINA RESULT:      -6.7      2.265      5.293
REMARK  Name = 
REMARK  3 active torsions:
REMARK  status: ('A' for Active; 'I' for Inactive)
REMARK    1  A    between atoms: C_1  and  N_2
REMARK    2  A    between atoms: C_6  and  C_7
REMARK    3  A    between atoms: C_16  and  O_17
REMARK                            x       y       z     vdW  Elec       q    Type
REMARK                         _______ _______ _______ _____ _____    ______ ____
ROOT
ATOM      1  C   UNL     1       4.847   4.246  18.451  0.00  0.00    +0.000 A 
ATOM      2  N   UNL     1       4.462   3.926  17.184  0.00  0.00    +0.000 NA
ATOM      3  C   UNL     1       5.328   4.208  16.193  0.00  0.00    +0.000 A 
ATOM      4  C   UNL     1       4.991   3.885  14.884  0.00  0.00    +0.000 A 
ATOM      5  C   UNL     1       5.869   4.127  13.827  0.00  0.00    +0.000 A 
ATOM      6  C   UNL     1       7.104   4.710  14.082  0.00  0.00    +0.000 A 
ATOM      7  C   UNL     1       7.448   5.051  15.391  0.00  0.00    +0.000 A 
ATOM      8  C   UNL     1       6.585   4.810  16.453  0.00  0.00    +0.000 A 
ATOM      9  N   UNL     1       6.964   5.136  17.703  0.00  0.00    +0.000 NA
ATOM     10  C   UNL     1       6.079   4.845  18.681  0.00  0.00    +0.000 A 
ENDROOT
BRANCH   1  16
ATOM     11  C   UNL     1       2.689   6.125  19.640  0.00  0.00    +0.000 C 
ATOM     12  N   UNL     1       2.949   4.763  20.043  0.00  0.00    +0.000 N 
ATOM     13  C   UNL     1       2.239   4.093  21.002  0.00  0.00    +0.000 A 
ATOM     14  C   UNL     1       2.777   2.832  21.029  0.00  0.00    +0.000 A 
ATOM     15  N   UNL     1       3.791   2.725  20.116  0.00  0.00    +0.000 NA
ATOM     16  C   UNL     1       3.893   3.901  19.514  0.00  0.00    +0.000 A 
ENDBRANCH   1  16
BRANCH  10  17
ATOM     17  O   UNL     1       6.561   5.150  19.911  0.00  0.00    +0.000 OA
ATOM     18  H   UNL     1       5.902   5.801  20.207  0.00  0.00    +0.000 HD
ENDBRANCH  10  17
TORSDOF 2
ENDMDL
MODEL 9
REMARK VINA RESULT:      -6.5      2.282      5.422
REMARK  Name = 
REMARK  3 active torsions:
REMARK  status: ('A' for Active; 'I' for Inactive)
REMARK    1  A    between atoms: C_1  and  N_2
REMARK    2  A    between atoms: C_6  and  C_7
REMARK    3  A    between atoms: C_16  and  O_17
REMARK                            x       y       z     vdW  Elec       q    Type
REMARK                         _______ _______ _______ _____ _____    ______ ____
ROOT
ATOM      1  C   UNL     1       4.781   4.566  18.442  0.00  0.00    +0.000 A 
ATOM      2  N   UNL     1       4.379   4.258  17.178  0.00  0.00    +0.000 NA
ATOM      3  C   UNL     1       5.284   4.413  16.194  0.00  0.00    +0.000 A 
ATOM      4  C   UNL     1       4.930   4.096  14.888  0.00  0.00    +0.000 A 
ATOM      5  C   UNL     1       5.844   4.207  13.840  0.00  0.00    +0.000 A 
ATOM      6  C   UNL     1       7.134   4.652  14.100  0.00  0.00    +0.000 A 
ATOM      7  C   UNL     1       7.498   4.987  15.405  0.00  0.00    +0.000 A 
ATOM      8  C   UNL     1       6.598   4.874  16.459  0.00  0.00    +0.000 A 
ATOM      9  N   UNL     1       6.996   5.188  17.706  0.00  0.00    +0.000 NA
ATOM     10  C   UNL     1       6.071   5.026  18.677  0.00  0.00    +0.000 A 
ENDROOT
BRANCH   1  16
ATOM     11  C   UNL     1       4.361   1.964  20.072  0.00  0.00    +0.000 C 
ATOM     12  N   UNL     1       3.598   3.183  20.200  0.00  0.00    +0.000 N 
ATOM     13  C   UNL     1       2.587   3.369  21.104  0.00  0.00    +0.000 A 
ATOM     14  C   UNL     1       2.180   4.666  20.922  0.00  0.00    +0.000 A 
ATOM     15  N   UNL     1       2.915   5.264  19.935  0.00  0.00    +0.000 NA
ATOM     16  C   UNL     1       3.781   4.361  19.498  0.00  0.00    +0.000 A 
ENDBRANCH   1  16
BRANCH  10  17
ATOM     17  O   UNL     1       6.568   5.308  19.906  0.00  0.00    +0.000 OA
ATOM     18  H   UNL     1       5.788   5.136  20.460  0.00  0.00    +0.000 HD
ENDBRANCH  10  17
TORSDOF 2
ENDMDL
