MODEL 1
REMARK VINA RESULT:      -8.9      0.000      0.000
REMARK  Name = 
REMARK  7 active torsions:
REMARK  status: ('A' for Active; 'I' for Inactive)
REMARK    1  A    between atoms: C_1  and  C_2
REMARK    2  A    between atoms: C_2  and  C_3
REMARK    3  A    between atoms: C_2  and  C_10
REMARK    4  A    between atoms: C_3  and  C_4
REMARK    5  A    between atoms: N_8  and  C_9
REMARK    6  A    between atoms: C_12  and  C_13
REMARK    7  A    between atoms: C_28  and  C_29
REMARK                            x       y       z     vdW  Elec       q    Type
REMARK                         _______ _______ _______ _____ _____    ______ ____
ROOT
ATOM      1  C   UNL     1       3.738   7.227  17.706  0.00  0.00    +0.000 A 
ATOM      2  C   UNL     1       3.702   6.014  18.395  0.00  0.00    +0.000 A 
ATOM      3  C   UNL     1       2.841   5.853  19.478  0.00  0.00    +0.000 A 
ATOM      4  N   UNL     1       2.047   6.857  19.921  0.00  0.00    +0.000 NA
ATOM      5  C   UNL     1       2.078   8.042  19.285  0.00  0.00    +0.000 A 
ATOM      6  N   UNL     1       1.285   9.114  19.754  0.00  0.00    +0.000 N 
ATOM      7  C   UNL     1       1.183  10.376  19.048  0.00  0.00    +0.000 C 
ATOM      8  C   UNL     1       0.233  11.169  19.880  0.00  0.00    +0.000 A 
ATOM      9  C   UNL     1      -0.121  10.423  21.002  0.00  0.00    +0.000 A 
ATOM     10  C   UNL     1      -0.966  10.907  21.981  0.00  0.00    +0.000 A 
ATOM     11  C   UNL     1      -1.480  12.192  21.809  0.00  0.00    +0.000 A 
ATOM     12  C   UNL     1      -1.147  12.951  20.670  0.00  0.00    +0.000 A 
ATOM     13  C   UNL     1      -0.282  12.447  19.679  0.00  0.00    +0.000 A 
ATOM     14  C   UNL     1       0.533   9.106  20.923  0.00  0.00    +0.000 C 
ATOM     15  O   UNL     1       0.367   8.259  21.782  0.00  0.00    +0.000 OA
ATOM     16  C   UNL     1       2.890   8.237  18.168  0.00  0.00    +0.000 A 
ENDROOT
BRANCH   3  17
ATOM     17  C   UNL     1       2.754   4.563  20.197  0.00  0.00    +0.000 C 
ATOM     18  C   UNL     1       3.688   3.601  20.059  0.00  0.00    +0.000 C 
ATOM     19  C   UNL     1       3.656   2.311  20.825  0.00  0.00    +0.000 C 
ATOM     20  O   UNL     1       2.701   2.329  21.894  0.00  0.00    +0.000 OA
ATOM     21  C   UNL     1       1.442   2.840  21.460  0.00  0.00    +0.000 C 
ATOM     22  C   UNL     1       1.583   4.321  21.114  0.00  0.00    +0.000 C 
ENDBRANCH   3  17
BRANCH  13  23
ATOM     23  C   UNL     1       0.032  13.274  18.460  0.00  0.00    +0.000 C 
ATOM     24  F   UNL     1      -0.276  14.594  18.602  0.00  0.00    +0.000 F 
ATOM     25  F   UNL     1       1.353  13.237  18.136  0.00  0.00    +0.000 F 
ATOM     26  F   UNL     1      -0.641  12.855  17.354  0.00  0.00    +0.000 F 
ENDBRANCH  13  23
BRANCH   1  28
ATOM     27  C   UNL     1       4.557   6.335  15.450  0.00  0.00    +0.000 C 
ATOM     28  C   UNL     1       4.700   7.422  16.534  0.00  0.00    +0.000 C 
BRANCH  28  29
ATOM     29  C   UNL     1       6.159   7.525  17.042  0.00  0.00    +0.000 C 
BRANCH  29  30
ATOM     30  C   UNL     1       6.908   6.237  16.966  0.00  0.00    +0.000 A 
ATOM     31  N   UNL     1       7.364   5.648  15.879  0.00  0.00    +0.000 NA
ATOM     32  N   UNL     1       7.918   4.445  16.242  0.00  0.00    +0.000 NA
ATOM     33  C   UNL     1       7.827   4.343  17.546  0.00  0.00    +0.000 A 
ATOM     34  N   UNL     1       7.234   5.459  18.046  0.00  0.00    +0.000 N 
ATOM     35  C   UNL     1       7.023   5.761  19.436  0.00  0.00    +0.000 C 
ENDBRANCH  29  30
ENDBRANCH  28  29
ENDBRANCH   1  28
TORSDOF 5
ENDMDL
MODEL 2
REMARK VINA RESULT:      -8.7      0.675      1.052
REMARK  Name = 
REMARK  7 active torsions:
REMARK  status: ('A' for Active; 'I' for Inactive)
REMARK    1  A    between atoms: C_1  and  C_2
REMARK    2  A    between atoms: C_2  and  C_3
REMARK    3  A    between atoms: C_2  and  C_10
REMARK    4  A    between atoms: C_3  and  C_4
REMARK    5  A    between atoms: N_8  and  C_9
REMARK    6  A    between atoms: C_12  and  C_13
REMARK    7  A    between atoms: C_28  and  C_29
REMARK                            x       y       z     vdW  Elec       q    Type
REMARK                         _______ _______ _______ _____ _____    ______ ____
ROOT
ATOM      1  C   UNL     1       3.612   7.367  17.673  0.00  0.00    +0.000 A 
ATOM      2  C   UNL     1       3.414   6.111  18.248  0.00  0.00    +0.000 A 
ATOM      3  C   UNL     1       2.458   5.944  19.246  0.00  0.00    +0.000 A 
ATOM      4  N   UNL     1       1.720   6.980  19.715  0.00  0.00    +0.000 NA
ATOM      5  C   UNL     1       1.906   8.204  19.191  0.00  0.00    +0.000 A 
ATOM      6  N   UNL     1       1.174   9.304  19.692  0.00  0.00    +0.000 N 
ATOM      7  C   UNL     1       1.241  10.623  19.094  0.00  0.00    +0.000 C 
ATOM      8  C   UNL     1       0.299  11.432  19.920  0.00  0.00    +0.000 A 
ATOM      9  C   UNL     1      -0.209  10.634  20.943  0.00  0.00    +0.000 A 
ATOM     10  C   UNL     1      -1.086  11.114  21.896  0.00  0.00    +0.000 A 
ATOM     11  C   UNL     1      -1.469  12.452  21.800  0.00  0.00    +0.000 A 
ATOM     12  C   UNL     1      -0.981  13.265  20.759  0.00  0.00    +0.000 A 
ATOM     13  C   UNL     1      -0.084  12.765  19.794  0.00  0.00    +0.000 A 
ATOM     14  C   UNL     1       0.332   9.273  20.797  0.00  0.00    +0.000 C 
ATOM     15  O   UNL     1       0.023   8.378  21.563  0.00  0.00    +0.000 OA
ATOM     16  C   UNL     1       2.821   8.411  18.158  0.00  0.00    +0.000 A 
ENDROOT
BRANCH   3  17
ATOM     17  C   UNL     1       2.200   4.614  19.840  0.00  0.00    +0.000 C 
ATOM     18  C   UNL     1       2.388   4.367  21.152  0.00  0.00    +0.000 C 
ATOM     19  C   UNL     1       2.073   3.045  21.790  0.00  0.00    +0.000 C 
ATOM     20  O   UNL     1       1.312   2.186  20.932  0.00  0.00    +0.000 OA
ATOM     21  C   UNL     1       1.866   2.139  19.618  0.00  0.00    +0.000 C 
ATOM     22  C   UNL     1       1.710   3.504  18.948  0.00  0.00    +0.000 C 
ENDBRANCH   3  17
BRANCH  13  23
ATOM     23  C   UNL     1       0.399  13.654  18.679  0.00  0.00    +0.000 C 
ATOM     24  F   UNL     1       1.714  13.474  18.370  0.00  0.00    +0.000 F 
ATOM     25  F   UNL     1      -0.282  13.447  17.519  0.00  0.00    +0.000 F 
ATOM     26  F   UNL     1       0.265  14.977  18.967  0.00  0.00    +0.000 F 
ENDBRANCH  13  23
BRANCH   1  28
ATOM     27  C   UNL     1       4.582   6.534  15.454  0.00  0.00    +0.000 C 
ATOM     28  C   UNL     1       4.680   7.564  16.597  0.00  0.00    +0.000 C 
BRANCH  28  29
ATOM     29  C   UNL     1       6.093   7.573  17.231  0.00  0.00    +0.000 C 
BRANCH  29  30
ATOM     30  C   UNL     1       6.826   6.285  17.067  0.00  0.00    +0.000 A 
ATOM     31  N   UNL     1       7.357   5.809  15.958  0.00  0.00    +0.000 NA
ATOM     32  N   UNL     1       7.863   4.560  16.225  0.00  0.00    +0.000 NA
ATOM     33  C   UNL     1       7.668   4.316  17.498  0.00  0.00    +0.000 A 
ATOM     34  N   UNL     1       7.054   5.384  18.074  0.00  0.00    +0.000 N 
ATOM     35  C   UNL     1       6.738   5.533  19.469  0.00  0.00    +0.000 C 
ENDBRANCH  29  30
ENDBRANCH  28  29
ENDBRANCH   1  28
TORSDOF 5
ENDMDL
MODEL 3
REMARK VINA RESULT:      -8.2      1.007      1.243
REMARK  Name = 
REMARK  7 active torsions:
REMARK  status: ('A' for Active; 'I' for Inactive)
REMARK    1  A    between atoms: C_1  and  C_2
REMARK    2  A    between atoms: C_2  and  C_3
REMARK    3  A    between atoms: C_2  and  C_10
REMARK    4  A    between atoms: C_3  and  C_4
REMARK    5  A    between atoms: N_8  and  C_9
REMARK    6  A    between atoms: C_12  and  C_13
REMARK    7  A    between atoms: C_28  and  C_29
REMARK                            x       y       z     vdW  Elec       q    Type
REMARK                         _______ _______ _______ _____ _____    ______ ____
ROOT
ATOM      1  C   UNL     1       3.948   7.085  17.800  0.00  0.00    +0.000 A 
ATOM      2  C   UNL     1       3.877   5.876  18.492  0.00  0.00    +0.000 A 
ATOM      3  C   UNL     1       2.959   5.716  19.525  0.00  0.00    +0.000 A 
ATOM      4  N   UNL     1       2.137   6.720  19.918  0.00  0.00    +0.000 NA
ATOM      5  C   UNL     1       2.199   7.902  19.279  0.00  0.00    +0.000 A 
ATOM      6  N   UNL     1       1.377   8.973  19.698  0.00  0.00    +0.000 N 
ATOM      7  C   UNL     1       1.311  10.231  18.981  0.00  0.00    +0.000 C 
ATOM      8  C   UNL     1       0.313  11.025  19.755  0.00  0.00    +0.000 A 
ATOM      9  C   UNL     1      -0.100  10.283  20.859  0.00  0.00    +0.000 A 
ATOM     10  C   UNL     1      -1.001  10.768  21.787  0.00  0.00    +0.000 A 
ATOM     11  C   UNL     1      -1.508  12.050  21.580  0.00  0.00    +0.000 A 
ATOM     12  C   UNL     1      -1.115  12.805  20.457  0.00  0.00    +0.000 A 
ATOM     13  C   UNL     1      -0.194  12.300  19.518  0.00  0.00    +0.000 A 
ATOM     14  C   UNL     1       0.562   8.968  20.823  0.00  0.00    +0.000 C 
ATOM     15  O   UNL     1       0.351   8.124  21.675  0.00  0.00    +0.000 OA
ATOM     16  C   UNL     1       3.072   8.094  18.209  0.00  0.00    +0.000 A 
ENDROOT
BRANCH   3  17
ATOM     17  C   UNL     1       2.836   4.429  20.244  0.00  0.00    +0.000 C 
ATOM     18  C   UNL     1       3.716   3.424  20.070  0.00  0.00    +0.000 C 
ATOM     19  C   UNL     1       3.650   2.134  20.835  0.00  0.00    +0.000 C 
ATOM     20  O   UNL     1       2.738   2.194  21.938  0.00  0.00    +0.000 OA
ATOM     21  C   UNL     1       1.489   2.767  21.552  0.00  0.00    +0.000 C 
ATOM     22  C   UNL     1       1.689   4.241  21.203  0.00  0.00    +0.000 C 
ENDBRANCH   3  17
BRANCH  13  23
ATOM     23  C   UNL     1       0.185  13.122  18.315  0.00  0.00    +0.000 C 
ATOM     24  F   UNL     1       0.057  14.465  18.509  0.00  0.00    +0.000 F 
ATOM     25  F   UNL     1       1.478  12.926  17.941  0.00  0.00    +0.000 F 
ATOM     26  F   UNL     1      -0.573  12.833  17.222  0.00  0.00    +0.000 F 
ENDBRANCH  13  23
BRANCH   1  28
ATOM     27  C   UNL     1       4.371   7.102  15.274  0.00  0.00    +0.000 C 
ATOM     28  C   UNL     1       4.973   7.278  16.683  0.00  0.00    +0.000 C 
BRANCH  28  29
ATOM     29  C   UNL     1       6.191   6.346  16.897  0.00  0.00    +0.000 C 
BRANCH  29  30
ATOM     30  C   UNL     1       6.430   5.409  15.762  0.00  0.00    +0.000 A 
ATOM     31  N   UNL     1       7.279   5.570  14.766  0.00  0.00    +0.000 NA
ATOM     32  N   UNL     1       7.126   4.519  13.895  0.00  0.00    +0.000 NA
ATOM     33  C   UNL     1       6.218   3.717  14.398  0.00  0.00    +0.000 A 
ATOM     34  N   UNL     1       5.781   4.215  15.584  0.00  0.00    +0.000 N 
ATOM     35  C   UNL     1       4.843   3.590  16.477  0.00  0.00    +0.000 C 
ENDBRANCH  29  30
ENDBRANCH  28  29
ENDBRANCH   1  28
TORSDOF 5
ENDMDL
MODEL 4
REMARK VINA RESULT:      -8.1      1.117      1.487
REMARK  Name = 
REMARK  7 active torsions:
REMARK  status: ('A' for Active; 'I' for Inactive)
REMARK    1  A    between atoms: C_1  and  C_2
REMARK    2  A    between atoms: C_2  and  C_3
REMARK    3  A    between atoms: C_2  and  C_10
REMARK    4  A    between atoms: C_3  and  C_4
REMARK    5  A    between atoms: N_8  and  C_9
REMARK    6  A    between atoms: C_12  and  C_13
REMARK    7  A    between atoms: C_28  and  C_29
REMARK                            x       y       z     vdW  Elec       q    Type
REMARK                         _______ _______ _______ _____ _____    ______ ____
ROOT
ATOM      1  C   UNL     1       3.927   7.087  17.623  0.00  0.00    +0.000 A 
ATOM      2  C   UNL     1       3.900   5.880  18.322  0.00  0.00    +0.000 A 
ATOM      3  C   UNL     1       3.036   5.719  19.401  0.00  0.00    +0.000 A 
ATOM      4  N   UNL     1       2.228   6.718  19.831  0.00  0.00    +0.000 NA
ATOM      5  C   UNL     1       2.250   7.898  19.186  0.00  0.00    +0.000 A 
ATOM      6  N   UNL     1       1.443   8.965  19.641  0.00  0.00    +0.000 N 
ATOM      7  C   UNL     1       1.331  10.220  18.924  0.00  0.00    +0.000 C 
ATOM      8  C   UNL     1       0.368  11.009  19.745  0.00  0.00    +0.000 A 
ATOM      9  C   UNL     1       0.016  10.269  20.871  0.00  0.00    +0.000 A 
ATOM     10  C   UNL     1      -0.840  10.752  21.841  0.00  0.00    +0.000 A 
ATOM     11  C   UNL     1      -1.366  12.030  21.655  0.00  0.00    +0.000 A 
ATOM     12  C   UNL     1      -1.036  12.782  20.512  0.00  0.00    +0.000 A 
ATOM     13  C   UNL     1      -0.160  12.280  19.529  0.00  0.00    +0.000 A 
ATOM     14  C   UNL     1       0.685   8.959  20.806  0.00  0.00    +0.000 C 
ATOM     15  O   UNL     1       0.523   8.117  21.671  0.00  0.00    +0.000 OA
ATOM     16  C   UNL     1       3.066   8.092  18.072  0.00  0.00    +0.000 A 
ENDROOT
BRANCH   3  17
ATOM     17  C   UNL     1       2.959   4.434  20.130  0.00  0.00    +0.000 C 
ATOM     18  C   UNL     1       3.835   3.433  19.914  0.00  0.00    +0.000 C 
ATOM     19  C   UNL     1       3.817   2.146  20.686  0.00  0.00    +0.000 C 
ATOM     20  O   UNL     1       2.963   2.205  21.835  0.00  0.00    +0.000 OA
ATOM     21  C   UNL     1       1.692   2.768  21.512  0.00  0.00    +0.000 C 
ATOM     22  C   UNL     1       1.865   4.242  21.148  0.00  0.00    +0.000 C 
ENDBRANCH   3  17
BRANCH  13  23
ATOM     23  C   UNL     1       0.153  13.100  18.305  0.00  0.00    +0.000 C 
ATOM     24  F   UNL     1      -0.614  12.780  17.224  0.00  0.00    +0.000 F 
ATOM     25  F   UNL     1      -0.039  14.431  18.510  0.00  0.00    +0.000 F 
ATOM     26  F   UNL     1       1.443  12.962  17.896  0.00  0.00    +0.000 F 
ENDBRANCH  13  23
BRANCH   1  28
ATOM     27  C   UNL     1       4.315   6.805  15.107  0.00  0.00    +0.000 C 
ATOM     28  C   UNL     1       4.894   7.283  16.455  0.00  0.00    +0.000 C 
BRANCH  28  29
ATOM     29  C   UNL     1       6.253   6.607  16.757  0.00  0.00    +0.000 C 
BRANCH  29  30
ATOM     30  C   UNL     1       7.194   7.479  17.519  0.00  0.00    +0.000 A 
ATOM     31  N   UNL     1       7.446   8.754  17.303  0.00  0.00    +0.000 NA
ATOM     32  N   UNL     1       8.432   9.152  18.172  0.00  0.00    +0.000 NA
ATOM     33  C   UNL     1       8.733   8.124  18.928  0.00  0.00    +0.000 A 
ATOM     34  N   UNL     1       7.957   7.064  18.580  0.00  0.00    +0.000 N 
ATOM     35  C   UNL     1       7.933   5.778  19.223  0.00  0.00    +0.000 C 
ENDBRANCH  29  30
ENDBRANCH  28  29
ENDBRANCH   1  28
TORSDOF 5
ENDMDL
MODEL 5
REMARK VINA RESULT:      -8.1      1.170      1.560
REMARK  Name = 
REMARK  7 active torsions:
REMARK  status: ('A' for Active; 'I' for Inactive)
REMARK    1  A    between atoms: C_1  and  C_2
REMARK    2  A    between atoms: C_2  and  C_3
REMARK    3  A    between atoms: C_2  and  C_10
REMARK    4  A    between atoms: C_3  and  C_4
REMARK    5  A    between atoms: N_8  and  C_9
REMARK    6  A    between atoms: C_12  and  C_13
REMARK    7  A    between atoms: C_28  and  C_29
REMARK                            x       y       z     vdW  Elec       q    Type
REMARK                         _______ _______ _______ _____ _____    ______ ____
ROOT
ATOM      1  C   UNL     1       3.689   7.216  17.941  0.00  0.00    +0.000 A 
ATOM      2  C   UNL     1       3.354   5.948  18.416  0.00  0.00    +0.000 A 
ATOM      3  C   UNL     1       2.308   5.797  19.321  0.00  0.00    +0.000 A 
ATOM      4  N   UNL     1       1.610   6.856  19.797  0.00  0.00    +0.000 NA
ATOM      5  C   UNL     1       1.927   8.091  19.370  0.00  0.00    +0.000 A 
ATOM      6  N   UNL     1       1.236   9.213  19.881  0.00  0.00    +0.000 N 
ATOM      7  C   UNL     1       1.448  10.556  19.378  0.00  0.00    +0.000 C 
ATOM      8  C   UNL     1       0.500  11.385  20.178  0.00  0.00    +0.000 A 
ATOM      9  C   UNL     1      -0.148  10.570  21.103  0.00  0.00    +0.000 A 
ATOM     10  C   UNL     1      -1.065  11.059  22.012  0.00  0.00    +0.000 A 
ATOM     11  C   UNL     1      -1.342  12.425  21.973  0.00  0.00    +0.000 A 
ATOM     12  C   UNL     1      -0.710  13.259  21.030  0.00  0.00    +0.000 A 
ATOM     13  C   UNL     1       0.225  12.748  20.108  0.00  0.00    +0.000 A 
ATOM     14  C   UNL     1       0.304   9.181  20.912  0.00  0.00    +0.000 C 
ATOM     15  O   UNL     1      -0.132   8.270  21.591  0.00  0.00    +0.000 OA
ATOM     16  C   UNL     1       2.937   8.288  18.429  0.00  0.00    +0.000 A 
ENDROOT
BRANCH   3  17
ATOM     17  C   UNL     1       1.906   4.457  19.806  0.00  0.00    +0.000 C 
ATOM     18  C   UNL     1       1.310   3.554  19.002  0.00  0.00    +0.000 C 
ATOM     19  C   UNL     1       0.951   2.168  19.452  0.00  0.00    +0.000 C 
ATOM     20  O   UNL     1       1.545   1.826  20.711  0.00  0.00    +0.000 OA
ATOM     21  C   UNL     1       1.370   2.868  21.669  0.00  0.00    +0.000 C 
ATOM     22  C   UNL     1       2.176   4.095  21.243  0.00  0.00    +0.000 C 
ENDBRANCH   3  17
BRANCH  13  23
ATOM     23  C   UNL     1       0.864  13.662  19.096  0.00  0.00    +0.000 C 
ATOM     24  F   UNL     1       0.661  13.271  17.805  0.00  0.00    +0.000 F 
ATOM     25  F   UNL     1       0.389  14.934  19.173  0.00  0.00    +0.000 F 
ATOM     26  F   UNL     1       2.213  13.751  19.246  0.00  0.00    +0.000 F 
ENDBRANCH  13  23
BRANCH   1  28
ATOM     27  C   UNL     1       4.449   7.185  15.496  0.00  0.00    +0.000 C 
ATOM     28  C   UNL     1       4.856   7.394  16.969  0.00  0.00    +0.000 C 
BRANCH  28  29
ATOM     29  C   UNL     1       6.037   6.476  17.365  0.00  0.00    +0.000 C 
BRANCH  29  30
ATOM     30  C   UNL     1       6.537   5.631  16.242  0.00  0.00    +0.000 A 
ATOM     31  N   UNL     1       7.543   5.899  15.434  0.00  0.00    +0.000 NA
ATOM     32  N   UNL     1       7.615   4.903  14.491  0.00  0.00    +0.000 NA
ATOM     33  C   UNL     1       6.680   4.026  14.768  0.00  0.00    +0.000 A 
ATOM     34  N   UNL     1       6.003   4.422  15.878  0.00  0.00    +0.000 N 
ATOM     35  C   UNL     1       4.957   3.694  16.542  0.00  0.00    +0.000 C 
ENDBRANCH  29  30
ENDBRANCH  28  29
ENDBRANCH   1  28
TORSDOF 5
ENDMDL
MODEL 6
REMARK VINA RESULT:      -8.0      1.120      1.492
REMARK  Name = 
REMARK  7 active torsions:
REMARK  status: ('A' for Active; 'I' for Inactive)
REMARK    1  A    between atoms: C_1  and  C_2
REMARK    2  A    between atoms: C_2  and  C_3
REMARK    3  A    between atoms: C_2  and  C_10
REMARK    4  A    between atoms: C_3  and  C_4
REMARK    5  A    between atoms: N_8  and  C_9
REMARK    6  A    between atoms: C_12  and  C_13
REMARK    7  A    between atoms: C_28  and  C_29
REMARK                            x       y       z     vdW  Elec       q    Type
REMARK                         _______ _______ _______ _____ _____    ______ ____
ROOT
ATOM      1  C   UNL     1       3.699   7.249  17.957  0.00  0.00    +0.000 A 
ATOM      2  C   UNL     1       3.423   5.998  18.510  0.00  0.00    +0.000 A 
ATOM      3  C   UNL     1       2.401   5.859  19.444  0.00  0.00    +0.000 A 
ATOM      4  N   UNL     1       1.670   6.917  19.873  0.00  0.00    +0.000 NA
ATOM      5  C   UNL     1       1.930   8.137  19.369  0.00  0.00    +0.000 A 
ATOM      6  N   UNL     1       1.205   9.258  19.830  0.00  0.00    +0.000 N 
ATOM      7  C   UNL     1       1.353  10.577  19.246  0.00  0.00    +0.000 C 
ATOM      8  C   UNL     1       0.388  11.414  20.017  0.00  0.00    +0.000 A 
ATOM      9  C   UNL     1      -0.210  10.629  21.001  0.00  0.00    +0.000 A 
ATOM     10  C   UNL     1      -1.128  11.134  21.899  0.00  0.00    +0.000 A 
ATOM     11  C   UNL     1      -1.460  12.485  21.788  0.00  0.00    +0.000 A 
ATOM     12  C   UNL     1      -0.879  13.286  20.786  0.00  0.00    +0.000 A 
ATOM     13  C   UNL     1       0.059  12.759  19.876  0.00  0.00    +0.000 A 
ATOM     14  C   UNL     1       0.293   9.251  20.880  0.00  0.00    +0.000 C 
ATOM     15  O   UNL     1      -0.093   8.364  21.619  0.00  0.00    +0.000 OA
ATOM     16  C   UNL     1       2.914   8.317  18.398  0.00  0.00    +0.000 A 
ENDROOT
BRANCH   3  17
ATOM     17  C   UNL     1       2.061   4.536  20.012  0.00  0.00    +0.000 C 
ATOM     18  C   UNL     1       2.296   4.228  21.303  0.00  0.00    +0.000 C 
ATOM     19  C   UNL     1       1.903   2.917  21.919  0.00  0.00    +0.000 C 
ATOM     20  O   UNL     1       1.027   2.156  21.078  0.00  0.00    +0.000 OA
ATOM     21  C   UNL     1       1.504   2.107  19.735  0.00  0.00    +0.000 C 
ATOM     22  C   UNL     1       1.430   3.502  19.116  0.00  0.00    +0.000 C 
ENDBRANCH   3  17
BRANCH  13  23
ATOM     23  C   UNL     1       0.642  13.637  18.799  0.00  0.00    +0.000 C 
ATOM     24  F   UNL     1       2.004  13.689  18.817  0.00  0.00    +0.000 F 
ATOM     25  F   UNL     1       0.306  13.216  17.550  0.00  0.00    +0.000 F 
ATOM     26  F   UNL     1       0.221  14.927  18.890  0.00  0.00    +0.000 F 
ENDBRANCH  13  23
BRANCH   1  28
ATOM     27  C   UNL     1       4.401   7.161  15.496  0.00  0.00    +0.000 C 
ATOM     28  C   UNL     1       4.840   7.415  16.952  0.00  0.00    +0.000 C 
BRANCH  28  29
ATOM     29  C   UNL     1       6.042   6.523  17.345  0.00  0.00    +0.000 C 
BRANCH  29  30
ATOM     30  C   UNL     1       6.533   5.662  16.230  0.00  0.00    +0.000 A 
ATOM     31  N   UNL     1       7.540   5.913  15.418  0.00  0.00    +0.000 NA
ATOM     32  N   UNL     1       7.603   4.906  14.485  0.00  0.00    +0.000 NA
ATOM     33  C   UNL     1       6.660   4.040  14.773  0.00  0.00    +0.000 A 
ATOM     34  N   UNL     1       5.989   4.454  15.880  0.00  0.00    +0.000 N 
ATOM     35  C   UNL     1       4.937   3.742  16.553  0.00  0.00    +0.000 C 
ENDBRANCH  29  30
ENDBRANCH  28  29
ENDBRANCH   1  28
TORSDOF 5
ENDMDL
MODEL 7
REMARK VINA RESULT:      -8.0      0.728      1.095
REMARK  Name = 
REMARK  7 active torsions:
REMARK  status: ('A' for Active; 'I' for Inactive)
REMARK    1  A    between atoms: C_1  and  C_2
REMARK    2  A    between atoms: C_2  and  C_3
REMARK    3  A    between atoms: C_2  and  C_10
REMARK    4  A    between atoms: C_3  and  C_4
REMARK    5  A    between atoms: N_8  and  C_9
REMARK    6  A    between atoms: C_12  and  C_13
REMARK    7  A    between atoms: C_28  and  C_29
REMARK                            x       y       z     vdW  Elec       q    Type
REMARK                         _______ _______ _______ _____ _____    ______ ____
ROOT
ATOM      1  C   UNL     1       3.772   6.876  17.605  0.00  0.00    +0.000 A 
ATOM      2  C   UNL     1       3.732   5.685  18.330  0.00  0.00    +0.000 A 
ATOM      3  C   UNL     1       2.919   5.582  19.456  0.00  0.00    +0.000 A 
ATOM      4  N   UNL     1       2.176   6.622  19.904  0.00  0.00    +0.000 NA
ATOM      5  C   UNL     1       2.212   7.787  19.233  0.00  0.00    +0.000 A 
ATOM      6  N   UNL     1       1.473   8.895  19.706  0.00  0.00    +0.000 N 
ATOM      7  C   UNL     1       1.376  10.139  18.968  0.00  0.00    +0.000 C 
ATOM      8  C   UNL     1       0.489  10.984  19.819  0.00  0.00    +0.000 A 
ATOM      9  C   UNL     1       0.167  10.282  20.978  0.00  0.00    +0.000 A 
ATOM     10  C   UNL     1      -0.617  10.819  21.979  0.00  0.00    +0.000 A 
ATOM     11  C   UNL     1      -1.100  12.114  21.793  0.00  0.00    +0.000 A 
ATOM     12  C   UNL     1      -0.800  12.829  20.618  0.00  0.00    +0.000 A 
ATOM     13  C   UNL     1       0.003  12.271  19.603  0.00  0.00    +0.000 A 
ATOM     14  C   UNL     1       0.777   8.944  20.908  0.00  0.00    +0.000 C 
ATOM     15  O   UNL     1       0.627   8.127  21.798  0.00  0.00    +0.000 OA
ATOM     16  C   UNL     1       2.976   7.925  18.075  0.00  0.00    +0.000 A 
ENDROOT
BRANCH   3  17
ATOM     17  C   UNL     1       2.828   4.315  20.216  0.00  0.00    +0.000 C 
ATOM     18  C   UNL     1       3.741   3.333  20.084  0.00  0.00    +0.000 C 
ATOM     19  C   UNL     1       3.706   2.068  20.891  0.00  0.00    +0.000 C 
ATOM     20  O   UNL     1       2.780   2.136  21.982  0.00  0.00    +0.000 OA
ATOM     21  C   UNL     1       1.519   2.656  21.564  0.00  0.00    +0.000 C 
ATOM     22  C   UNL     1       1.677   4.123  21.169  0.00  0.00    +0.000 C 
ENDBRANCH   3  17
BRANCH  13  23
ATOM     23  C   UNL     1       0.284  13.053  18.347  0.00  0.00    +0.000 C 
ATOM     24  F   UNL     1      -0.554  12.748  17.316  0.00  0.00    +0.000 F 
ATOM     25  F   UNL     1       0.164  14.395  18.534  0.00  0.00    +0.000 F 
ATOM     26  F   UNL     1       1.543  12.848  17.872  0.00  0.00    +0.000 F 
ENDBRANCH  13  23
BRANCH   1  28
ATOM     27  C   UNL     1       4.800   5.701  15.575  0.00  0.00    +0.000 C 
ATOM     28  C   UNL     1       4.683   7.008  16.385  0.00  0.00    +0.000 C 
BRANCH  28  29
ATOM     29  C   UNL     1       6.076   7.540  16.804  0.00  0.00    +0.000 C 
BRANCH  29  30
ATOM     30  C   UNL     1       6.862   6.570  17.619  0.00  0.00    +0.000 A 
ATOM     31  N   UNL     1       6.712   5.261  17.658  0.00  0.00    +0.000 NA
ATOM     32  N   UNL     1       7.579   4.756  18.597  0.00  0.00    +0.000 NA
ATOM     33  C   UNL     1       8.268   5.761  19.081  0.00  0.00    +0.000 A 
ATOM     34  N   UNL     1       7.879   6.912  18.472  0.00  0.00    +0.000 N 
ATOM     35  C   UNL     1       8.449   8.216  18.673  0.00  0.00    +0.000 C 
ENDBRANCH  29  30
ENDBRANCH  28  29
ENDBRANCH   1  28
TORSDOF 5
ENDMDL
MODEL 8
REMARK VINA RESULT:      -8.0      1.641      1.946
REMARK  Name = 
REMARK  7 active torsions:
REMARK  status: ('A' for Active; 'I' for Inactive)
REMARK    1  A    between atoms: C_1  and  C_2
REMARK    2  A    between atoms: C_2  and  C_3
REMARK    3  A    between atoms: C_2  and  C_10
REMARK    4  A    between atoms: C_3  and  C_4
REMARK    5  A    between atoms: N_8  and  C_9
REMARK    6  A    between atoms: C_12  and  C_13
REMARK    7  A    between atoms: C_28  and  C_29
REMARK                            x       y       z     vdW  Elec       q    Type
REMARK                         _______ _______ _______ _____ _____    ______ ____
ROOT
ATOM      1  C   UNL     1       4.108   6.724  17.167  0.00  0.00    +0.000 A 
ATOM      2  C   UNL     1       3.632   5.514  17.673  0.00  0.00    +0.000 A 
ATOM      3  C   UNL     1       2.592   5.507  18.598  0.00  0.00    +0.000 A 
ATOM      4  N   UNL     1       2.036   6.652  19.064  0.00  0.00    +0.000 NA
ATOM      5  C   UNL     1       2.490   7.831  18.606  0.00  0.00    +0.000 A 
ATOM      6  N   UNL     1       1.949   9.037  19.105  0.00  0.00    +0.000 N 
ATOM      7  C   UNL     1       2.311  10.335  18.571  0.00  0.00    +0.000 C 
ATOM      8  C   UNL     1       1.485  11.287  19.369  0.00  0.00    +0.000 A 
ATOM      9  C   UNL     1       0.761  10.573  20.321  0.00  0.00    +0.000 A 
ATOM     10  C   UNL     1      -0.073  11.186  21.235  0.00  0.00    +0.000 A 
ATOM     11  C   UNL     1      -0.184  12.575  21.172  0.00  0.00    +0.000 A 
ATOM     12  C   UNL     1       0.525  13.308  20.202  0.00  0.00    +0.000 A 
ATOM     13  C   UNL     1       1.375  12.672  19.276  0.00  0.00    +0.000 A 
ATOM     14  C   UNL     1       1.040   9.137  20.151  0.00  0.00    +0.000 C 
ATOM     15  O   UNL     1       0.511   8.297  20.857  0.00  0.00    +0.000 OA
ATOM     16  C   UNL     1       3.500   7.887  17.644  0.00  0.00    +0.000 A 
ENDROOT
BRANCH   3  17
ATOM     17  C   UNL     1       2.042   4.235  19.117  0.00  0.00    +0.000 C 
ATOM     18  C   UNL     1       1.381   3.365  18.326  0.00  0.00    +0.000 C 
ATOM     19  C   UNL     1       0.870   2.041  18.813  0.00  0.00    +0.000 C 
ATOM     20  O   UNL     1       1.387   1.691  20.103  0.00  0.00    +0.000 OA
ATOM     21  C   UNL     1       1.291   2.782  21.017  0.00  0.00    +0.000 C 
ATOM     22  C   UNL     1       2.229   3.904  20.574  0.00  0.00    +0.000 C 
ENDBRANCH   3  17
BRANCH  13  23
ATOM     23  C   UNL     1       2.099  13.483  18.234  0.00  0.00    +0.000 C 
ATOM     24  F   UNL     1       1.745  14.799  18.224  0.00  0.00    +0.000 F 
ATOM     25  F   UNL     1       3.448  13.467  18.411  0.00  0.00    +0.000 F 
ATOM     26  F   UNL     1       1.878  13.031  16.970  0.00  0.00    +0.000 F 
ENDBRANCH  13  23
BRANCH   1  28
ATOM     27  C   UNL     1       4.950   5.996  14.860  0.00  0.00    +0.000 C 
ATOM     28  C   UNL     1       5.269   6.742  16.172  0.00  0.00    +0.000 C 
BRANCH  28  29
ATOM     29  C   UNL     1       6.558   6.197  16.833  0.00  0.00    +0.000 C 
BRANCH  29  30
ATOM     30  C   UNL     1       7.346   7.241  17.551  0.00  0.00    +0.000 A 
ATOM     31  N   UNL     1       7.476   8.509  17.213  0.00  0.00    +0.000 NA
ATOM     32  N   UNL     1       8.350   9.101  18.092  0.00  0.00    +0.000 NA
ATOM     33  C   UNL     1       8.703   8.194  18.971  0.00  0.00    +0.000 A 
ATOM     34  N   UNL     1       8.070   7.024  18.694  0.00  0.00    +0.000 N 
ATOM     35  C   UNL     1       8.136   5.816  19.470  0.00  0.00    +0.000 C 
ENDBRANCH  29  30
ENDBRANCH  28  29
ENDBRANCH   1  28
TORSDOF 5
ENDMDL
MODEL 9
REMARK VINA RESULT:      -8.0      1.331      1.850
REMARK  Name = 
REMARK  7 active torsions:
REMARK  status: ('A' for Active; 'I' for Inactive)
REMARK    1  A    between atoms: C_1  and  C_2
REMARK    2  A    between atoms: C_2  and  C_3
REMARK    3  A    between atoms: C_2  and  C_10
REMARK    4  A    between atoms: C_3  and  C_4
REMARK    5  A    between atoms: N_8  and  C_9
REMARK    6  A    between atoms: C_12  and  C_13
REMARK    7  A    between atoms: C_28  and  C_29
REMARK                            x       y       z     vdW  Elec       q    Type
REMARK                         _______ _______ _______ _____ _____    ______ ____
ROOT
ATOM      1  C   UNL     1       4.007   6.819  17.316  0.00  0.00    +0.000 A 
ATOM      2  C   UNL     1       3.545   5.600  17.813  0.00  0.00    +0.000 A 
ATOM      3  C   UNL     1       2.503   5.574  18.735  0.00  0.00    +0.000 A 
ATOM      4  N   UNL     1       1.929   6.709  19.205  0.00  0.00    +0.000 NA
ATOM      5  C   UNL     1       2.370   7.897  18.755  0.00  0.00    +0.000 A 
ATOM      6  N   UNL     1       1.811   9.092  19.260  0.00  0.00    +0.000 N 
ATOM      7  C   UNL     1       2.158  10.398  18.734  0.00  0.00    +0.000 C 
ATOM      8  C   UNL     1       1.316  11.334  19.534  0.00  0.00    +0.000 A 
ATOM      9  C   UNL     1       0.599  10.606  20.480  0.00  0.00    +0.000 A 
ATOM     10  C   UNL     1      -0.246  11.202  21.395  0.00  0.00    +0.000 A 
ATOM     11  C   UNL     1      -0.376  12.590  21.339  0.00  0.00    +0.000 A 
ATOM     12  C   UNL     1       0.327  13.338  20.376  0.00  0.00    +0.000 A 
ATOM     13  C   UNL     1       1.188  12.718  19.449  0.00  0.00    +0.000 A 
ATOM     14  C   UNL     1       0.897   9.175  20.303  0.00  0.00    +0.000 C 
ATOM     15  O   UNL     1       0.376   8.324  21.002  0.00  0.00    +0.000 OA
ATOM     16  C   UNL     1       3.381   7.972  17.798  0.00  0.00    +0.000 A 
ENDROOT
BRANCH   3  17
ATOM     17  C   UNL     1       1.967   4.292  19.244  0.00  0.00    +0.000 C 
ATOM     18  C   UNL     1       1.305   3.426  18.451  0.00  0.00    +0.000 C 
ATOM     19  C   UNL     1       0.808   2.093  18.928  0.00  0.00    +0.000 C 
ATOM     20  O   UNL     1       1.342   1.732  20.208  0.00  0.00    +0.000 OA
ATOM     21  C   UNL     1       1.248   2.812  21.136  0.00  0.00    +0.000 C 
ATOM     22  C   UNL     1       2.173   3.946  20.696  0.00  0.00    +0.000 C 
ENDBRANCH   3  17
BRANCH  13  23
ATOM     23  C   UNL     1       1.905  13.545  18.414  0.00  0.00    +0.000 C 
ATOM     24  F   UNL     1       1.761  13.073  17.144  0.00  0.00    +0.000 F 
ATOM     25  F   UNL     1       1.462  14.831  18.381  0.00  0.00    +0.000 F 
ATOM     26  F   UNL     1       3.246  13.612  18.633  0.00  0.00    +0.000 F 
ENDBRANCH  13  23
BRANCH   1  28
ATOM     27  C   UNL     1       4.711   7.031  14.863  0.00  0.00    +0.000 C 
ATOM     28  C   UNL     1       5.171   6.858  16.324  0.00  0.00    +0.000 C 
BRANCH  28  29
ATOM     29  C   UNL     1       6.067   5.607  16.492  0.00  0.00    +0.000 C 
BRANCH  29  30
ATOM     30  C   UNL     1       6.923   5.647  17.713  0.00  0.00    +0.000 A 
ATOM     31  N   UNL     1       7.141   4.663  18.561  0.00  0.00    +0.000 NA
ATOM     32  N   UNL     1       7.918   5.143  19.587  0.00  0.00    +0.000 NA
ATOM     33  C   UNL     1       8.193   6.398  19.323  0.00  0.00    +0.000 A 
ATOM     34  N   UNL     1       7.621   6.747  18.141  0.00  0.00    +0.000 N 
ATOM     35  C   UNL     1       7.753   8.012  17.471  0.00  0.00    +0.000 C 
ENDBRANCH  29  30
ENDBRANCH  28  29
ENDBRANCH   1  28
TORSDOF 5
ENDMDL
