MODEL 1
REMARK VINA RESULT:      -9.1      0.000      0.000
REMARK  Name = 
REMARK  4 active torsions:
REMARK  status: ('A' for Active; 'I' for Inactive)
REMARK    1  A    between atoms: O_1  and  C_2
REMARK    2  A    between atoms: N_5  and  C_6
REMARK    3  A    between atoms: N_9  and  C_10
REMARK    4  A    between atoms: N_25  and  C_26
REMARK                            x       y       z     vdW  Elec       q    Type
REMARK                         _______ _______ _______ _____ _____    ______ ____
ROOT
ATOM      1  C   UNL     1       0.044  12.572  20.109  0.00  0.00    +0.000 A 
ATOM      2  C   UNL     1      -0.549  11.314  20.029  0.00  0.00    +0.000 A 
ATOM      3  C   UNL     1       0.052  10.323  19.257  0.00  0.00    +0.000 A 
ATOM      4  C   UNL     1       1.254  10.567  18.605  0.00  0.00    +0.000 A 
ATOM      5  N   UNL     1       1.921   9.561  17.911  0.00  0.00    +0.000 N 
ATOM      6  C   UNL     1       2.163   8.277  18.400  0.00  0.00    +0.000 A 
ATOM      7  N   UNL     1       1.601   7.895  19.567  0.00  0.00    +0.000 NA
ATOM      8  C   UNL     1       1.863   6.679  20.084  0.00  0.00    +0.000 A 
ATOM      9  C   UNL     1       2.667   5.809  19.372  0.00  0.00    +0.000 A 
ATOM     10  C   UNL     1       3.162   4.493  19.536  0.00  0.00    +0.000 A 
ATOM     11  C   UNL     1       3.228   3.564  20.578  0.00  0.00    +0.000 A 
ATOM     12  C   UNL     1       3.566   2.271  20.210  0.00  0.00    +0.000 A 
ATOM     13  N   UNL     1       3.727   1.850  18.937  0.00  0.00    +0.000 NA
ATOM     14  C   UNL     1       3.722   2.760  17.940  0.00  0.00    +0.000 A 
ATOM     15  C   UNL     1       3.588   4.101  18.265  0.00  0.00    +0.000 A 
ATOM     16  N   UNL     1       3.905   5.277  17.605  0.00  0.00    +0.000 N 
ATOM     17  C   UNL     1       3.146   6.283  18.161  0.00  0.00    +0.000 A 
ATOM     18  N   UNL     1       2.989   7.516  17.662  0.00  0.00    +0.000 NA
ATOM     19  N   UNL     1       1.829  11.787  18.618  0.00  0.00    +0.000 NA
ATOM     20  C   UNL     1       1.220  12.742  19.366  0.00  0.00    +0.000 A 
ATOM     21  H   UNL     1       2.748   9.907  17.450  0.00  0.00    +0.000 HD
ENDROOT
BRANCH   1  25
ATOM     22  C   UNL     1      -1.472  15.821  22.464  0.00  0.00    +0.000 C 
ATOM     23  C   UNL     1      -2.322  15.053  21.413  0.00  0.00    +0.000 C 
ATOM     24  C   UNL     1      -1.896  13.600  21.233  0.00  0.00    +0.000 C 
ATOM     25  N   UNL     1      -0.492  13.616  20.859  0.00  0.00    +0.000 N 
ATOM     26  C   UNL     1       0.377  14.113  21.934  0.00  0.00    +0.000 C 
ATOM     27  C   UNL     1       0.031  15.579  22.147  0.00  0.00    +0.000 C 
BRANCH  22  31
ATOM     28  C   UNL     1      -3.933  16.556  24.314  0.00  0.00    +0.000 C 
ATOM     29  C   UNL     1      -2.938  17.198  25.252  0.00  0.00    +0.000 C 
ATOM     30  C   UNL     1      -1.591  16.645  24.793  0.00  0.00    +0.000 C 
ATOM     31  N   UNL     1      -1.831  15.500  23.873  0.00  0.00    +0.000 NA
ATOM     32  C   UNL     1      -3.274  15.209  24.055  0.00  0.00    +0.000 C 
BRANCH  28  33
ATOM     33  O   UNL     1      -5.212  16.428  24.909  0.00  0.00    +0.000 OA
ATOM     34  H   UNL     1      -5.256  15.545  25.313  0.00  0.00    +0.000 HD
ENDBRANCH  28  33
ENDBRANCH  22  31
ENDBRANCH   1  25
BRANCH  16  35
ATOM     35  C   UNL     1       5.203   5.568  16.998  0.00  0.00    +0.000 C 
ATOM     36  C   UNL     1       6.334   4.898  17.795  0.00  0.00    +0.000 C 
ATOM     37  C   UNL     1       7.503   4.814  16.834  0.00  0.00    +0.000 C 
ATOM     38  C   UNL     1       6.896   4.738  15.440  0.00  0.00    +0.000 C 
ATOM     39  C   UNL     1       5.421   5.119  15.556  0.00  0.00    +0.000 C 
ENDBRANCH  16  35
TORSDOF 4
ENDMDL
MODEL 2
REMARK VINA RESULT:      -9.0      0.772      1.159
REMARK  Name = 
REMARK  4 active torsions:
REMARK  status: ('A' for Active; 'I' for Inactive)
REMARK    1  A    between atoms: O_1  and  C_2
REMARK    2  A    between atoms: N_5  and  C_6
REMARK    3  A    between atoms: N_9  and  C_10
REMARK    4  A    between atoms: N_25  and  C_26
REMARK                            x       y       z     vdW  Elec       q    Type
REMARK                         _______ _______ _______ _____ _____    ______ ____
ROOT
ATOM      1  C   UNL     1       0.070  12.427  20.520  0.00  0.00    +0.000 A 
ATOM      2  C   UNL     1      -0.528  11.175  20.395  0.00  0.00    +0.000 A 
ATOM      3  C   UNL     1       0.051  10.220  19.562  0.00  0.00    +0.000 A 
ATOM      4  C   UNL     1       1.238  10.493  18.893  0.00  0.00    +0.000 A 
ATOM      5  N   UNL     1       1.884   9.521  18.136  0.00  0.00    +0.000 N 
ATOM      6  C   UNL     1       2.136   8.215  18.557  0.00  0.00    +0.000 A 
ATOM      7  N   UNL     1       1.602   7.779  19.719  0.00  0.00    +0.000 NA
ATOM      8  C   UNL     1       1.873   6.539  20.171  0.00  0.00    +0.000 A 
ATOM      9  C   UNL     1       2.658   5.703  19.399  0.00  0.00    +0.000 A 
ATOM     10  C   UNL     1       3.154   4.380  19.488  0.00  0.00    +0.000 A 
ATOM     11  C   UNL     1       3.243   3.402  20.483  0.00  0.00    +0.000 A 
ATOM     12  C   UNL     1       3.569   2.129  20.046  0.00  0.00    +0.000 A 
ATOM     13  N   UNL     1       3.698   1.768  18.751  0.00  0.00    +0.000 NA
ATOM     14  C   UNL     1       3.670   2.724  17.798  0.00  0.00    +0.000 A 
ATOM     15  C   UNL     1       3.547   4.048  18.190  0.00  0.00    +0.000 A 
ATOM     16  N   UNL     1       3.851   5.254  17.578  0.00  0.00    +0.000 N 
ATOM     17  C   UNL     1       3.109   6.233  18.201  0.00  0.00    +0.000 A 
ATOM     18  N   UNL     1       2.941   7.489  17.764  0.00  0.00    +0.000 NA
ATOM     19  N   UNL     1       1.815  11.711  18.949  0.00  0.00    +0.000 NA
ATOM     20  C   UNL     1       1.227  12.630  19.757  0.00  0.00    +0.000 A 
ATOM     21  H   UNL     1       2.701   9.888  17.672  0.00  0.00    +0.000 HD
ENDROOT
BRANCH   1  25
ATOM     22  C   UNL     1      -1.580  15.430  23.100  0.00  0.00    +0.000 C 
ATOM     23  C   UNL     1      -0.497  15.724  22.025  0.00  0.00    +0.000 C 
ATOM     24  C   UNL     1      -0.569  14.790  20.821  0.00  0.00    +0.000 C 
ATOM     25  N   UNL     1      -0.445  13.435  21.331  0.00  0.00    +0.000 N 
ATOM     26  C   UNL     1      -1.588  13.034  22.163  0.00  0.00    +0.000 C 
ATOM     27  C   UNL     1      -1.560  13.906  23.410  0.00  0.00    +0.000 C 
BRANCH  22  31
ATOM     28  C   UNL     1      -4.012  16.555  24.784  0.00  0.00    +0.000 C 
ATOM     29  C   UNL     1      -4.837  15.432  24.200  0.00  0.00    +0.000 C 
ATOM     30  C   UNL     1      -4.003  14.940  23.020  0.00  0.00    +0.000 C 
ATOM     31  N   UNL     1      -2.933  15.936  22.740  0.00  0.00    +0.000 NA
ATOM     32  C   UNL     1      -3.344  17.117  23.537  0.00  0.00    +0.000 C 
BRANCH  28  33
ATOM     33  O   UNL     1      -4.818  17.513  25.445  0.00  0.00    +0.000 OA
ATOM     34  H   UNL     1      -5.615  17.645  24.903  0.00  0.00    +0.000 HD
ENDBRANCH  28  33
ENDBRANCH  22  31
ENDBRANCH   1  25
BRANCH  16  35
ATOM     35  C   UNL     1       5.134   5.572  16.954  0.00  0.00    +0.000 C 
ATOM     36  C   UNL     1       6.293   4.965  17.762  0.00  0.00    +0.000 C 
ATOM     37  C   UNL     1       7.458   4.894  16.796  0.00  0.00    +0.000 C 
ATOM     38  C   UNL     1       6.846   4.756  15.409  0.00  0.00    +0.000 C 
ATOM     39  C   UNL     1       5.358   5.088  15.524  0.00  0.00    +0.000 C 
ENDBRANCH  16  35
TORSDOF 4
ENDMDL
MODEL 3
REMARK VINA RESULT:      -8.7      1.148      1.346
REMARK  Name = 
REMARK  4 active torsions:
REMARK  status: ('A' for Active; 'I' for Inactive)
REMARK    1  A    between atoms: O_1  and  C_2
REMARK    2  A    between atoms: N_5  and  C_6
REMARK    3  A    between atoms: N_9  and  C_10
REMARK    4  A    between atoms: N_25  and  C_26
REMARK                            x       y       z     vdW  Elec       q    Type
REMARK                         _______ _______ _______ _____ _____    ______ ____
ROOT
ATOM      1  C   UNL     1       0.193  12.748  20.011  0.00  0.00    +0.000 A 
ATOM      2  C   UNL     1      -0.433  11.507  19.932  0.00  0.00    +0.000 A 
ATOM      3  C   UNL     1       0.148  10.495  19.171  0.00  0.00    +0.000 A 
ATOM      4  C   UNL     1       1.363  10.702  18.531  0.00  0.00    +0.000 A 
ATOM      5  N   UNL     1       2.009   9.675  17.848  0.00  0.00    +0.000 N 
ATOM      6  C   UNL     1       2.211   8.387  18.346  0.00  0.00    +0.000 A 
ATOM      7  N   UNL     1       1.626   8.027  19.509  0.00  0.00    +0.000 NA
ATOM      8  C   UNL     1       1.849   6.807  20.035  0.00  0.00    +0.000 A 
ATOM      9  C   UNL     1       2.636   5.912  19.336  0.00  0.00    +0.000 A 
ATOM     10  C   UNL     1       3.093   4.583  19.511  0.00  0.00    +0.000 A 
ATOM     11  C   UNL     1       3.122   3.658  20.559  0.00  0.00    +0.000 A 
ATOM     12  C   UNL     1       3.428   2.355  20.201  0.00  0.00    +0.000 A 
ATOM     13  N   UNL     1       3.591   1.923  18.932  0.00  0.00    +0.000 NA
ATOM     14  C   UNL     1       3.621   2.827  17.930  0.00  0.00    +0.000 A 
ATOM     15  C   UNL     1       3.520   4.173  18.247  0.00  0.00    +0.000 A 
ATOM     16  N   UNL     1       3.877   5.336  17.584  0.00  0.00    +0.000 N 
ATOM     17  C   UNL     1       3.141   6.366  18.128  0.00  0.00    +0.000 A 
ATOM     18  N   UNL     1       3.022   7.600  17.621  0.00  0.00    +0.000 NA
ATOM     19  N   UNL     1       1.971  11.906  18.543  0.00  0.00    +0.000 NA
ATOM     20  C   UNL     1       1.381  12.881  19.280  0.00  0.00    +0.000 A 
ATOM     21  H   UNL     1       2.850   9.996  17.395  0.00  0.00    +0.000 HD
ENDROOT
BRANCH   1  25
ATOM     22  C   UNL     1      -1.360  16.109  22.177  0.00  0.00    +0.000 C 
ATOM     23  C   UNL     1      -1.551  14.635  22.630  0.00  0.00    +0.000 C 
ATOM     24  C   UNL     1      -0.413  13.715  22.198  0.00  0.00    +0.000 C 
ATOM     25  N   UNL     1      -0.321  13.810  20.750  0.00  0.00    +0.000 N 
ATOM     26  C   UNL     1       0.101  15.142  20.294  0.00  0.00    +0.000 C 
ATOM     27  C   UNL     1      -1.010  16.113  20.662  0.00  0.00    +0.000 C 
BRANCH  22  31
ATOM     28  C   UNL     1      -1.410  17.235  25.135  0.00  0.00    +0.000 C 
ATOM     29  C   UNL     1      -1.188  18.604  24.536  0.00  0.00    +0.000 C 
ATOM     30  C   UNL     1      -0.728  18.311  23.110  0.00  0.00    +0.000 C 
ATOM     31  N   UNL     1      -0.382  16.867  23.006  0.00  0.00    +0.000 NA
ATOM     32  C   UNL     1      -0.344  16.418  24.419  0.00  0.00    +0.000 C 
BRANCH  28  33
ATOM     33  O   UNL     1      -1.235  17.239  26.540  0.00  0.00    +0.000 OA
ATOM     34  H   UNL     1      -0.287  17.114  26.715  0.00  0.00    +0.000 HD
ENDBRANCH  28  33
ENDBRANCH  22  31
ENDBRANCH   1  25
BRANCH  16  35
ATOM     35  C   UNL     1       5.189   5.588  16.990  0.00  0.00    +0.000 C 
ATOM     36  C   UNL     1       6.291   4.881  17.795  0.00  0.00    +0.000 C 
ATOM     37  C   UNL     1       7.466   4.764  16.844  0.00  0.00    +0.000 C 
ATOM     38  C   UNL     1       6.869   4.710  15.444  0.00  0.00    +0.000 C 
ATOM     39  C   UNL     1       5.405   5.135  15.548  0.00  0.00    +0.000 C 
ENDBRANCH  16  35
TORSDOF 4
ENDMDL
MODEL 4
REMARK VINA RESULT:      -8.5      1.703      3.491
REMARK  Name = 
REMARK  4 active torsions:
REMARK  status: ('A' for Active; 'I' for Inactive)
REMARK    1  A    between atoms: O_1  and  C_2
REMARK    2  A    between atoms: N_5  and  C_6
REMARK    3  A    between atoms: N_9  and  C_10
REMARK    4  A    between atoms: N_25  and  C_26
REMARK                            x       y       z     vdW  Elec       q    Type
REMARK                         _______ _______ _______ _____ _____    ______ ____
ROOT
ATOM      1  C   UNL     1      -0.571  10.637  21.557  0.00  0.00    +0.000 A 
ATOM      2  C   UNL     1       0.766  10.754  21.184  0.00  0.00    +0.000 A 
ATOM      3  C   UNL     1       1.538   9.604  21.035  0.00  0.00    +0.000 A 
ATOM      4  C   UNL     1       0.973   8.347  21.213  0.00  0.00    +0.000 A 
ATOM      5  N   UNL     1       1.700   7.185  20.971  0.00  0.00    +0.000 N 
ATOM      6  C   UNL     1       2.476   6.947  19.837  0.00  0.00    +0.000 A 
ATOM      7  N   UNL     1       2.681   7.948  18.952  0.00  0.00    +0.000 NA
ATOM      8  C   UNL     1       3.383   7.727  17.823  0.00  0.00    +0.000 A 
ATOM      9  C   UNL     1       3.938   6.478  17.616  0.00  0.00    +0.000 A 
ATOM     10  C   UNL     1       4.724   5.851  16.619  0.00  0.00    +0.000 A 
ATOM     11  C   UNL     1       5.116   6.149  15.311  0.00  0.00    +0.000 A 
ATOM     12  C   UNL     1       6.129   5.358  14.793  0.00  0.00    +0.000 A 
ATOM     13  N   UNL     1       6.806   4.420  15.490  0.00  0.00    +0.000 NA
ATOM     14  C   UNL     1       6.387   4.095  16.731  0.00  0.00    +0.000 A 
ATOM     15  C   UNL     1       5.250   4.712  17.230  0.00  0.00    +0.000 A 
ATOM     16  N   UNL     1       4.351   4.383  18.231  0.00  0.00    +0.000 N 
ATOM     17  C   UNL     1       3.712   5.542  18.612  0.00  0.00    +0.000 A 
ATOM     18  N   UNL     1       2.941   5.695  19.697  0.00  0.00    +0.000 NA
ATOM     19  N   UNL     1      -0.302   8.198  21.624  0.00  0.00    +0.000 NA
ATOM     20  C   UNL     1      -1.033   9.332  21.775  0.00  0.00    +0.000 A 
ATOM     21  H   UNL     1       1.170   6.357  21.196  0.00  0.00    +0.000 HD
ENDROOT
BRANCH   1  25
ATOM     22  C   UNL     1      -3.086  14.088  21.969  0.00  0.00    +0.000 C 
ATOM     23  C   UNL     1      -3.356  12.738  22.691  0.00  0.00    +0.000 C 
ATOM     24  C   UNL     1      -2.088  11.947  22.994  0.00  0.00    +0.000 C 
ATOM     25  N   UNL     1      -1.409  11.736  21.726  0.00  0.00    +0.000 N 
ATOM     26  C   UNL     1      -0.918  12.986  21.129  0.00  0.00    +0.000 C 
ATOM     27  C   UNL     1      -2.140  13.816  20.765  0.00  0.00    +0.000 C 
BRANCH  22  31
ATOM     28  C   UNL     1      -4.504  16.118  23.940  0.00  0.00    +0.000 C 
ATOM     29  C   UNL     1      -3.883  17.226  23.122  0.00  0.00    +0.000 C 
ATOM     30  C   UNL     1      -2.800  16.521  22.310  0.00  0.00    +0.000 C 
ATOM     31  N   UNL     1      -2.588  15.160  22.874  0.00  0.00    +0.000 NA
ATOM     32  C   UNL     1      -3.306  15.208  24.171  0.00  0.00    +0.000 C 
BRANCH  28  33
ATOM     33  O   UNL     1      -5.058  16.602  25.150  0.00  0.00    +0.000 OA
ATOM     34  H   UNL     1      -5.754  15.979  25.419  0.00  0.00    +0.000 HD
ENDBRANCH  28  33
ENDBRANCH  22  31
ENDBRANCH   1  25
BRANCH  16  35
ATOM     35  C   UNL     1       3.688   3.087  18.363  0.00  0.00    +0.000 C 
ATOM     36  C   UNL     1       3.389   2.780  19.839  0.00  0.00    +0.000 C 
ATOM     37  C   UNL     1       2.287   1.740  19.816  0.00  0.00    +0.000 C 
ATOM     38  C   UNL     1       1.514   1.977  18.525  0.00  0.00    +0.000 C 
ATOM     39  C   UNL     1       2.352   2.905  17.647  0.00  0.00    +0.000 C 
ENDBRANCH  16  35
TORSDOF 4
ENDMDL
MODEL 5
REMARK VINA RESULT:      -8.5      2.122      3.698
REMARK  Name = 
REMARK  4 active torsions:
REMARK  status: ('A' for Active; 'I' for Inactive)
REMARK    1  A    between atoms: O_1  and  C_2
REMARK    2  A    between atoms: N_5  and  C_6
REMARK    3  A    between atoms: N_9  and  C_10
REMARK    4  A    between atoms: N_25  and  C_26
REMARK                            x       y       z     vdW  Elec       q    Type
REMARK                         _______ _______ _______ _____ _____    ______ ____
ROOT
ATOM      1  C   UNL     1      -0.598  10.816  21.544  0.00  0.00    +0.000 A 
ATOM      2  C   UNL     1       0.741  10.907  21.174  0.00  0.00    +0.000 A 
ATOM      3  C   UNL     1       1.494   9.742  21.039  0.00  0.00    +0.000 A 
ATOM      4  C   UNL     1       0.909   8.497  21.227  0.00  0.00    +0.000 A 
ATOM      5  N   UNL     1       1.617   7.320  21.000  0.00  0.00    +0.000 N 
ATOM      6  C   UNL     1       2.392   7.058  19.870  0.00  0.00    +0.000 A 
ATOM      7  N   UNL     1       2.615   8.046  18.976  0.00  0.00    +0.000 NA
ATOM      8  C   UNL     1       3.317   7.802  17.852  0.00  0.00    +0.000 A 
ATOM      9  C   UNL     1       3.852   6.543  17.658  0.00  0.00    +0.000 A 
ATOM     10  C   UNL     1       4.630   5.893  16.670  0.00  0.00    +0.000 A 
ATOM     11  C   UNL     1       5.031   6.170  15.360  0.00  0.00    +0.000 A 
ATOM     12  C   UNL     1       6.032   5.358  14.853  0.00  0.00    +0.000 A 
ATOM     13  N   UNL     1       6.691   4.415  15.562  0.00  0.00    +0.000 NA
ATOM     14  C   UNL     1       6.263   4.110  16.805  0.00  0.00    +0.000 A 
ATOM     15  C   UNL     1       5.136   4.751  17.294  0.00  0.00    +0.000 A 
ATOM     16  N   UNL     1       4.228   4.447  18.296  0.00  0.00    +0.000 N 
ATOM     17  C   UNL     1       3.607   5.621  18.664  0.00  0.00    +0.000 A 
ATOM     18  N   UNL     1       2.836   5.797  19.744  0.00  0.00    +0.000 NA
ATOM     19  N   UNL     1      -0.370   8.373  21.636  0.00  0.00    +0.000 NA
ATOM     20  C   UNL     1      -1.082   9.521  21.774  0.00  0.00    +0.000 A 
ATOM     21  H   UNL     1       1.072   6.504  21.231  0.00  0.00    +0.000 HD
ENDROOT
BRANCH   1  25
ATOM     22  C   UNL     1      -3.121  14.229  22.168  0.00  0.00    +0.000 C 
ATOM     23  C   UNL     1      -2.481  13.874  20.796  0.00  0.00    +0.000 C 
ATOM     24  C   UNL     1      -2.257  12.378  20.601  0.00  0.00    +0.000 C 
ATOM     25  N   UNL     1      -1.419  11.930  21.700  0.00  0.00    +0.000 N 
ATOM     26  C   UNL     1      -2.092  12.024  23.003  0.00  0.00    +0.000 C 
ATOM     27  C   UNL     1      -2.317  13.502  23.283  0.00  0.00    +0.000 C 
BRANCH  22  31
ATOM     28  C   UNL     1      -5.669  16.083  22.458  0.00  0.00    +0.000 C 
ATOM     29  C   UNL     1      -5.991  15.313  23.717  0.00  0.00    +0.000 C 
ATOM     30  C   UNL     1      -5.118  14.065  23.618  0.00  0.00    +0.000 C 
ATOM     31  N   UNL     1      -4.584  13.962  22.232  0.00  0.00    +0.000 NA
ATOM     32  C   UNL     1      -5.390  14.953  21.477  0.00  0.00    +0.000 C 
BRANCH  28  33
ATOM     33  O   UNL     1      -6.750  16.900  22.048  0.00  0.00    +0.000 OA
ATOM     34  H   UNL     1      -7.219  17.185  22.851  0.00  0.00    +0.000 HD
ENDBRANCH  28  33
ENDBRANCH  22  31
ENDBRANCH   1  25
BRANCH  16  35
ATOM     35  C   UNL     1       3.543   3.163  18.438  0.00  0.00    +0.000 C 
ATOM     36  C   UNL     1       3.321   2.831  19.923  0.00  0.00    +0.000 C 
ATOM     37  C   UNL     1       2.195   1.817  19.941  0.00  0.00    +0.000 C 
ATOM     38  C   UNL     1       1.356   2.099  18.702  0.00  0.00    +0.000 C 
ATOM     39  C   UNL     1       2.165   3.028  17.796  0.00  0.00    +0.000 C 
ENDBRANCH  16  35
TORSDOF 4
ENDMDL
MODEL 6
REMARK VINA RESULT:      -8.4      0.894      1.183
REMARK  Name = 
REMARK  4 active torsions:
REMARK  status: ('A' for Active; 'I' for Inactive)
REMARK    1  A    between atoms: O_1  and  C_2
REMARK    2  A    between atoms: N_5  and  C_6
REMARK    3  A    between atoms: N_9  and  C_10
REMARK    4  A    between atoms: N_25  and  C_26
REMARK                            x       y       z     vdW  Elec       q    Type
REMARK                         _______ _______ _______ _____ _____    ______ ____
ROOT
ATOM      1  C   UNL     1      -0.212  12.290  19.997  0.00  0.00    +0.000 A 
ATOM      2  C   UNL     1      -0.736  11.030  19.717  0.00  0.00    +0.000 A 
ATOM      3  C   UNL     1       0.037  10.109  19.014  0.00  0.00    +0.000 A 
ATOM      4  C   UNL     1       1.335  10.422  18.631  0.00  0.00    +0.000 A 
ATOM      5  N   UNL     1       2.157   9.482  18.016  0.00  0.00    +0.000 N 
ATOM      6  C   UNL     1       2.341   8.171  18.456  0.00  0.00    +0.000 A 
ATOM      7  N   UNL     1       1.574   7.695  19.461  0.00  0.00    +0.000 NA
ATOM      8  C   UNL     1       1.770   6.450  19.937  0.00  0.00    +0.000 A 
ATOM      9  C   UNL     1       2.726   5.649  19.341  0.00  0.00    +0.000 A 
ATOM     10  C   UNL     1       3.223   4.335  19.511  0.00  0.00    +0.000 A 
ATOM     11  C   UNL     1       3.114   3.334  20.480  0.00  0.00    +0.000 A 
ATOM     12  C   UNL     1       3.560   2.078  20.101  0.00  0.00    +0.000 A 
ATOM     13  N   UNL     1       3.981   1.754  18.859  0.00  0.00    +0.000 NA
ATOM     14  C   UNL     1       4.141   2.733  17.944  0.00  0.00    +0.000 A 
ATOM     15  C   UNL     1       3.901   4.044  18.326  0.00  0.00    +0.000 A 
ATOM     16  N   UNL     1       4.303   5.270  17.821  0.00  0.00    +0.000 N 
ATOM     17  C   UNL     1       3.417   6.219  18.283  0.00  0.00    +0.000 A 
ATOM     18  N   UNL     1       3.320   7.481  17.847  0.00  0.00    +0.000 NA
ATOM     19  N   UNL     1       1.855  11.649  18.839  0.00  0.00    +0.000 NA
ATOM     20  C   UNL     1       1.080  12.536  19.514  0.00  0.00    +0.000 A 
ATOM     21  H   UNL     1       3.046   9.877  17.752  0.00  0.00    +0.000 HD
ENDROOT
BRANCH   1  25
ATOM     22  C   UNL     1      -2.262  15.347  22.199  0.00  0.00    +0.000 C 
ATOM     23  C   UNL     1      -2.941  14.475  21.107  0.00  0.00    +0.000 C 
ATOM     24  C   UNL     1      -2.332  13.083  20.976  0.00  0.00    +0.000 C 
ATOM     25  N   UNL     1      -0.918  13.267  20.694  0.00  0.00    +0.000 N 
ATOM     26  C   UNL     1      -0.189  13.873  21.817  0.00  0.00    +0.000 C 
ATOM     27  C   UNL     1      -0.723  15.288  21.984  0.00  0.00    +0.000 C 
BRANCH  22  31
ATOM     28  C   UNL     1      -4.879  15.869  23.902  0.00  0.00    +0.000 C 
ATOM     29  C   UNL     1      -3.997  16.592  24.893  0.00  0.00    +0.000 C 
ATOM     30  C   UNL     1      -2.584  16.155  24.515  0.00  0.00    +0.000 C 
ATOM     31  N   UNL     1      -2.673  14.996  23.586  0.00  0.00    +0.000 NA
ATOM     32  C   UNL     1      -4.095  14.583  23.686  0.00  0.00    +0.000 C 
BRANCH  28  33
ATOM     33  O   UNL     1      -6.174  15.632  24.423  0.00  0.00    +0.000 OA
ATOM     34  H   UNL     1      -6.282  14.669  24.504  0.00  0.00    +0.000 HD
ENDBRANCH  28  33
ENDBRANCH  22  31
ENDBRANCH   1  25
BRANCH  16  35
ATOM     35  C   UNL     1       5.684   5.629  17.504  0.00  0.00    +0.000 C 
ATOM     36  C   UNL     1       5.779   7.109  17.102  0.00  0.00    +0.000 C 
ATOM     37  C   UNL     1       7.232   7.488  17.311  0.00  0.00    +0.000 C 
ATOM     38  C   UNL     1       7.748   6.575  18.415  0.00  0.00    +0.000 C 
ATOM     39  C   UNL     1       6.726   5.456  18.607  0.00  0.00    +0.000 C 
ENDBRANCH  16  35
TORSDOF 4
ENDMDL
MODEL 7
REMARK VINA RESULT:      -8.1      1.237      1.834
REMARK  Name = 
REMARK  4 active torsions:
REMARK  status: ('A' for Active; 'I' for Inactive)
REMARK    1  A    between atoms: O_1  and  C_2
REMARK    2  A    between atoms: N_5  and  C_6
REMARK    3  A    between atoms: N_9  and  C_10
REMARK    4  A    between atoms: N_25  and  C_26
REMARK                            x       y       z     vdW  Elec       q    Type
REMARK                         _______ _______ _______ _____ _____    ______ ____
ROOT
ATOM      1  C   UNL     1      -0.351  11.839  21.216  0.00  0.00    +0.000 A 
ATOM      2  C   UNL     1      -0.877  10.591  20.890  0.00  0.00    +0.000 A 
ATOM      3  C   UNL     1      -0.174   9.759  20.021  0.00  0.00    +0.000 A 
ATOM      4  C   UNL     1       1.060  10.146  19.516  0.00  0.00    +0.000 A 
ATOM      5  N   UNL     1       1.822   9.290  18.727  0.00  0.00    +0.000 N 
ATOM      6  C   UNL     1       2.088   7.953  19.023  0.00  0.00    +0.000 A 
ATOM      7  N   UNL     1       1.459   7.368  20.066  0.00  0.00    +0.000 NA
ATOM      8  C   UNL     1       1.738   6.093  20.402  0.00  0.00    +0.000 A 
ATOM      9  C   UNL     1       2.633   5.379  19.629  0.00  0.00    +0.000 A 
ATOM     10  C   UNL     1       3.176   4.071  19.621  0.00  0.00    +0.000 A 
ATOM     11  C   UNL     1       3.207   2.988  20.504  0.00  0.00    +0.000 A 
ATOM     12  C   UNL     1       3.632   1.785  19.963  0.00  0.00    +0.000 A 
ATOM     13  N   UNL     1       3.906   1.581  18.657  0.00  0.00    +0.000 NA
ATOM     14  C   UNL     1       3.932   2.640  17.820  0.00  0.00    +0.000 A 
ATOM     15  C   UNL     1       3.712   3.905  18.342  0.00  0.00    +0.000 A 
ATOM     16  N   UNL     1       4.022   5.182  17.905  0.00  0.00    +0.000 N 
ATOM     17  C   UNL     1       3.178   6.059  18.551  0.00  0.00    +0.000 A 
ATOM     18  N   UNL     1       3.000   7.350  18.243  0.00  0.00    +0.000 NA
ATOM     19  N   UNL     1       1.574  11.367  19.769  0.00  0.00    +0.000 NA
ATOM     20  C   UNL     1       0.868  12.167  20.608  0.00  0.00    +0.000 A 
ATOM     21  H   UNL     1       2.664   9.734  18.395  0.00  0.00    +0.000 HD
ENDROOT
BRANCH   1  25
ATOM     22  C   UNL     1      -2.432  14.492  23.869  0.00  0.00    +0.000 C 
ATOM     23  C   UNL     1      -0.922  14.630  23.527  0.00  0.00    +0.000 C 
ATOM     24  C   UNL     1      -0.565  14.117  22.136  0.00  0.00    +0.000 C 
ATOM     25  N   UNL     1      -0.989  12.729  22.077  0.00  0.00    +0.000 N 
ATOM     26  C   UNL     1      -2.449  12.577  22.151  0.00  0.00    +0.000 C 
ATOM     27  C   UNL     1      -2.876  13.038  23.536  0.00  0.00    +0.000 C 
BRANCH  22  31
ATOM     28  C   UNL     1      -4.362  16.736  24.989  0.00  0.00    +0.000 C 
ATOM     29  C   UNL     1      -5.468  16.068  24.207  0.00  0.00    +0.000 C 
ATOM     30  C   UNL     1      -4.729  15.154  23.233  0.00  0.00    +0.000 C 
ATOM     31  N   UNL     1      -3.288  15.527  23.226  0.00  0.00    +0.000 NA
ATOM     32  C   UNL     1      -3.264  16.827  23.939  0.00  0.00    +0.000 C 
BRANCH  28  33
ATOM     33  O   UNL     1      -4.753  18.007  25.475  0.00  0.00    +0.000 OA
ATOM     34  H   UNL     1      -4.518  18.041  26.418  0.00  0.00    +0.000 HD
ENDBRANCH  28  33
ENDBRANCH  22  31
ENDBRANCH   1  25
BRANCH  16  35
ATOM     35  C   UNL     1       5.347   5.612  17.459  0.00  0.00    +0.000 C 
ATOM     36  C   UNL     1       5.357   7.123  17.174  0.00  0.00    +0.000 C 
ATOM     37  C   UNL     1       6.815   7.532  17.242  0.00  0.00    +0.000 C 
ATOM     38  C   UNL     1       7.481   6.552  18.198  0.00  0.00    +0.000 C 
ATOM     39  C   UNL     1       6.516   5.386  18.414  0.00  0.00    +0.000 C 
ENDBRANCH  16  35
TORSDOF 4
ENDMDL
MODEL 8
REMARK VINA RESULT:      -8.0      1.339      1.693
REMARK  Name = 
REMARK  4 active torsions:
REMARK  status: ('A' for Active; 'I' for Inactive)
REMARK    1  A    between atoms: O_1  and  C_2
REMARK    2  A    between atoms: N_5  and  C_6
REMARK    3  A    between atoms: N_9  and  C_10
REMARK    4  A    between atoms: N_25  and  C_26
REMARK                            x       y       z     vdW  Elec       q    Type
REMARK                         _______ _______ _______ _____ _____    ______ ____
ROOT
ATOM      1  C   UNL     1       1.018  13.603  19.808  0.00  0.00    +0.000 A 
ATOM      2  C   UNL     1       0.218  12.465  19.887  0.00  0.00    +0.000 A 
ATOM      3  C   UNL     1       0.562  11.335  19.148  0.00  0.00    +0.000 A 
ATOM      4  C   UNL     1       1.713  11.322  18.372  0.00  0.00    +0.000 A 
ATOM      5  N   UNL     1       2.127  10.172  17.705  0.00  0.00    +0.000 N 
ATOM      6  C   UNL     1       2.201   8.900  18.275  0.00  0.00    +0.000 A 
ATOM      7  N   UNL     1       1.707   8.700  19.516  0.00  0.00    +0.000 NA
ATOM      8  C   UNL     1       1.814   7.494  20.106  0.00  0.00    +0.000 A 
ATOM      9  C   UNL     1       2.383   6.452  19.398  0.00  0.00    +0.000 A 
ATOM     10  C   UNL     1       2.666   5.084  19.624  0.00  0.00    +0.000 A 
ATOM     11  C   UNL     1       2.683   4.228  20.730  0.00  0.00    +0.000 A 
ATOM     12  C   UNL     1       2.760   2.875  20.441  0.00  0.00    +0.000 A 
ATOM     13  N   UNL     1       2.716   2.349  19.197  0.00  0.00    +0.000 NA
ATOM     14  C   UNL     1       2.759   3.178  18.133  0.00  0.00    +0.000 A 
ATOM     15  C   UNL     1       2.886   4.540  18.357  0.00  0.00    +0.000 A 
ATOM     16  N   UNL     1       3.325   5.597  17.576  0.00  0.00    +0.000 N 
ATOM     17  C   UNL     1       2.807   6.754  18.114  0.00  0.00    +0.000 A 
ATOM     18  N   UNL     1       2.806   7.960  17.531  0.00  0.00    +0.000 NA
ATOM     19  N   UNL     1       2.482  12.421  18.231  0.00  0.00    +0.000 NA
ATOM     20  C   UNL     1       2.122  13.515  18.950  0.00  0.00    +0.000 A 
ATOM     21  H   UNL     1       2.948  10.338  17.144  0.00  0.00    +0.000 HD
ENDROOT
BRANCH   1  25
ATOM     22  C   UNL     1       0.171  17.124  22.106  0.00  0.00    +0.000 C 
ATOM     23  C   UNL     1       0.629  17.158  20.622  0.00  0.00    +0.000 C 
ATOM     24  C   UNL     1       0.201  15.930  19.826  0.00  0.00    +0.000 C 
ATOM     25  N   UNL     1       0.745  14.771  20.514  0.00  0.00    +0.000 N 
ATOM     26  C   UNL     1       0.146  14.566  21.841  0.00  0.00    +0.000 C 
ATOM     27  C   UNL     1       0.564  15.744  22.706  0.00  0.00    +0.000 C 
BRANCH  22  31
ATOM     28  C   UNL     1      -1.597  17.825  24.637  0.00  0.00    +0.000 C 
ATOM     29  C   UNL     1      -2.446  16.628  24.279  0.00  0.00    +0.000 C 
ATOM     30  C   UNL     1      -2.047  16.310  22.841  0.00  0.00    +0.000 C 
ATOM     31  N   UNL     1      -1.269  17.456  22.295  0.00  0.00    +0.000 NA
ATOM     32  C   UNL     1      -1.492  18.531  23.292  0.00  0.00    +0.000 C 
BRANCH  28  33
ATOM     33  O   UNL     1      -2.210  18.631  25.626  0.00  0.00    +0.000 OA
ATOM     34  H   UNL     1      -3.142  18.742  25.372  0.00  0.00    +0.000 HD
ENDBRANCH  28  33
ENDBRANCH  22  31
ENDBRANCH   1  25
BRANCH  16  35
ATOM     35  C   UNL     1       4.583   5.616  16.832  0.00  0.00    +0.000 C 
ATOM     36  C   UNL     1       5.735   6.094  17.730  0.00  0.00    +0.000 C 
ATOM     37  C   UNL     1       6.998   5.588  17.063  0.00  0.00    +0.000 C 
ATOM     38  C   UNL     1       6.597   4.331  16.303  0.00  0.00    +0.000 C 
ATOM     39  C   UNL     1       5.070   4.296  16.240  0.00  0.00    +0.000 C 
ENDBRANCH  16  35
TORSDOF 4
ENDMDL
MODEL 9
REMARK VINA RESULT:      -7.9      1.273      1.646
REMARK  Name = 
REMARK  4 active torsions:
REMARK  status: ('A' for Active; 'I' for Inactive)
REMARK    1  A    between atoms: O_1  and  C_2
REMARK    2  A    between atoms: N_5  and  C_6
REMARK    3  A    between atoms: N_9  and  C_10
REMARK    4  A    between atoms: N_25  and  C_26
REMARK                            x       y       z     vdW  Elec       q    Type
REMARK                         _______ _______ _______ _____ _____    ______ ____
ROOT
ATOM      1  C   UNL     1      -0.352  12.535  20.667  0.00  0.00    +0.000 A 
ATOM      2  C   UNL     1      -0.885  11.256  20.523  0.00  0.00    +0.000 A 
ATOM      3  C   UNL     1      -0.266  10.351  19.663  0.00  0.00    +0.000 A 
ATOM      4  C   UNL     1       0.896  10.699  18.988  0.00  0.00    +0.000 A 
ATOM      5  N   UNL     1       1.584   9.778  18.203  0.00  0.00    +0.000 N 
ATOM      6  C   UNL     1       1.908   8.478  18.594  0.00  0.00    +0.000 A 
ATOM      7  N   UNL     1       1.411   7.992  19.752  0.00  0.00    +0.000 NA
ATOM      8  C   UNL     1       1.753   6.759  20.176  0.00  0.00    +0.000 A 
ATOM      9  C   UNL     1       2.571   5.981  19.378  0.00  0.00    +0.000 A 
ATOM     10  C   UNL     1       3.137   4.685  19.433  0.00  0.00    +0.000 A 
ATOM     11  C   UNL     1       3.289   3.693  20.407  0.00  0.00    +0.000 A 
ATOM     12  C   UNL     1       3.675   2.447  19.940  0.00  0.00    +0.000 A 
ATOM     13  N   UNL     1       3.807   2.120  18.636  0.00  0.00    +0.000 NA
ATOM     14  C   UNL     1       3.718   3.093  17.704  0.00  0.00    +0.000 A 
ATOM     15  C   UNL     1       3.531   4.400  18.125  0.00  0.00    +0.000 A 
ATOM     16  N   UNL     1       3.764   5.632  17.535  0.00  0.00    +0.000 N 
ATOM     17  C   UNL     1       2.979   6.559  18.186  0.00  0.00    +0.000 A 
ATOM     18  N   UNL     1       2.741   7.812  17.778  0.00  0.00    +0.000 NA
ATOM     19  N   UNL     1       1.410  11.944  19.063  0.00  0.00    +0.000 NA
ATOM     20  C   UNL     1       0.784  12.815  19.896  0.00  0.00    +0.000 A 
ATOM     21  H   UNL     1       2.374  10.196  17.738  0.00  0.00    +0.000 HD
ENDROOT
BRANCH   1  25
ATOM     22  C   UNL     1      -2.035  15.417  23.361  0.00  0.00    +0.000 C 
ATOM     23  C   UNL     1      -1.772  15.701  21.856  0.00  0.00    +0.000 C 
ATOM     24  C   UNL     1      -1.866  14.457  20.979  0.00  0.00    +0.000 C 
ATOM     25  N   UNL     1      -0.909  13.498  21.505  0.00  0.00    +0.000 N 
ATOM     26  C   UNL     1      -1.265  13.017  22.847  0.00  0.00    +0.000 C 
ATOM     27  C   UNL     1      -1.158  14.206  23.790  0.00  0.00    +0.000 C 
BRANCH  22  31
ATOM     28  C   UNL     1      -3.857  12.893  23.932  0.00  0.00    +0.000 C 
ATOM     29  C   UNL     1      -4.707  13.339  22.766  0.00  0.00    +0.000 C 
ATOM     30  C   UNL     1      -4.276  14.783  22.527  0.00  0.00    +0.000 C 
ATOM     31  N   UNL     1      -3.476  15.244  23.695  0.00  0.00    +0.000 NA
ATOM     32  C   UNL     1      -3.715  14.192  24.713  0.00  0.00    +0.000 C 
BRANCH  28  33
ATOM     33  O   UNL     1      -4.488  11.875  24.687  0.00  0.00    +0.000 OA
ATOM     34  H   UNL     1      -4.132  11.920  25.590  0.00  0.00    +0.000 HD
ENDBRANCH  28  33
ENDBRANCH  22  31
ENDBRANCH   1  25
BRANCH  16  35
ATOM     35  C   UNL     1       5.021   6.030  16.904  0.00  0.00    +0.000 C 
ATOM     36  C   UNL     1       6.190   5.889  17.892  0.00  0.00    +0.000 C 
ATOM     37  C   UNL     1       7.434   5.808  17.029  0.00  0.00    +0.000 C 
ATOM     38  C   UNL     1       6.987   5.205  15.704  0.00  0.00    +0.000 C 
ATOM     39  C   UNL     1       5.460   5.255  15.664  0.00  0.00    +0.000 C 
ENDBRANCH  16  35
TORSDOF 4
ENDMDL
