MODEL 1
REMARK VINA RESULT:      -7.7      0.000      0.000
REMARK  Name = 
REMARK  1 active torsions:
REMARK  status: ('A' for Active; 'I' for Inactive)
REMARK    1  A    between atoms: C_4  and  C_5
REMARK                            x       y       z     vdW  Elec       q    Type
REMARK                         _______ _______ _______ _____ _____    ______ ____
ROOT
ATOM      1  O   UNL     1       8.749   3.933  18.189  0.00  0.00    +0.000 OA
ATOM      2  C   UNL     1       7.693   4.546  18.061  0.00  0.00    +0.000 C 
ATOM      3  C   UNL     1       7.592   5.871  17.352  0.00  0.00    +0.000 C 
ATOM      4  C   UNL     1       6.239   6.041  16.649  0.00  0.00    +0.000 C 
ATOM      5  C   UNL     1       5.104   5.549  17.517  0.00  0.00    +0.000 C 
ATOM      6  C   UNL     1       5.280   4.614  18.468  0.00  0.00    +0.000 C 
ATOM      7  N   UNL     1       6.540   4.086  18.645  0.00  0.00    +0.000 N 
ATOM      8  C   UNL     1       4.149   4.094  19.275  0.00  0.00    +0.000 A 
ATOM      9  C   UNL     1       4.325   3.135  20.291  0.00  0.00    +0.000 A 
ATOM     10  C   UNL     1       3.239   2.630  21.016  0.00  0.00    +0.000 A 
ATOM     11  C   UNL     1       1.951   3.081  20.753  0.00  0.00    +0.000 A 
ATOM     12  C   UNL     1       1.751   4.046  19.772  0.00  0.00    +0.000 A 
ATOM     13  C   UNL     1       2.841   4.547  19.044  0.00  0.00    +0.000 A 
ATOM     14  C   UNL     1       2.585   5.579  18.023  0.00  0.00    +0.000 C 
ATOM     15  O   UNL     1       1.453   5.968  17.777  0.00  0.00    +0.000 OA
ATOM     16  C   UNL     1       3.775   6.163  17.284  0.00  0.00    +0.000 C 
ATOM     17  O   UNL     1       3.628   7.123  16.536  0.00  0.00    +0.000 OA
ATOM     18  H   UNL     1       6.684   3.252  19.199  0.00  0.00    +0.000 HD
ENDROOT
BRANCH   4  19
ATOM     19  C   UNL     1       6.258   5.385  15.268  0.00  0.00    +0.000 A 
ATOM     20  C   UNL     1       5.234   4.522  14.836  0.00  0.00    +0.000 A 
ATOM     21  C   UNL     1       5.337   3.843  13.621  0.00  0.00    +0.000 A 
ATOM     22  C   UNL     1       6.451   4.040  12.820  0.00  0.00    +0.000 A 
ATOM     23  F   UNL     1       6.563   3.362  11.669  0.00  0.00    +0.000 F 
ATOM     24  C   UNL     1       7.454   4.922  13.199  0.00  0.00    +0.000 A 
ATOM     25  C   UNL     1       7.356   5.598  14.417  0.00  0.00    +0.000 A 
ENDBRANCH   4  19
TORSDOF 1
ENDMDL
MODEL 2
REMARK VINA RESULT:      -7.0      8.200     10.575
REMARK  Name = 
REMARK  1 active torsions:
REMARK  status: ('A' for Active; 'I' for Inactive)
REMARK    1  A    between atoms: C_4  and  C_5
REMARK                            x       y       z     vdW  Elec       q    Type
REMARK                         _______ _______ _______ _____ _____    ______ ____
ROOT
ATOM      1  O   UNL     1      -2.180  11.388  16.498  0.00  0.00    +0.000 OA
ATOM      2  C   UNL     1      -1.771  11.685  17.616  0.00  0.00    +0.000 C 
ATOM      3  C   UNL     1      -1.993  10.820  18.829  0.00  0.00    +0.000 C 
ATOM      4  C   UNL     1      -0.833  10.929  19.826  0.00  0.00    +0.000 C 
ATOM      5  C   UNL     1      -0.374  12.360  19.982  0.00  0.00    +0.000 C 
ATOM      6  C   UNL     1      -0.545  13.278  19.014  0.00  0.00    +0.000 C 
ATOM      7  N   UNL     1      -1.154  12.890  17.840  0.00  0.00    +0.000 N 
ATOM      8  C   UNL     1      -0.039  14.666  19.151  0.00  0.00    +0.000 A 
ATOM      9  C   UNL     1      -0.236  15.642  18.155  0.00  0.00    +0.000 A 
ATOM     10  C   UNL     1       0.282  16.937  18.288  0.00  0.00    +0.000 A 
ATOM     11  C   UNL     1       0.997  17.291  19.426  0.00  0.00    +0.000 A 
ATOM     12  C   UNL     1       1.186  16.354  20.435  0.00  0.00    +0.000 A 
ATOM     13  C   UNL     1       0.669  15.056  20.297  0.00  0.00    +0.000 A 
ATOM     14  C   UNL     1       0.880  14.099  21.398  0.00  0.00    +0.000 C 
ATOM     15  O   UNL     1       1.521  14.400  22.393  0.00  0.00    +0.000 OA
ATOM     16  C   UNL     1       0.264  12.718  21.271  0.00  0.00    +0.000 C 
ATOM     17  O   UNL     1       0.287  11.941  22.219  0.00  0.00    +0.000 OA
ATOM     18  H   UNL     1      -1.128  13.478  17.018  0.00  0.00    +0.000 HD
ENDROOT
BRANCH   4  19
ATOM     19  C   UNL     1       0.303   9.979  19.445  0.00  0.00    +0.000 A 
ATOM     20  C   UNL     1       0.834   9.933  18.142  0.00  0.00    +0.000 A 
ATOM     21  C   UNL     1       1.785   8.973  17.792  0.00  0.00    +0.000 A 
ATOM     22  C   UNL     1       2.229   8.070  18.746  0.00  0.00    +0.000 A 
ATOM     23  F   UNL     1       3.118   7.130  18.399  0.00  0.00    +0.000 F 
ATOM     24  C   UNL     1       1.759   8.124  20.051  0.00  0.00    +0.000 A 
ATOM     25  C   UNL     1       0.802   9.079  20.402  0.00  0.00    +0.000 A 
ENDBRANCH   4  19
TORSDOF 1
ENDMDL
MODEL 3
REMARK VINA RESULT:      -7.0      8.278     10.225
REMARK  Name = 
REMARK  1 active torsions:
REMARK  status: ('A' for Active; 'I' for Inactive)
REMARK    1  A    between atoms: C_4  and  C_5
REMARK                            x       y       z     vdW  Elec       q    Type
REMARK                         _______ _______ _______ _____ _____    ______ ____
ROOT
ATOM      1  O   UNL     1       1.013  13.532  21.732  0.00  0.00    +0.000 OA
ATOM      2  C   UNL     1       0.304  13.187  20.791  0.00  0.00    +0.000 C 
ATOM      3  C   UNL     1       0.835  12.967  19.398  0.00  0.00    +0.000 C 
ATOM      4  C   UNL     1       0.061  11.868  18.660  0.00  0.00    +0.000 C 
ATOM      5  C   UNL     1      -1.426  11.985  18.901  0.00  0.00    +0.000 C 
ATOM      6  C   UNL     1      -1.930  12.568  20.003  0.00  0.00    +0.000 C 
ATOM      7  N   UNL     1      -1.054  13.066  20.943  0.00  0.00    +0.000 N 
ATOM      8  C   UNL     1      -3.391  12.627  20.261  0.00  0.00    +0.000 A 
ATOM      9  C   UNL     1      -3.931  13.258  21.398  0.00  0.00    +0.000 A 
ATOM     10  C   UNL     1      -5.310  13.270  21.641  0.00  0.00    +0.000 A 
ATOM     11  C   UNL     1      -6.184  12.664  20.747  0.00  0.00    +0.000 A 
ATOM     12  C   UNL     1      -5.679  12.055  19.603  0.00  0.00    +0.000 A 
ATOM     13  C   UNL     1      -4.297  12.040  19.364  0.00  0.00    +0.000 A 
ATOM     14  C   UNL     1      -3.806  11.395  18.133  0.00  0.00    +0.000 C 
ATOM     15  O   UNL     1      -4.568  10.848  17.351  0.00  0.00    +0.000 OA
ATOM     16  C   UNL     1      -2.316  11.440  17.849  0.00  0.00    +0.000 C 
ATOM     17  O   UNL     1      -1.880  11.050  16.772  0.00  0.00    +0.000 OA
ATOM     18  H   UNL     1      -1.373  13.330  21.867  0.00  0.00    +0.000 HD
ENDROOT
BRANCH   4  19
ATOM     19  C   UNL     1       0.612  10.485  19.011  0.00  0.00    +0.000 A 
ATOM     20  C   UNL     1       0.419   9.903  20.277  0.00  0.00    +0.000 A 
ATOM     21  C   UNL     1       1.035   8.695  20.610  0.00  0.00    +0.000 A 
ATOM     22  C   UNL     1       1.828   8.051  19.673  0.00  0.00    +0.000 A 
ATOM     23  F   UNL     1       2.445   6.909  20.006  0.00  0.00    +0.000 F 
ATOM     24  C   UNL     1       1.998   8.579  18.400  0.00  0.00    +0.000 A 
ATOM     25  C   UNL     1       1.387   9.791  18.067  0.00  0.00    +0.000 A 
ENDBRANCH   4  19
TORSDOF 1
ENDMDL
MODEL 4
REMARK VINA RESULT:      -6.9      7.981      9.794
REMARK  Name = 
REMARK  1 active torsions:
REMARK  status: ('A' for Active; 'I' for Inactive)
REMARK    1  A    between atoms: C_4  and  C_5
REMARK                            x       y       z     vdW  Elec       q    Type
REMARK                         _______ _______ _______ _____ _____    ______ ____
ROOT
ATOM      1  O   UNL     1       2.557  13.285  21.226  0.00  0.00    +0.000 OA
ATOM      2  C   UNL     1       1.610  13.018  20.492  0.00  0.00    +0.000 C 
ATOM      3  C   UNL     1       1.772  12.653  19.040  0.00  0.00    +0.000 C 
ATOM      4  C   UNL     1       0.696  11.662  18.578  0.00  0.00    +0.000 C 
ATOM      5  C   UNL     1      -0.663  12.031  19.126  0.00  0.00    +0.000 C 
ATOM      6  C   UNL     1      -0.811  12.737  20.262  0.00  0.00    +0.000 C 
ATOM      7  N   UNL     1       0.319  13.127  20.946  0.00  0.00    +0.000 N 
ATOM      8  C   UNL     1      -2.149  13.044  20.826  0.00  0.00    +0.000 A 
ATOM      9  C   UNL     1      -2.317  13.804  21.999  0.00  0.00    +0.000 A 
ATOM     10  C   UNL     1      -3.587  14.051  22.534  0.00  0.00    +0.000 A 
ATOM     11  C   UNL     1      -4.722  13.556  21.902  0.00  0.00    +0.000 A 
ATOM     12  C   UNL     1      -4.587  12.822  20.729  0.00  0.00    +0.000 A 
ATOM     13  C   UNL     1      -3.312  12.573  20.197  0.00  0.00    +0.000 A 
ATOM     14  C   UNL     1      -3.216  11.803  18.944  0.00  0.00    +0.000 C 
ATOM     15  O   UNL     1      -4.208  11.352  18.393  0.00  0.00    +0.000 OA
ATOM     16  C   UNL     1      -1.840  11.592  18.340  0.00  0.00    +0.000 C 
ATOM     17  O   UNL     1      -1.723  11.088  17.228  0.00  0.00    +0.000 OA
ATOM     18  H   UNL     1       0.262  13.480  21.892  0.00  0.00    +0.000 HD
ENDROOT
BRANCH   4  19
ATOM     19  C   UNL     1       1.100  10.226  18.909  0.00  0.00    +0.000 A 
ATOM     20  C   UNL     1       0.871   9.658  20.177  0.00  0.00    +0.000 A 
ATOM     21  C   UNL     1       1.359   8.388  20.490  0.00  0.00    +0.000 A 
ATOM     22  C   UNL     1       2.058   7.669  19.533  0.00  0.00    +0.000 A 
ATOM     23  F   UNL     1       2.554   6.465  19.846  0.00  0.00    +0.000 F 
ATOM     24  C   UNL     1       2.258   8.185  18.259  0.00  0.00    +0.000 A 
ATOM     25  C   UNL     1       1.776   9.458  17.946  0.00  0.00    +0.000 A 
ENDBRANCH   4  19
TORSDOF 1
ENDMDL
MODEL 5
REMARK VINA RESULT:      -6.9      3.230      4.460
REMARK  Name = 
REMARK  1 active torsions:
REMARK  status: ('A' for Active; 'I' for Inactive)
REMARK    1  A    between atoms: C_4  and  C_5
REMARK                            x       y       z     vdW  Elec       q    Type
REMARK                         _______ _______ _______ _____ _____    ______ ____
ROOT
ATOM      1  O   UNL     1       2.645   8.958  18.192  0.00  0.00    +0.000 OA
ATOM      2  C   UNL     1       2.954   7.830  17.822  0.00  0.00    +0.000 C 
ATOM      3  C   UNL     1       3.708   7.560  16.546  0.00  0.00    +0.000 C 
ATOM      4  C   UNL     1       4.619   6.332  16.671  0.00  0.00    +0.000 C 
ATOM      5  C   UNL     1       3.926   5.205  17.401  0.00  0.00    +0.000 C 
ATOM      6  C   UNL     1       2.932   5.425  18.281  0.00  0.00    +0.000 C 
ATOM      7  N   UNL     1       2.544   6.724  18.524  0.00  0.00    +0.000 N 
ATOM      8  C   UNL     1       2.296   4.318  19.038  0.00  0.00    +0.000 A 
ATOM      9  C   UNL     1       1.238   4.533  19.941  0.00  0.00    +0.000 A 
ATOM     10  C   UNL     1       0.676   3.479  20.673  0.00  0.00    +0.000 A 
ATOM     11  C   UNL     1       1.151   2.183  20.511  0.00  0.00    +0.000 A 
ATOM     12  C   UNL     1       2.179   1.939  19.607  0.00  0.00    +0.000 A 
ATOM     13  C   UNL     1       2.742   2.997  18.878  0.00  0.00    +0.000 A 
ATOM     14  C   UNL     1       3.821   2.691  17.921  0.00  0.00    +0.000 C 
ATOM     15  O   UNL     1       4.251   1.557  17.785  0.00  0.00    +0.000 OA
ATOM     16  C   UNL     1       4.381   3.830  17.089  0.00  0.00    +0.000 C 
ATOM     17  O   UNL     1       5.171   3.601  16.179  0.00  0.00    +0.000 OA
ATOM     18  H   UNL     1       1.950   6.954  19.310  0.00  0.00    +0.000 HD
ENDROOT
BRANCH   4  19
ATOM     19  C   UNL     1       5.960   6.710  17.299  0.00  0.00    +0.000 A 
ATOM     20  C   UNL     1       6.599   5.890  18.248  0.00  0.00    +0.000 A 
ATOM     21  C   UNL     1       7.761   6.317  18.895  0.00  0.00    +0.000 A 
ATOM     22  C   UNL     1       8.303   7.554  18.581  0.00  0.00    +0.000 A 
ATOM     23  F   UNL     1       9.398   7.975  19.227  0.00  0.00    +0.000 F 
ATOM     24  C   UNL     1       7.720   8.363  17.615  0.00  0.00    +0.000 A 
ATOM     25  C   UNL     1       6.554   7.941  16.971  0.00  0.00    +0.000 A 
ENDBRANCH   4  19
TORSDOF 1
ENDMDL
MODEL 6
REMARK VINA RESULT:      -6.9      7.953     10.021
REMARK  Name = 
REMARK  1 active torsions:
REMARK  status: ('A' for Active; 'I' for Inactive)
REMARK    1  A    between atoms: C_4  and  C_5
REMARK                            x       y       z     vdW  Elec       q    Type
REMARK                         _______ _______ _______ _____ _____    ______ ____
ROOT
ATOM      1  O   UNL     1       2.159   8.955  17.450  0.00  0.00    +0.000 OA
ATOM      2  C   UNL     1       1.298   9.491  18.140  0.00  0.00    +0.000 C 
ATOM      3  C   UNL     1       1.458   9.726  19.619  0.00  0.00    +0.000 C 
ATOM      4  C   UNL     1       0.734  10.999  20.077  0.00  0.00    +0.000 C 
ATOM      5  C   UNL     1      -0.625  11.121  19.427  0.00  0.00    +0.000 C 
ATOM      6  C   UNL     1      -0.908  10.548  18.243  0.00  0.00    +0.000 C 
ATOM      7  N   UNL     1       0.081   9.833  17.605  0.00  0.00    +0.000 N 
ATOM      8  C   UNL     1      -2.226  10.722  17.583  0.00  0.00    +0.000 A 
ATOM      9  C   UNL     1      -2.543  10.105  16.357  0.00  0.00    +0.000 A 
ATOM     10  C   UNL     1      -3.779  10.313  15.733  0.00  0.00    +0.000 A 
ATOM     11  C   UNL     1      -4.734  11.131  16.325  0.00  0.00    +0.000 A 
ATOM     12  C   UNL     1      -4.457  11.733  17.547  0.00  0.00    +0.000 A 
ATOM     13  C   UNL     1      -3.215  11.527  18.168  0.00  0.00    +0.000 A 
ATOM     14  C   UNL     1      -2.969  12.174  19.470  0.00  0.00    +0.000 C 
ATOM     15  O   UNL     1      -3.798  12.905  19.987  0.00  0.00    +0.000 OA
ATOM     16  C   UNL     1      -1.650  11.895  20.166  0.00  0.00    +0.000 C 
ATOM     17  O   UNL     1      -1.460  12.288  21.312  0.00  0.00    +0.000 OA
ATOM     18  H   UNL     1      -0.015   9.555  16.637  0.00  0.00    +0.000 HD
ENDROOT
BRANCH   4  19
ATOM     19  C   UNL     1       1.610  12.232  19.858  0.00  0.00    +0.000 A 
ATOM     20  C   UNL     1       1.923  13.122  20.903  0.00  0.00    +0.000 A 
ATOM     21  C   UNL     1       2.623  14.303  20.650  0.00  0.00    +0.000 A 
ATOM     22  C   UNL     1       3.033  14.592  19.358  0.00  0.00    +0.000 A 
ATOM     23  F   UNL     1       3.676  15.742  19.112  0.00  0.00    +0.000 F 
ATOM     24  C   UNL     1       2.779  13.710  18.316  0.00  0.00    +0.000 A 
ATOM     25  C   UNL     1       2.074  12.530  18.565  0.00  0.00    +0.000 A 
ENDBRANCH   4  19
TORSDOF 1
ENDMDL
MODEL 7
REMARK VINA RESULT:      -6.9      8.225     10.768
REMARK  Name = 
REMARK  1 active torsions:
REMARK  status: ('A' for Active; 'I' for Inactive)
REMARK    1  A    between atoms: C_4  and  C_5
REMARK                            x       y       z     vdW  Elec       q    Type
REMARK                         _______ _______ _______ _____ _____    ______ ____
ROOT
ATOM      1  O   UNL     1       2.334   9.196  17.777  0.00  0.00    +0.000 OA
ATOM      2  C   UNL     1       1.584  10.138  18.017  0.00  0.00    +0.000 C 
ATOM      3  C   UNL     1       0.091   9.987  18.149  0.00  0.00    +0.000 C 
ATOM      4  C   UNL     1      -0.497  10.985  19.155  0.00  0.00    +0.000 C 
ATOM      5  C   UNL     1       0.122  12.355  18.995  0.00  0.00    +0.000 C 
ATOM      6  C   UNL     1       1.352  12.531  18.479  0.00  0.00    +0.000 C 
ATOM      7  N   UNL     1       2.069  11.419  18.093  0.00  0.00    +0.000 N 
ATOM      8  C   UNL     1       1.976  13.874  18.380  0.00  0.00    +0.000 A 
ATOM      9  C   UNL     1       3.251  14.073  17.818  0.00  0.00    +0.000 A 
ATOM     10  C   UNL     1       3.837  15.344  17.767  0.00  0.00    +0.000 A 
ATOM     11  C   UNL     1       3.157  16.449  18.266  0.00  0.00    +0.000 A 
ATOM     12  C   UNL     1       1.885  16.284  18.804  0.00  0.00    +0.000 A 
ATOM     13  C   UNL     1       1.303  15.009  18.857  0.00  0.00    +0.000 A 
ATOM     14  C   UNL     1      -0.052  14.882  19.423  0.00  0.00    +0.000 C 
ATOM     15  O   UNL     1      -0.649  15.847  19.876  0.00  0.00    +0.000 OA
ATOM     16  C   UNL     1      -0.702  13.511  19.419  0.00  0.00    +0.000 C 
ATOM     17  O   UNL     1      -1.879  13.383  19.741  0.00  0.00    +0.000 OA
ATOM     18  H   UNL     1       3.057  11.479  17.889  0.00  0.00    +0.000 HD
ENDROOT
BRANCH   4  19
ATOM     19  C   UNL     1      -0.388  10.448  20.582  0.00  0.00    +0.000 A 
ATOM     20  C   UNL     1      -0.982  11.106  21.676  0.00  0.00    +0.000 A 
ATOM     21  C   UNL     1      -0.765  10.660  22.981  0.00  0.00    +0.000 A 
ATOM     22  C   UNL     1       0.027   9.543  23.199  0.00  0.00    +0.000 A 
ATOM     23  F   UNL     1       0.260   9.137  24.455  0.00  0.00    +0.000 F 
ATOM     24  C   UNL     1       0.586   8.847  22.136  0.00  0.00    +0.000 A 
ATOM     25  C   UNL     1       0.375   9.294  20.830  0.00  0.00    +0.000 A 
ENDBRANCH   4  19
TORSDOF 1
ENDMDL
MODEL 8
REMARK VINA RESULT:      -6.8      0.469      1.091
REMARK  Name = 
REMARK  1 active torsions:
REMARK  status: ('A' for Active; 'I' for Inactive)
REMARK    1  A    between atoms: C_4  and  C_5
REMARK                            x       y       z     vdW  Elec       q    Type
REMARK                         _______ _______ _______ _____ _____    ______ ____
ROOT
ATOM      1  O   UNL     1       8.584   4.382  18.946  0.00  0.00    +0.000 OA
ATOM      2  C   UNL     1       7.504   4.898  18.675  0.00  0.00    +0.000 C 
ATOM      3  C   UNL     1       7.377   6.171  17.880  0.00  0.00    +0.000 C 
ATOM      4  C   UNL     1       6.097   6.191  17.036  0.00  0.00    +0.000 C 
ATOM      5  C   UNL     1       4.917   5.655  17.813  0.00  0.00    +0.000 C 
ATOM      6  C   UNL     1       5.063   4.789  18.832  0.00  0.00    +0.000 C 
ATOM      7  N   UNL     1       6.334   4.377  19.168  0.00  0.00    +0.000 N 
ATOM      8  C   UNL     1       3.896   4.222  19.553  0.00  0.00    +0.000 A 
ATOM      9  C   UNL     1       4.038   3.335  20.638  0.00  0.00    +0.000 A 
ATOM     10  C   UNL     1       2.923   2.782  21.280  0.00  0.00    +0.000 A 
ATOM     11  C   UNL     1       1.639   3.112  20.861  0.00  0.00    +0.000 A 
ATOM     12  C   UNL     1       1.470   4.003  19.808  0.00  0.00    +0.000 A 
ATOM     13  C   UNL     1       2.589   4.553  19.164  0.00  0.00    +0.000 A 
ATOM     14  C   UNL     1       2.364   5.505  18.061  0.00  0.00    +0.000 C 
ATOM     15  O   UNL     1       1.238   5.786  17.679  0.00  0.00    +0.000 OA
ATOM     16  C   UNL     1       3.577   6.144  17.411  0.00  0.00    +0.000 C 
ATOM     17  O   UNL     1       3.437   7.048  16.594  0.00  0.00    +0.000 OA
ATOM     18  H   UNL     1       6.482   3.588  19.783  0.00  0.00    +0.000 HD
ENDROOT
BRANCH   4  19
ATOM     19  C   UNL     1       6.310   5.467  15.706  0.00  0.00    +0.000 A 
ATOM     20  C   UNL     1       7.459   5.672  14.920  0.00  0.00    +0.000 A 
ATOM     21  C   UNL     1       7.572   5.092  13.655  0.00  0.00    +0.000 A 
ATOM     22  C   UNL     1       6.549   4.286  13.178  0.00  0.00    +0.000 A 
ATOM     23  F   UNL     1       6.645   3.757  11.951  0.00  0.00    +0.000 F 
ATOM     24  C   UNL     1       5.425   4.029  13.952  0.00  0.00    +0.000 A 
ATOM     25  C   UNL     1       5.308   4.613  15.216  0.00  0.00    +0.000 A 
ENDBRANCH   4  19
TORSDOF 1
ENDMDL
MODEL 9
REMARK VINA RESULT:      -6.7      8.176     10.572
REMARK  Name = 
REMARK  1 active torsions:
REMARK  status: ('A' for Active; 'I' for Inactive)
REMARK    1  A    between atoms: C_4  and  C_5
REMARK                            x       y       z     vdW  Elec       q    Type
REMARK                         _______ _______ _______ _____ _____    ______ ____
ROOT
ATOM      1  O   UNL     1      -2.350  11.465  16.528  0.00  0.00    +0.000 OA
ATOM      2  C   UNL     1      -1.902  11.745  17.636  0.00  0.00    +0.000 C 
ATOM      3  C   UNL     1      -2.152  10.905  18.861  0.00  0.00    +0.000 C 
ATOM      4  C   UNL     1      -0.968  10.949  19.835  0.00  0.00    +0.000 C 
ATOM      5  C   UNL     1      -0.419  12.350  19.969  0.00  0.00    +0.000 C 
ATOM      6  C   UNL     1      -0.552  13.270  18.995  0.00  0.00    +0.000 C 
ATOM      7  N   UNL     1      -1.207  12.911  17.837  0.00  0.00    +0.000 N 
ATOM      8  C   UNL     1       0.041  14.625  19.110  0.00  0.00    +0.000 A 
ATOM      9  C   UNL     1      -0.114  15.603  18.109  0.00  0.00    +0.000 A 
ATOM     10  C   UNL     1       0.485  16.864  18.220  0.00  0.00    +0.000 A 
ATOM     11  C   UNL     1       1.244  17.182  19.340  0.00  0.00    +0.000 A 
ATOM     12  C   UNL     1       1.394  16.244  20.355  0.00  0.00    +0.000 A 
ATOM     13  C   UNL     1       0.795  14.980  20.239  0.00  0.00    +0.000 A 
ATOM     14  C   UNL     1       0.968  14.020  21.344  0.00  0.00    +0.000 C 
ATOM     15  O   UNL     1       1.646  14.289  22.324  0.00  0.00    +0.000 OA
ATOM     16  C   UNL     1       0.266  12.679  21.242  0.00  0.00    +0.000 C 
ATOM     17  O   UNL     1       0.258  11.909  22.196  0.00  0.00    +0.000 OA
ATOM     18  H   UNL     1      -1.160  13.490  17.009  0.00  0.00    +0.000 HD
ENDROOT
BRANCH   4  19
ATOM     19  C   UNL     1       0.099   9.928  19.441  0.00  0.00    +0.000 A 
ATOM     20  C   UNL     1       0.659   9.034  20.373  0.00  0.00    +0.000 A 
ATOM     21  C   UNL     1       1.716   8.196  20.014  0.00  0.00    +0.000 A 
ATOM     22  C   UNL     1       2.206   8.231  18.717  0.00  0.00    +0.000 A 
ATOM     23  F   UNL     1       3.242   7.450  18.383  0.00  0.00    +0.000 F 
ATOM     24  C   UNL     1       1.642   9.069  17.765  0.00  0.00    +0.000 A 
ATOM     25  C   UNL     1       0.587   9.912  18.123  0.00  0.00    +0.000 A 
ENDBRANCH   4  19
TORSDOF 1
ENDMDL
