MODEL 1
REMARK VINA RESULT:      -6.1      0.000      0.000
REMARK  Name = 
REMARK  7 active torsions:
REMARK  status: ('A' for Active; 'I' for Inactive)
REMARK    1  A    between atoms: C_1  and  C_2
REMARK    2  A    between atoms: C_2  and  C_3
REMARK    3  A    between atoms: C_3  and  O_4
REMARK    4  A    between atoms: O_4  and  C_5
REMARK    5  A    between atoms: C_5  and  C_7
REMARK    6  A    between atoms: C_13  and  C_14
REMARK    7  A    between atoms: C_14  and  O_16
REMARK                            x       y       z     vdW  Elec       q    Type
REMARK                         _______ _______ _______ _____ _____    ______ ____
ROOT
ATOM      1  C   UNL     1       3.801   4.441  17.062  0.00  0.00    +0.000 C 
ATOM      2  C   UNL     1       3.642   5.618  18.019  0.00  0.00    +0.000 C 
ATOM      3  C   UNL     1       4.092   5.305  19.446  0.00  0.00    +0.000 C 
ATOM      4  C   UNL     1       5.602   5.154  19.283  0.00  0.00    +0.000 C 
ATOM      5  C   UNL     1       5.806   5.498  17.813  0.00  0.00    +0.000 C 
ATOM      6  O   UNL     1       4.743   6.466  17.579  0.00  0.00    +0.000 OA
ATOM      7  C   UNL     1       5.334   4.354  16.913  0.00  0.00    +0.000 C 
ENDROOT
BRANCH   1   8
ATOM      8  C   UNL     1       3.140   3.194  17.591  0.00  0.00    +0.000 C 
ATOM      9  O   UNL     1       3.721   2.172  17.899  0.00  0.00    +0.000 OA
BRANCH   8  10
ATOM     10  O   UNL     1       1.785   3.368  17.594  0.00  0.00    +0.000 OA
BRANCH  10  11
ATOM     11  C   UNL     1       1.085   2.676  18.639  0.00  0.00    +0.000 C 
BRANCH  11  13
ATOM     12  C   UNL     1       1.374   2.863  21.126  0.00  0.00    +0.000 C 
ATOM     13  C   UNL     1       0.885   3.558  19.863  0.00  0.00    +0.000 C 
ENDBRANCH  11  13
ENDBRANCH  10  11
ENDBRANCH   8  10
ENDBRANCH   1   8
BRANCH   7  14
ATOM     14  C   UNL     1       5.750   4.588  15.474  0.00  0.00    +0.000 C 
ATOM     15  O   UNL     1       6.129   3.693  14.731  0.00  0.00    +0.000 OA
BRANCH  14  16
ATOM     16  O   UNL     1       5.613   5.861  15.039  0.00  0.00    +0.000 OA
ATOM     17  H   UNL     1       6.082   6.049  14.193  0.00  0.00    +0.000 HD
ENDBRANCH  14  16
ENDBRANCH   7  14
TORSDOF 6
ENDMDL
MODEL 2
REMARK VINA RESULT:      -6.1      2.165      5.379
REMARK  Name = 
REMARK  7 active torsions:
REMARK  status: ('A' for Active; 'I' for Inactive)
REMARK    1  A    between atoms: C_1  and  C_2
REMARK    2  A    between atoms: C_2  and  C_3
REMARK    3  A    between atoms: C_3  and  O_4
REMARK    4  A    between atoms: O_4  and  C_5
REMARK    5  A    between atoms: C_5  and  C_7
REMARK    6  A    between atoms: C_13  and  C_14
REMARK    7  A    between atoms: C_14  and  O_16
REMARK                            x       y       z     vdW  Elec       q    Type
REMARK                         _______ _______ _______ _____ _____    ______ ____
ROOT
ATOM      1  C   UNL     1       2.237   4.453  19.222  0.00  0.00    +0.000 C 
ATOM      2  C   UNL     1       1.713   3.926  17.890  0.00  0.00    +0.000 C 
ATOM      3  C   UNL     1       2.817   3.419  16.962  0.00  0.00    +0.000 C 
ATOM      4  C   UNL     1       3.307   2.171  17.694  0.00  0.00    +0.000 C 
ATOM      5  C   UNL     1       2.349   2.093  18.877  0.00  0.00    +0.000 C 
ATOM      6  O   UNL     1       1.131   2.661  18.317  0.00  0.00    +0.000 OA
ATOM      7  C   UNL     1       2.687   3.156  19.925  0.00  0.00    +0.000 C 
ENDROOT
BRANCH   1   8
ATOM      8  C   UNL     1       3.319   5.485  19.032  0.00  0.00    +0.000 C 
ATOM      9  O   UNL     1       3.174   6.555  18.476  0.00  0.00    +0.000 OA
BRANCH   8  10
ATOM     10  O   UNL     1       4.500   4.992  19.510  0.00  0.00    +0.000 OA
BRANCH  10  11
ATOM     11  C   UNL     1       5.678   5.529  18.889  0.00  0.00    +0.000 C 
BRANCH  11  13
ATOM     12  C   UNL     1       7.673   4.588  17.689  0.00  0.00    +0.000 C 
ATOM     13  C   UNL     1       6.153   4.660  17.735  0.00  0.00    +0.000 C 
ENDBRANCH  11  13
ENDBRANCH  10  11
ENDBRANCH   8  10
ENDBRANCH   1   8
BRANCH   7  14
ATOM     14  C   UNL     1       1.897   2.932  21.200  0.00  0.00    +0.000 C 
ATOM     15  O   UNL     1       2.415   2.863  22.307  0.00  0.00    +0.000 OA
BRANCH  14  16
ATOM     16  O   UNL     1       0.556   2.873  21.039  0.00  0.00    +0.000 OA
ATOM     17  H   UNL     1       0.061   3.556  21.548  0.00  0.00    +0.000 HD
ENDBRANCH  14  16
ENDBRANCH   7  14
TORSDOF 6
ENDMDL
MODEL 3
REMARK VINA RESULT:      -6.0      2.481      5.018
REMARK  Name = 
REMARK  7 active torsions:
REMARK  status: ('A' for Active; 'I' for Inactive)
REMARK    1  A    between atoms: C_1  and  C_2
REMARK    2  A    between atoms: C_2  and  C_3
REMARK    3  A    between atoms: C_3  and  O_4
REMARK    4  A    between atoms: O_4  and  C_5
REMARK    5  A    between atoms: C_5  and  C_7
REMARK    6  A    between atoms: C_13  and  C_14
REMARK    7  A    between atoms: C_14  and  O_16
REMARK                            x       y       z     vdW  Elec       q    Type
REMARK                         _______ _______ _______ _____ _____    ______ ____
ROOT
ATOM      1  C   UNL     1       5.746   6.247  17.630  0.00  0.00    +0.000 C 
ATOM      2  C   UNL     1       4.308   6.022  18.085  0.00  0.00    +0.000 C 
ATOM      3  C   UNL     1       3.684   4.747  17.517  0.00  0.00    +0.000 C 
ATOM      4  C   UNL     1       4.479   3.654  18.228  0.00  0.00    +0.000 C 
ATOM      5  C   UNL     1       5.368   4.460  19.168  0.00  0.00    +0.000 C 
ATOM      6  O   UNL     1       4.528   5.612  19.465  0.00  0.00    +0.000 OA
ATOM      7  C   UNL     1       6.500   5.142  18.397  0.00  0.00    +0.000 C 
ENDROOT
BRANCH   1   8
ATOM      8  C   UNL     1       5.877   6.185  16.129  0.00  0.00    +0.000 C 
ATOM      9  O   UNL     1       5.236   6.855  15.344  0.00  0.00    +0.000 OA
BRANCH   8  10
ATOM     10  O   UNL     1       6.768   5.206  15.794  0.00  0.00    +0.000 OA
BRANCH  10  11
ATOM     11  C   UNL     1       6.864   4.926  14.390  0.00  0.00    +0.000 C 
BRANCH  11  13
ATOM     12  C   UNL     1       6.049   3.497  12.492  0.00  0.00    +0.000 C 
ATOM     13  C   UNL     1       6.039   3.709  14.000  0.00  0.00    +0.000 C 
ENDBRANCH  11  13
ENDBRANCH  10  11
ENDBRANCH   8  10
ENDBRANCH   1   8
BRANCH   7  14
ATOM     14  C   UNL     1       7.518   5.743  19.347  0.00  0.00    +0.000 C 
ATOM     15  O   UNL     1       7.779   5.266  20.443  0.00  0.00    +0.000 OA
BRANCH  14  16
ATOM     16  O   UNL     1       8.175   6.824  18.870  0.00  0.00    +0.000 OA
ATOM     17  H   UNL     1       8.271   7.556  19.523  0.00  0.00    +0.000 HD
ENDBRANCH  14  16
ENDBRANCH   7  14
TORSDOF 6
ENDMDL
MODEL 4
REMARK VINA RESULT:      -6.0      2.057      3.626
REMARK  Name = 
REMARK  7 active torsions:
REMARK  status: ('A' for Active; 'I' for Inactive)
REMARK    1  A    between atoms: C_1  and  C_2
REMARK    2  A    between atoms: C_2  and  C_3
REMARK    3  A    between atoms: C_3  and  O_4
REMARK    4  A    between atoms: O_4  and  C_5
REMARK    5  A    between atoms: C_5  and  C_7
REMARK    6  A    between atoms: C_13  and  C_14
REMARK    7  A    between atoms: C_14  and  O_16
REMARK                            x       y       z     vdW  Elec       q    Type
REMARK                         _______ _______ _______ _____ _____    ______ ____
ROOT
ATOM      1  C   UNL     1       6.518   4.852  18.200  0.00  0.00    +0.000 C 
ATOM      2  C   UNL     1       6.536   4.172  16.835  0.00  0.00    +0.000 C 
ATOM      3  C   UNL     1       5.230   4.339  16.057  0.00  0.00    +0.000 C 
ATOM      4  C   UNL     1       5.235   5.831  15.735  0.00  0.00    +0.000 C 
ATOM      5  C   UNL     1       6.583   6.278  16.286  0.00  0.00    +0.000 C 
ATOM      6  O   UNL     1       7.397   5.085  16.096  0.00  0.00    +0.000 OA
ATOM      7  C   UNL     1       6.553   6.345  17.814  0.00  0.00    +0.000 C 
ENDROOT
BRANCH   1   8
ATOM      8  C   UNL     1       5.326   4.432  19.022  0.00  0.00    +0.000 C 
ATOM      9  O   UNL     1       5.058   3.289  19.330  0.00  0.00    +0.000 OA
BRANCH   8  10
ATOM     10  O   UNL     1       4.558   5.529  19.293  0.00  0.00    +0.000 OA
BRANCH  10  11
ATOM     11  C   UNL     1       3.161   5.259  19.487  0.00  0.00    +0.000 C 
BRANCH  11  13
ATOM     12  C   UNL     1       1.812   4.125  17.699  0.00  0.00    +0.000 C 
ATOM     13  C   UNL     1       2.367   5.450  18.203  0.00  0.00    +0.000 C 
ENDBRANCH  11  13
ENDBRANCH  10  11
ENDBRANCH   8  10
ENDBRANCH   1   8
BRANCH   7  14
ATOM     14  C   UNL     1       7.804   7.012  18.353  0.00  0.00    +0.000 C 
ATOM     15  O   UNL     1       8.211   8.096  17.958  0.00  0.00    +0.000 OA
BRANCH  14  16
ATOM     16  O   UNL     1       8.418   6.348  19.359  0.00  0.00    +0.000 OA
ATOM     17  H   UNL     1       9.313   6.695  19.581  0.00  0.00    +0.000 HD
ENDBRANCH  14  16
ENDBRANCH   7  14
TORSDOF 6
ENDMDL
MODEL 5
REMARK VINA RESULT:      -6.0      1.755      2.747
REMARK  Name = 
REMARK  7 active torsions:
REMARK  status: ('A' for Active; 'I' for Inactive)
REMARK    1  A    between atoms: C_1  and  C_2
REMARK    2  A    between atoms: C_2  and  C_3
REMARK    3  A    between atoms: C_3  and  O_4
REMARK    4  A    between atoms: O_4  and  C_5
REMARK    5  A    between atoms: C_5  and  C_7
REMARK    6  A    between atoms: C_13  and  C_14
REMARK    7  A    between atoms: C_14  and  O_16
REMARK                            x       y       z     vdW  Elec       q    Type
REMARK                         _______ _______ _______ _____ _____    ______ ____
ROOT
ATOM      1  C   UNL     1       4.767   3.536  18.296  0.00  0.00    +0.000 C 
ATOM      2  C   UNL     1       3.975   4.094  17.119  0.00  0.00    +0.000 C 
ATOM      3  C   UNL     1       2.631   4.699  17.525  0.00  0.00    +0.000 C 
ATOM      4  C   UNL     1       3.058   5.936  18.312  0.00  0.00    +0.000 C 
ATOM      5  C   UNL     1       4.574   5.911  18.157  0.00  0.00    +0.000 C 
ATOM      6  O   UNL     1       4.733   5.306  16.841  0.00  0.00    +0.000 OA
ATOM      7  C   UNL     1       5.195   4.822  19.033  0.00  0.00    +0.000 C 
ENDROOT
BRANCH   1   8
ATOM      8  C   UNL     1       3.950   2.571  19.118  0.00  0.00    +0.000 C 
ATOM      9  O   UNL     1       3.532   1.500  18.726  0.00  0.00    +0.000 OA
BRANCH   8  10
ATOM     10  O   UNL     1       3.689   3.127  20.337  0.00  0.00    +0.000 OA
BRANCH  10  11
ATOM     11  C   UNL     1       2.856   2.337  21.200  0.00  0.00    +0.000 C 
BRANCH  11  13
ATOM     12  C   UNL     1       0.910   3.750  20.475  0.00  0.00    +0.000 C 
ATOM     13  C   UNL     1       1.626   3.108  21.656  0.00  0.00    +0.000 C 
ENDBRANCH  11  13
ENDBRANCH  10  11
ENDBRANCH   8  10
ENDBRANCH   1   8
BRANCH   7  14
ATOM     14  C   UNL     1       6.706   4.947  19.066  0.00  0.00    +0.000 C 
ATOM     15  O   UNL     1       7.312   5.533  19.953  0.00  0.00    +0.000 OA
BRANCH  14  16
ATOM     16  O   UNL     1       7.355   4.306  18.068  0.00  0.00    +0.000 OA
ATOM     17  H   UNL     1       7.832   4.906  17.449  0.00  0.00    +0.000 HD
ENDBRANCH  14  16
ENDBRANCH   7  14
TORSDOF 6
ENDMDL
MODEL 6
REMARK VINA RESULT:      -6.0      1.903      4.734
REMARK  Name = 
REMARK  7 active torsions:
REMARK  status: ('A' for Active; 'I' for Inactive)
REMARK    1  A    between atoms: C_1  and  C_2
REMARK    2  A    between atoms: C_2  and  C_3
REMARK    3  A    between atoms: C_3  and  O_4
REMARK    4  A    between atoms: O_4  and  C_5
REMARK    5  A    between atoms: C_5  and  C_7
REMARK    6  A    between atoms: C_13  and  C_14
REMARK    7  A    between atoms: C_14  and  O_16
REMARK                            x       y       z     vdW  Elec       q    Type
REMARK                         _______ _______ _______ _____ _____    ______ ____
ROOT
ATOM      1  C   UNL     1       4.159   3.922  19.330  0.00  0.00    +0.000 C 
ATOM      2  C   UNL     1       3.269   4.995  19.948  0.00  0.00    +0.000 C 
ATOM      3  C   UNL     1       3.133   6.245  19.078  0.00  0.00    +0.000 C 
ATOM      4  C   UNL     1       2.327   5.726  17.889  0.00  0.00    +0.000 C 
ATOM      5  C   UNL     1       2.037   4.287  18.298  0.00  0.00    +0.000 C 
ATOM      6  O   UNL     1       1.956   4.396  19.748  0.00  0.00    +0.000 OA
ATOM      7  C   UNL     1       3.288   3.417  18.161  0.00  0.00    +0.000 C 
ENDROOT
BRANCH   1   8
ATOM      8  C   UNL     1       5.506   4.470  18.931  0.00  0.00    +0.000 C 
ATOM      9  O   UNL     1       6.276   5.041  19.677  0.00  0.00    +0.000 OA
BRANCH   8  10
ATOM     10  O   UNL     1       5.685   4.294  17.589  0.00  0.00    +0.000 OA
BRANCH  10  11
ATOM     11  C   UNL     1       7.002   4.601  17.106  0.00  0.00    +0.000 C 
BRANCH  11  13
ATOM     12  C   UNL     1       5.589   5.189  15.115  0.00  0.00    +0.000 C 
ATOM     13  C   UNL     1       6.998   4.905  15.615  0.00  0.00    +0.000 C 
ENDBRANCH  11  13
ENDBRANCH  10  11
ENDBRANCH   8  10
ENDBRANCH   1   8
BRANCH   7  14
ATOM     14  C   UNL     1       2.950   1.949  18.335  0.00  0.00    +0.000 C 
ATOM     15  O   UNL     1       3.798   1.070  18.412  0.00  0.00    +0.000 OA
BRANCH  14  16
ATOM     16  O   UNL     1       1.632   1.677  18.465  0.00  0.00    +0.000 OA
ATOM     17  H   UNL     1       1.440   0.766  18.785  0.00  0.00    +0.000 HD
ENDBRANCH  14  16
ENDBRANCH   7  14
TORSDOF 6
ENDMDL
MODEL 7
REMARK VINA RESULT:      -6.0      2.216      5.457
REMARK  Name = 
REMARK  7 active torsions:
REMARK  status: ('A' for Active; 'I' for Inactive)
REMARK    1  A    between atoms: C_1  and  C_2
REMARK    2  A    between atoms: C_2  and  C_3
REMARK    3  A    between atoms: C_3  and  O_4
REMARK    4  A    between atoms: O_4  and  C_5
REMARK    5  A    between atoms: C_5  and  C_7
REMARK    6  A    between atoms: C_13  and  C_14
REMARK    7  A    between atoms: C_14  and  O_16
REMARK                            x       y       z     vdW  Elec       q    Type
REMARK                         _______ _______ _______ _____ _____    ______ ____
ROOT
ATOM      1  C   UNL     1       3.511   4.793  19.163  0.00  0.00    +0.000 C 
ATOM      2  C   UNL     1       2.737   4.649  17.857  0.00  0.00    +0.000 C 
ATOM      3  C   UNL     1       3.203   3.471  17.002  0.00  0.00    +0.000 C 
ATOM      4  C   UNL     1       2.760   2.271  17.836  0.00  0.00    +0.000 C 
ATOM      5  C   UNL     1       2.021   2.935  18.991  0.00  0.00    +0.000 C 
ATOM      6  O   UNL     1       1.473   4.125  18.355  0.00  0.00    +0.000 OA
ATOM      7  C   UNL     1       3.004   3.580  19.970  0.00  0.00    +0.000 C 
ENDROOT
BRANCH   1   8
ATOM      8  C   UNL     1       5.000   4.829  18.933  0.00  0.00    +0.000 C 
ATOM      9  O   UNL     1       5.782   3.968  19.284  0.00  0.00    +0.000 OA
BRANCH   8  10
ATOM     10  O   UNL     1       5.336   6.014  18.344  0.00  0.00    +0.000 OA
BRANCH  10  11
ATOM     11  C   UNL     1       6.424   5.941  17.409  0.00  0.00    +0.000 C 
BRANCH  11  13
ATOM     12  C   UNL     1       7.708   8.092  17.595  0.00  0.00    +0.000 C 
ATOM     13  C   UNL     1       7.678   6.612  17.951  0.00  0.00    +0.000 C 
ENDBRANCH  11  13
ENDBRANCH  10  11
ENDBRANCH   8  10
ENDBRANCH   1   8
BRANCH   7  14
ATOM     14  C   UNL     1       2.296   4.030  21.233  0.00  0.00    +0.000 C 
ATOM     15  O   UNL     1       1.998   3.269  22.144  0.00  0.00    +0.000 OA
BRANCH  14  16
ATOM     16  O   UNL     1       2.067   5.360  21.317  0.00  0.00    +0.000 OA
ATOM     17  H   UNL     1       2.796   5.866  21.744  0.00  0.00    +0.000 HD
ENDBRANCH  14  16
ENDBRANCH   7  14
TORSDOF 6
ENDMDL
MODEL 8
REMARK VINA RESULT:      -5.9      2.478      5.291
REMARK  Name = 
REMARK  7 active torsions:
REMARK  status: ('A' for Active; 'I' for Inactive)
REMARK    1  A    between atoms: C_1  and  C_2
REMARK    2  A    between atoms: C_2  and  C_3
REMARK    3  A    between atoms: C_3  and  O_4
REMARK    4  A    between atoms: O_4  and  C_5
REMARK    5  A    between atoms: C_5  and  C_7
REMARK    6  A    between atoms: C_13  and  C_14
REMARK    7  A    between atoms: C_14  and  O_16
REMARK                            x       y       z     vdW  Elec       q    Type
REMARK                         _______ _______ _______ _____ _____    ______ ____
ROOT
ATOM      1  C   UNL     1       2.331   4.463  19.168  0.00  0.00    +0.000 C 
ATOM      2  C   UNL     1       1.812   3.901  17.849  0.00  0.00    +0.000 C 
ATOM      3  C   UNL     1       2.910   3.301  16.971  0.00  0.00    +0.000 C 
ATOM      4  C   UNL     1       3.322   2.066  17.769  0.00  0.00    +0.000 C 
ATOM      5  C   UNL     1       2.337   2.087  18.931  0.00  0.00    +0.000 C 
ATOM      6  O   UNL     1       1.160   2.686  18.317  0.00  0.00    +0.000 OA
ATOM      7  C   UNL     1       2.703   3.179  19.938  0.00  0.00    +0.000 C 
ENDROOT
BRANCH   1   8
ATOM      8  C   UNL     1       3.466   5.432  18.958  0.00  0.00    +0.000 C 
ATOM      9  O   UNL     1       4.545   5.376  19.514  0.00  0.00    +0.000 OA
BRANCH   8  10
ATOM     10  O   UNL     1       3.062   6.423  18.110  0.00  0.00    +0.000 OA
BRANCH  10  11
ATOM     11  C   UNL     1       2.417   7.539  18.742  0.00  0.00    +0.000 C 
BRANCH  11  13
ATOM     12  C   UNL     1       1.023   9.514  18.062  0.00  0.00    +0.000 C 
ATOM     13  C   UNL     1       2.302   8.730  17.802  0.00  0.00    +0.000 C 
ENDBRANCH  11  13
ENDBRANCH  10  11
ENDBRANCH   8  10
ENDBRANCH   1   8
BRANCH   7  14
ATOM     14  C   UNL     1       1.877   3.050  21.203  0.00  0.00    +0.000 C 
ATOM     15  O   UNL     1       2.355   3.117  22.327  0.00  0.00    +0.000 OA
BRANCH  14  16
ATOM     16  O   UNL     1       0.546   2.916  21.005  0.00  0.00    +0.000 OA
ATOM     17  H   UNL     1       0.287   2.065  20.582  0.00  0.00    +0.000 HD
ENDBRANCH  14  16
ENDBRANCH   7  14
TORSDOF 6
ENDMDL
MODEL 9
REMARK VINA RESULT:      -5.9      1.579      2.408
REMARK  Name = 
REMARK  7 active torsions:
REMARK  status: ('A' for Active; 'I' for Inactive)
REMARK    1  A    between atoms: C_1  and  C_2
REMARK    2  A    between atoms: C_2  and  C_3
REMARK    3  A    between atoms: C_3  and  O_4
REMARK    4  A    between atoms: O_4  and  C_5
REMARK    5  A    between atoms: C_5  and  C_7
REMARK    6  A    between atoms: C_13  and  C_14
REMARK    7  A    between atoms: C_14  and  O_16
REMARK                            x       y       z     vdW  Elec       q    Type
REMARK                         _______ _______ _______ _____ _____    ______ ____
ROOT
ATOM      1  C   UNL     1       5.256   5.525  16.302  0.00  0.00    +0.000 C 
ATOM      2  C   UNL     1       6.176   6.406  17.141  0.00  0.00    +0.000 C 
ATOM      3  C   UNL     1       6.639   5.740  18.436  0.00  0.00    +0.000 C 
ATOM      4  C   UNL     1       7.551   4.629  17.920  0.00  0.00    +0.000 C 
ATOM      5  C   UNL     1       7.554   4.884  16.418  0.00  0.00    +0.000 C 
ATOM      6  O   UNL     1       7.402   6.331  16.357  0.00  0.00    +0.000 OA
ATOM      7  C   UNL     1       6.231   4.445  15.787  0.00  0.00    +0.000 C 
ENDROOT
BRANCH   1   8
ATOM      8  C   UNL     1       4.092   5.003  17.104  0.00  0.00    +0.000 C 
ATOM      9  O   UNL     1       3.295   5.693  17.708  0.00  0.00    +0.000 OA
BRANCH   8  10
ATOM     10  O   UNL     1       4.124   3.638  17.110  0.00  0.00    +0.000 OA
BRANCH  10  11
ATOM     11  C   UNL     1       3.563   3.021  18.279  0.00  0.00    +0.000 C 
BRANCH  11  13
ATOM     12  C   UNL     1       1.103   2.708  18.675  0.00  0.00    +0.000 C 
ATOM     13  C   UNL     1       2.333   2.191  17.942  0.00  0.00    +0.000 C 
ENDBRANCH  11  13
ENDBRANCH  10  11
ENDBRANCH   8  10
ENDBRANCH   1   8
BRANCH   7  14
ATOM     14  C   UNL     1       6.315   4.474  14.273  0.00  0.00    +0.000 C 
ATOM     15  O   UNL     1       5.516   3.900  13.545  0.00  0.00    +0.000 OA
BRANCH  14  16
ATOM     16  O   UNL     1       7.312   5.237  13.770  0.00  0.00    +0.000 OA
ATOM     17  H   UNL     1       7.002   6.060  13.327  0.00  0.00    +0.000 HD
ENDBRANCH  14  16
ENDBRANCH   7  14
TORSDOF 6
ENDMDL
