MODEL 1
REMARK VINA RESULT:      -6.6      0.000      0.000
REMARK  Name = 
REMARK  6 active torsions:
REMARK  status: ('A' for Active; 'I' for Inactive)
REMARK    1  A    between atoms: C_1  and  O_2
REMARK    2  A    between atoms: O_2  and  C_3
REMARK    3  A    between atoms: C_6  and  N_7
REMARK    4  A    between atoms: C_8  and  C_10
REMARK    5  A    between atoms: C_10  and  C_11
REMARK    6  A    between atoms: C_10  and  N_12
REMARK                            x       y       z     vdW  Elec       q    Type
REMARK                         _______ _______ _______ _____ _____    ______ ____
ROOT
ATOM      1  N   UNL     1       3.784   5.292  17.920  0.00  0.00    +0.000 N 
ATOM      2  C   UNL     1       4.191   5.443  19.241  0.00  0.00    +0.000 C 
ATOM      3  O   UNL     1       5.356   5.365  19.636  0.00  0.00    +0.000 OA
ATOM      4  H   UNL     1       2.788   5.354  17.727  0.00  0.00    +0.000 HD
ENDROOT
BRANCH   1   8
ATOM      5  C   UNL     1       6.312   4.855  14.632  0.00  0.00    +0.000 A 
ATOM      6  C   UNL     1       5.908   3.701  15.279  0.00  0.00    +0.000 A 
ATOM      7  C   UNL     1       5.053   3.816  16.375  0.00  0.00    +0.000 A 
ATOM      8  C   UNL     1       4.628   5.072  16.806  0.00  0.00    +0.000 A 
ATOM      9  C   UNL     1       5.097   6.168  16.080  0.00  0.00    +0.000 A 
ATOM     10  N   UNL     1       5.922   6.092  15.007  0.00  0.00    +0.000 NA
BRANCH   5  12
ATOM     11  C   UNL     1       6.629   3.825  12.563  0.00  0.00    +0.000 C 
ATOM     12  O   UNL     1       7.161   4.693  13.556  0.00  0.00    +0.000 OA
ENDBRANCH   5  12
ENDBRANCH   1   8
BRANCH   2  13
ATOM     13  C   UNL     1       3.060   5.748  20.220  0.00  0.00    +0.000 C 
ATOM     14  C   UNL     1       2.224   6.937  19.745  0.00  0.00    +0.000 C 
BRANCH  13  15
ATOM     15  N   UNL     1       2.225   4.565  20.391  0.00  0.00    +0.000 N 
ATOM     16  C   UNL     1       2.144   3.753  21.488  0.00  0.00    +0.000 A 
ATOM     17  C   UNL     1       1.283   2.737  21.152  0.00  0.00    +0.000 A 
ATOM     18  C   UNL     1       0.890   3.025  19.832  0.00  0.00    +0.000 A 
ATOM     19  N   UNL     1       1.447   4.148  19.368  0.00  0.00    +0.000 NA
ENDBRANCH  13  15
ENDBRANCH   2  13
TORSDOF 4
ENDMDL
MODEL 2
REMARK VINA RESULT:      -6.4      1.230      1.230
REMARK  Name = 
REMARK  6 active torsions:
REMARK  status: ('A' for Active; 'I' for Inactive)
REMARK    1  A    between atoms: C_1  and  O_2
REMARK    2  A    between atoms: O_2  and  C_3
REMARK    3  A    between atoms: C_6  and  N_7
REMARK    4  A    between atoms: C_8  and  C_10
REMARK    5  A    between atoms: C_10  and  C_11
REMARK    6  A    between atoms: C_10  and  N_12
REMARK                            x       y       z     vdW  Elec       q    Type
REMARK                         _______ _______ _______ _____ _____    ______ ____
ROOT
ATOM      1  N   UNL     1       4.443   5.400  18.770  0.00  0.00    +0.000 N 
ATOM      2  C   UNL     1       3.317   6.197  18.949  0.00  0.00    +0.000 C 
ATOM      3  O   UNL     1       2.863   6.978  18.112  0.00  0.00    +0.000 OA
ATOM      4  H   UNL     1       4.731   4.815  19.550  0.00  0.00    +0.000 HD
ENDROOT
BRANCH   1   8
ATOM      5  C   UNL     1       6.896   5.273  15.400  0.00  0.00    +0.000 A 
ATOM      6  C   UNL     1       5.840   4.382  15.449  0.00  0.00    +0.000 A 
ATOM      7  C   UNL     1       4.996   4.409  16.559  0.00  0.00    +0.000 A 
ATOM      8  C   UNL     1       5.227   5.314  17.595  0.00  0.00    +0.000 A 
ATOM      9  C   UNL     1       6.320   6.166  17.441  0.00  0.00    +0.000 A 
ATOM     10  N   UNL     1       7.155   6.172  16.373  0.00  0.00    +0.000 NA
BRANCH   5  12
ATOM     11  C   UNL     1       7.070   4.581  13.179  0.00  0.00    +0.000 C 
ATOM     12  O   UNL     1       7.708   5.207  14.285  0.00  0.00    +0.000 OA
ENDBRANCH   5  12
ENDBRANCH   1   8
BRANCH   2  13
ATOM     13  C   UNL     1       2.629   6.022  20.300  0.00  0.00    +0.000 C 
ATOM     14  C   UNL     1       1.569   7.101  20.524  0.00  0.00    +0.000 C 
BRANCH  13  15
ATOM     15  N   UNL     1       2.037   4.691  20.382  0.00  0.00    +0.000 N 
ATOM     16  C   UNL     1       2.072   3.828  21.442  0.00  0.00    +0.000 A 
ATOM     17  C   UNL     1       1.444   2.680  21.023  0.00  0.00    +0.000 A 
ATOM     18  C   UNL     1       1.058   2.949  19.698  0.00  0.00    +0.000 A 
ATOM     19  N   UNL     1       1.401   4.180  19.306  0.00  0.00    +0.000 NA
ENDBRANCH  13  15
ENDBRANCH   2  13
TORSDOF 4
ENDMDL
MODEL 3
REMARK VINA RESULT:      -6.4      2.938      3.854
REMARK  Name = 
REMARK  6 active torsions:
REMARK  status: ('A' for Active; 'I' for Inactive)
REMARK    1  A    between atoms: C_1  and  O_2
REMARK    2  A    between atoms: O_2  and  C_3
REMARK    3  A    between atoms: C_6  and  N_7
REMARK    4  A    between atoms: C_8  and  C_10
REMARK    5  A    between atoms: C_10  and  C_11
REMARK    6  A    between atoms: C_10  and  N_12
REMARK                            x       y       z     vdW  Elec       q    Type
REMARK                         _______ _______ _______ _____ _____    ______ ____
ROOT
ATOM      1  N   UNL     1       5.911   4.069  18.541  0.00  0.00    +0.000 N 
ATOM      2  C   UNL     1       4.734   3.918  19.265  0.00  0.00    +0.000 C 
ATOM      3  O   UNL     1       4.105   4.837  19.793  0.00  0.00    +0.000 OA
ATOM      4  H   UNL     1       6.348   3.227  18.177  0.00  0.00    +0.000 HD
ENDROOT
BRANCH   1   8
ATOM      5  C   UNL     1       7.666   7.717  17.537  0.00  0.00    +0.000 A 
ATOM      6  C   UNL     1       8.178   7.048  18.634  0.00  0.00    +0.000 A 
ATOM      7  C   UNL     1       7.618   5.819  18.986  0.00  0.00    +0.000 A 
ATOM      8  C   UNL     1       6.560   5.292  18.247  0.00  0.00    +0.000 A 
ATOM      9  C   UNL     1       6.123   6.051  17.162  0.00  0.00    +0.000 A 
ATOM     10  N   UNL     1       6.648   7.243  16.787  0.00  0.00    +0.000 NA
BRANCH   5  12
ATOM     11  C   UNL     1       8.609   9.675  18.385  0.00  0.00    +0.000 C 
ATOM     12  O   UNL     1       8.247   8.930  17.228  0.00  0.00    +0.000 OA
ENDBRANCH   5  12
ENDBRANCH   1   8
BRANCH   2  13
ATOM     13  C   UNL     1       4.227   2.481  19.354  0.00  0.00    +0.000 C 
ATOM     14  C   UNL     1       4.774   1.778  20.597  0.00  0.00    +0.000 C 
BRANCH  13  15
ATOM     15  N   UNL     1       2.768   2.473  19.356  0.00  0.00    +0.000 N 
ATOM     16  C   UNL     1       1.934   2.435  18.273  0.00  0.00    +0.000 A 
ATOM     17  C   UNL     1       0.656   2.516  18.770  0.00  0.00    +0.000 A 
ATOM     18  C   UNL     1       0.821   2.594  20.164  0.00  0.00    +0.000 A 
ATOM     19  N   UNL     1       2.106   2.550  20.530  0.00  0.00    +0.000 NA
ENDBRANCH  13  15
ENDBRANCH   2  13
TORSDOF 4
ENDMDL
MODEL 4
REMARK VINA RESULT:      -6.4      1.215      1.420
REMARK  Name = 
REMARK  6 active torsions:
REMARK  status: ('A' for Active; 'I' for Inactive)
REMARK    1  A    between atoms: C_1  and  O_2
REMARK    2  A    between atoms: O_2  and  C_3
REMARK    3  A    between atoms: C_6  and  N_7
REMARK    4  A    between atoms: C_8  and  C_10
REMARK    5  A    between atoms: C_10  and  C_11
REMARK    6  A    between atoms: C_10  and  N_12
REMARK                            x       y       z     vdW  Elec       q    Type
REMARK                         _______ _______ _______ _____ _____    ______ ____
ROOT
ATOM      1  N   UNL     1       4.332   4.895  17.639  0.00  0.00    +0.000 N 
ATOM      2  C   UNL     1       4.627   4.613  18.969  0.00  0.00    +0.000 C 
ATOM      3  O   UNL     1       5.748   4.351  19.405  0.00  0.00    +0.000 OA
ATOM      4  H   UNL     1       3.360   5.071  17.402  0.00  0.00    +0.000 HD
ENDROOT
BRANCH   1   8
ATOM      5  C   UNL     1       7.206   5.246  14.637  0.00  0.00    +0.000 A 
ATOM      6  C   UNL     1       6.171   4.354  14.423  0.00  0.00    +0.000 A 
ATOM      7  C   UNL     1       5.189   4.225  15.405  0.00  0.00    +0.000 A 
ATOM      8  C   UNL     1       5.264   4.976  16.577  0.00  0.00    +0.000 A 
ATOM      9  C   UNL     1       6.351   5.843  16.688  0.00  0.00    +0.000 A 
ATOM     10  N   UNL     1       7.318   5.999  15.751  0.00  0.00    +0.000 NA
BRANCH   5  12
ATOM     11  C   UNL     1       7.639   5.012  12.357  0.00  0.00    +0.000 C 
ATOM     12  O   UNL     1       8.157   5.338  13.641  0.00  0.00    +0.000 OA
ENDBRANCH   5  12
ENDBRANCH   1   8
BRANCH   2  13
ATOM     13  C   UNL     1       3.425   4.672  19.908  0.00  0.00    +0.000 C 
ATOM     14  C   UNL     1       2.793   6.064  19.910  0.00  0.00    +0.000 C 
BRANCH  13  15
ATOM     15  N   UNL     1       2.447   3.662  19.519  0.00  0.00    +0.000 N 
ATOM     16  C   UNL     1       1.085   3.746  19.599  0.00  0.00    +0.000 A 
ATOM     17  C   UNL     1       0.599   2.529  19.187  0.00  0.00    +0.000 A 
ATOM     18  C   UNL     1       1.745   1.777  18.873  0.00  0.00    +0.000 A 
ATOM     19  N   UNL     1       2.875   2.468  19.056  0.00  0.00    +0.000 NA
ENDBRANCH  13  15
ENDBRANCH   2  13
TORSDOF 4
ENDMDL
MODEL 5
REMARK VINA RESULT:      -6.4      1.379      1.562
REMARK  Name = 
REMARK  6 active torsions:
REMARK  status: ('A' for Active; 'I' for Inactive)
REMARK    1  A    between atoms: C_1  and  O_2
REMARK    2  A    between atoms: O_2  and  C_3
REMARK    3  A    between atoms: C_6  and  N_7
REMARK    4  A    between atoms: C_8  and  C_10
REMARK    5  A    between atoms: C_10  and  C_11
REMARK    6  A    between atoms: C_10  and  N_12
REMARK                            x       y       z     vdW  Elec       q    Type
REMARK                         _______ _______ _______ _____ _____    ______ ____
ROOT
ATOM      1  N   UNL     1       4.747   4.799  17.858  0.00  0.00    +0.000 N 
ATOM      2  C   UNL     1       3.858   5.749  18.349  0.00  0.00    +0.000 C 
ATOM      3  O   UNL     1       3.610   6.830  17.813  0.00  0.00    +0.000 OA
ATOM      4  H   UNL     1       4.883   3.956  18.409  0.00  0.00    +0.000 HD
ENDROOT
BRANCH   1   8
ATOM      5  C   UNL     1       7.064   5.142  14.408  0.00  0.00    +0.000 A 
ATOM      6  C   UNL     1       5.909   4.387  14.323  0.00  0.00    +0.000 A 
ATOM      7  C   UNL     1       5.108   4.265  15.458  0.00  0.00    +0.000 A 
ATOM      8  C   UNL     1       5.479   4.886  16.650  0.00  0.00    +0.000 A 
ATOM      9  C   UNL     1       6.663   5.622  16.623  0.00  0.00    +0.000 A 
ATOM     10  N   UNL     1       7.461   5.768  15.536  0.00  0.00    +0.000 NA
BRANCH   5  12
ATOM     11  C   UNL     1       7.296   4.466  12.187  0.00  0.00    +0.000 C 
ATOM     12  O   UNL     1       7.828   5.232  13.261  0.00  0.00    +0.000 OA
ENDBRANCH   5  12
ENDBRANCH   1   8
BRANCH   2  13
ATOM     13  C   UNL     1       3.154   5.346  19.642  0.00  0.00    +0.000 C 
ATOM     14  C   UNL     1       2.189   6.436  20.109  0.00  0.00    +0.000 C 
BRANCH  13  15
ATOM     15  N   UNL     1       2.450   4.083  19.446  0.00  0.00    +0.000 N 
ATOM     16  C   UNL     1       1.278   3.878  18.773  0.00  0.00    +0.000 A 
ATOM     17  C   UNL     1       0.978   2.546  18.920  0.00  0.00    +0.000 A 
ATOM     18  C   UNL     1       2.032   2.027  19.693  0.00  0.00    +0.000 A 
ATOM     19  N   UNL     1       2.942   2.956  20.003  0.00  0.00    +0.000 NA
ENDBRANCH  13  15
ENDBRANCH   2  13
TORSDOF 4
ENDMDL
MODEL 6
REMARK VINA RESULT:      -6.4      2.746      3.639
REMARK  Name = 
REMARK  6 active torsions:
REMARK  status: ('A' for Active; 'I' for Inactive)
REMARK    1  A    between atoms: C_1  and  O_2
REMARK    2  A    between atoms: O_2  and  C_3
REMARK    3  A    between atoms: C_6  and  N_7
REMARK    4  A    between atoms: C_8  and  C_10
REMARK    5  A    between atoms: C_10  and  C_11
REMARK    6  A    between atoms: C_10  and  N_12
REMARK                            x       y       z     vdW  Elec       q    Type
REMARK                         _______ _______ _______ _____ _____    ______ ____
ROOT
ATOM      1  N   UNL     1       4.616   4.504  18.507  0.00  0.00    +0.000 N 
ATOM      2  C   UNL     1       4.080   3.581  17.615  0.00  0.00    +0.000 C 
ATOM      3  O   UNL     1       4.362   3.508  16.418  0.00  0.00    +0.000 OA
ATOM      4  H   UNL     1       4.282   4.477  19.466  0.00  0.00    +0.000 HD
ENDROOT
BRANCH   1   8
ATOM      5  C   UNL     1       7.367   7.482  17.528  0.00  0.00    +0.000 A 
ATOM      6  C   UNL     1       7.757   6.542  18.464  0.00  0.00    +0.000 A 
ATOM      7  C   UNL     1       6.862   5.527  18.802  0.00  0.00    +0.000 A 
ATOM      8  C   UNL     1       5.601   5.477  18.211  0.00  0.00    +0.000 A 
ATOM      9  C   UNL     1       5.312   6.475  17.280  0.00  0.00    +0.000 A 
ATOM     10  N   UNL     1       6.161   7.471  16.923  0.00  0.00    +0.000 NA
BRANCH   5  12
ATOM     11  C   UNL     1       8.494   9.369  18.310  0.00  0.00    +0.000 C 
ATOM     12  O   UNL     1       8.283   8.470  17.228  0.00  0.00    +0.000 OA
ENDBRANCH   5  12
ENDBRANCH   1   8
BRANCH   2  13
ATOM     13  C   UNL     1       3.091   2.601  18.239  0.00  0.00    +0.000 C 
ATOM     14  C   UNL     1       3.750   1.249  18.513  0.00  0.00    +0.000 C 
BRANCH  13  15
ATOM     15  N   UNL     1       2.546   3.168  19.468  0.00  0.00    +0.000 N 
ATOM     16  C   UNL     1       2.722   2.714  20.745  0.00  0.00    +0.000 A 
ATOM     17  C   UNL     1       1.961   3.526  21.551  0.00  0.00    +0.000 A 
ATOM     18  C   UNL     1       1.366   4.445  20.668  0.00  0.00    +0.000 A 
ATOM     19  N   UNL     1       1.733   4.244  19.398  0.00  0.00    +0.000 NA
ENDBRANCH  13  15
ENDBRANCH   2  13
TORSDOF 4
ENDMDL
MODEL 7
REMARK VINA RESULT:      -6.3      2.546      3.416
REMARK  Name = 
REMARK  6 active torsions:
REMARK  status: ('A' for Active; 'I' for Inactive)
REMARK    1  A    between atoms: C_1  and  O_2
REMARK    2  A    between atoms: O_2  and  C_3
REMARK    3  A    between atoms: C_6  and  N_7
REMARK    4  A    between atoms: C_8  and  C_10
REMARK    5  A    between atoms: C_10  and  C_11
REMARK    6  A    between atoms: C_10  and  N_12
REMARK                            x       y       z     vdW  Elec       q    Type
REMARK                         _______ _______ _______ _____ _____    ______ ____
ROOT
ATOM      1  N   UNL     1       4.371   4.538  18.041  0.00  0.00    +0.000 N 
ATOM      2  C   UNL     1       3.031   4.870  18.209  0.00  0.00    +0.000 C 
ATOM      3  O   UNL     1       2.589   6.018  18.279  0.00  0.00    +0.000 OA
ATOM      4  H   UNL     1       4.610   3.551  18.025  0.00  0.00    +0.000 HD
ENDROOT
BRANCH   1   8
ATOM      5  C   UNL     1       7.404   7.332  17.418  0.00  0.00    +0.000 A 
ATOM      6  C   UNL     1       7.573   6.435  18.456  0.00  0.00    +0.000 A 
ATOM      7  C   UNL     1       6.579   5.481  18.680  0.00  0.00    +0.000 A 
ATOM      8  C   UNL     1       5.442   5.449  17.876  0.00  0.00    +0.000 A 
ATOM      9  C   UNL     1       5.375   6.401  16.858  0.00  0.00    +0.000 A 
ATOM     10  N   UNL     1       6.324   7.336  16.607  0.00  0.00    +0.000 NA
BRANCH   5  12
ATOM     11  C   UNL     1       8.262   9.399  18.074  0.00  0.00    +0.000 C 
ATOM     12  O   UNL     1       8.409   8.260  17.235  0.00  0.00    +0.000 OA
ENDBRANCH   5  12
ENDBRANCH   1   8
BRANCH   2  13
ATOM     13  C   UNL     1       2.089   3.671  18.284  0.00  0.00    +0.000 C 
ATOM     14  C   UNL     1       2.551   2.546  17.357  0.00  0.00    +0.000 C 
BRANCH  13  15
ATOM     15  N   UNL     1       1.998   3.201  19.662  0.00  0.00    +0.000 N 
ATOM     16  C   UNL     1       0.884   3.148  20.452  0.00  0.00    +0.000 A 
ATOM     17  C   UNL     1       1.306   2.705  21.682  0.00  0.00    +0.000 A 
ATOM     18  C   UNL     1       2.691   2.512  21.534  0.00  0.00    +0.000 A 
ATOM     19  N   UNL     1       3.117   2.796  20.299  0.00  0.00    +0.000 NA
ENDBRANCH  13  15
ENDBRANCH   2  13
TORSDOF 4
ENDMDL
MODEL 8
REMARK VINA RESULT:      -6.3      3.103      6.380
REMARK  Name = 
REMARK  6 active torsions:
REMARK  status: ('A' for Active; 'I' for Inactive)
REMARK    1  A    between atoms: C_1  and  O_2
REMARK    2  A    between atoms: O_2  and  C_3
REMARK    3  A    between atoms: C_6  and  N_7
REMARK    4  A    between atoms: C_8  and  C_10
REMARK    5  A    between atoms: C_10  and  C_11
REMARK    6  A    between atoms: C_10  and  N_12
REMARK                            x       y       z     vdW  Elec       q    Type
REMARK                         _______ _______ _______ _____ _____    ______ ____
ROOT
ATOM      1  N   UNL     1       3.364   6.000  18.908  0.00  0.00    +0.000 N 
ATOM      2  C   UNL     1       2.929   4.770  18.427  0.00  0.00    +0.000 C 
ATOM      3  O   UNL     1       1.816   4.552  17.944  0.00  0.00    +0.000 OA
ATOM      4  H   UNL     1       4.298   6.042  19.305  0.00  0.00    +0.000 HD
ENDROOT
BRANCH   1   8
ATOM      5  C   UNL     1       1.188   9.554  19.055  0.00  0.00    +0.000 A 
ATOM      6  C   UNL     1       1.828   9.252  17.868  0.00  0.00    +0.000 A 
ATOM      7  C   UNL     1       2.553   8.064  17.785  0.00  0.00    +0.000 A 
ATOM      8  C   UNL     1       2.633   7.212  18.886  0.00  0.00    +0.000 A 
ATOM      9  C   UNL     1       1.950   7.615  20.033  0.00  0.00    +0.000 A 
ATOM     10  N   UNL     1       1.230   8.758  20.145  0.00  0.00    +0.000 NA
BRANCH   5  12
ATOM     11  C   UNL     1       1.198  11.779  19.756  0.00  0.00    +0.000 C 
ATOM     12  O   UNL     1       0.486  10.742  19.093  0.00  0.00    +0.000 OA
ENDBRANCH   5  12
ENDBRANCH   1   8
BRANCH   2  13
ATOM     13  C   UNL     1       3.967   3.655  18.513  0.00  0.00    +0.000 C 
ATOM     14  C   UNL     1       3.465   2.378  17.837  0.00  0.00    +0.000 C 
BRANCH  13  15
ATOM     15  N   UNL     1       5.219   4.100  17.910  0.00  0.00    +0.000 N 
ATOM     16  C   UNL     1       5.530   4.155  16.580  0.00  0.00    +0.000 A 
ATOM     17  C   UNL     1       6.838   4.570  16.509  0.00  0.00    +0.000 A 
ATOM     18  C   UNL     1       7.230   4.745  17.848  0.00  0.00    +0.000 A 
ATOM     19  N   UNL     1       6.241   4.477  18.708  0.00  0.00    +0.000 NA
ENDBRANCH  13  15
ENDBRANCH   2  13
TORSDOF 4
ENDMDL
MODEL 9
REMARK VINA RESULT:      -6.1      1.912      2.432
REMARK  Name = 
REMARK  6 active torsions:
REMARK  status: ('A' for Active; 'I' for Inactive)
REMARK    1  A    between atoms: C_1  and  O_2
REMARK    2  A    between atoms: O_2  and  C_3
REMARK    3  A    between atoms: C_6  and  N_7
REMARK    4  A    between atoms: C_8  and  C_10
REMARK    5  A    between atoms: C_10  and  C_11
REMARK    6  A    between atoms: C_10  and  N_12
REMARK                            x       y       z     vdW  Elec       q    Type
REMARK                         _______ _______ _______ _____ _____    ______ ____
ROOT
ATOM      1  N   UNL     1       5.133   3.542  17.650  0.00  0.00    +0.000 N 
ATOM      2  C   UNL     1       3.814   3.106  17.725  0.00  0.00    +0.000 C 
ATOM      3  O   UNL     1       3.010   3.123  16.792  0.00  0.00    +0.000 OA
ATOM      4  H   UNL     1       5.688   3.499  18.500  0.00  0.00    +0.000 HD
ENDROOT
BRANCH   1   8
ATOM      5  C   UNL     1       7.194   5.092  14.373  0.00  0.00    +0.000 A 
ATOM      6  C   UNL     1       6.281   4.082  14.128  0.00  0.00    +0.000 A 
ATOM      7  C   UNL     1       5.568   3.553  15.204  0.00  0.00    +0.000 A 
ATOM      8  C   UNL     1       5.786   4.032  16.495  0.00  0.00    +0.000 A 
ATOM      9  C   UNL     1       6.730   5.050  16.627  0.00  0.00    +0.000 A 
ATOM     10  N   UNL     1       7.434   5.593  15.603  0.00  0.00    +0.000 NA
BRANCH   5  12
ATOM     11  C   UNL     1       7.534   4.915  12.072  0.00  0.00    +0.000 C 
ATOM     12  O   UNL     1       7.880   5.582  13.280  0.00  0.00    +0.000 OA
ENDBRANCH   5  12
ENDBRANCH   1   8
BRANCH   2  13
ATOM     13  C   UNL     1       3.407   2.556  19.089  0.00  0.00    +0.000 C 
ATOM     14  C   UNL     1       4.633   2.245  19.948  0.00  0.00    +0.000 C 
BRANCH  13  15
ATOM     15  N   UNL     1       2.532   3.510  19.763  0.00  0.00    +0.000 N 
ATOM     16  C   UNL     1       1.245   3.312  20.176  0.00  0.00    +0.000 A 
ATOM     17  C   UNL     1       0.816   4.512  20.689  0.00  0.00    +0.000 A 
ATOM     18  C   UNL     1       1.919   5.373  20.547  0.00  0.00    +0.000 A 
ATOM     19  N   UNL     1       2.975   4.763  19.998  0.00  0.00    +0.000 NA
ENDBRANCH  13  15
ENDBRANCH   2  13
TORSDOF 4
ENDMDL
