MODEL 1
REMARK VINA RESULT:      -9.2      0.000      0.000
REMARK  Name = 
REMARK  11 active torsions:
REMARK  status: ('A' for Active; 'I' for Inactive)
REMARK    1  A    between atoms: C_1  and  C_2
REMARK    2  A    between atoms: C_2  and  C_3
REMARK    3  A    between atoms: C_3  and  C_4
REMARK    4  A    between atoms: C_4  and  C_5
REMARK    5  A    between atoms: C_6  and  C_7
REMARK    6  A    between atoms: C_7  and  C_8
REMARK    7  A    between atoms: C_8  and  C_9
REMARK    8  A    between atoms: C_11  and  O_12
REMARK    9  A    between atoms: C_17  and  C_18
REMARK   10  A    between atoms: C_17  and  C_19
REMARK   11  A    between atoms: C_23  and  C_24
REMARK                            x       y       z     vdW  Elec       q    Type
REMARK                         _______ _______ _______ _____ _____    ______ ____
ROOT
ATOM      1  C   UNL     1       6.619   4.665  14.882  0.00  0.00    +0.000 A 
ATOM      2  C   UNL     1       7.440   4.708  16.023  0.00  0.00    +0.000 A 
ATOM      3  C   UNL     1       6.945   4.416  17.341  0.00  0.00    +0.000 A 
ATOM      4  C   UNL     1       5.610   4.047  17.596  0.00  0.00    +0.000 A 
ATOM      5  C   UNL     1       4.796   4.093  16.409  0.00  0.00    +0.000 A 
ATOM      6  C   UNL     1       5.281   4.362  15.107  0.00  0.00    +0.000 A 
ATOM      7  O   UNL     1       3.407   4.002  16.443  0.00  0.00    +0.000 OA
ATOM      8  C   UNL     1       2.972   3.612  17.767  0.00  0.00    +0.000 C 
ATOM      9  C   UNL     1       3.385   2.067  17.764  0.00  0.00    +0.000 C 
ATOM     10  C   UNL     1       1.433   3.543  17.738  0.00  0.00    +0.000 C 
ATOM     11  C   UNL     1       3.725   4.803  18.698  0.00  0.00    +0.000 C 
ATOM     12  C   UNL     1       3.380   5.434  20.047  0.00  0.00    +0.000 C 
ATOM     13  C   UNL     1       2.243   4.737  20.457  0.00  0.00    +0.000 C 
ATOM     14  C   UNL     1       2.519   3.403  20.733  0.00  0.00    +0.000 C 
ATOM     15  C   UNL     1       1.285   2.908  21.454  0.00  0.00    +0.000 C 
ATOM     16  C   UNL     1       4.115   2.966  20.295  0.00  0.00    +0.000 C 
ATOM     17  C   UNL     1       4.967   4.038  19.079  0.00  0.00    +0.000 C 
ENDROOT
BRANCH   3  18
ATOM     18  O   UNL     1       7.798   4.597  18.397  0.00  0.00    +0.000 OA
ATOM     19  H   UNL     1       8.628   4.127  18.198  0.00  0.00    +0.000 HD
ENDBRANCH   3  18
BRANCH   1  20
ATOM     20  C   UNL     1       7.109   4.974  13.474  0.00  0.00    +0.000 C 
BRANCH  20  21
ATOM     21  C   UNL     1       7.045   3.810  12.464  0.00  0.00    +0.000 C 
BRANCH  21  23
ATOM     22  C   UNL     1       4.491   3.182  11.556  0.00  0.00    +0.000 C 
ATOM     23  C   UNL     1       5.683   3.483  11.993  0.00  0.00    +0.000 C 
BRANCH  22  24
ATOM     24  C   UNL     1       3.103   2.832  11.046  0.00  0.00    +0.000 C 
BRANCH  24  25
ATOM     25  C   UNL     1       2.976   3.213   9.576  0.00  0.00    +0.000 C 
BRANCH  25  27
ATOM     26  C   UNL     1       1.843   5.264   8.676  0.00  0.00    +0.000 C 
ATOM     27  C   UNL     1       3.072   4.724   9.389  0.00  0.00    +0.000 C 
ENDBRANCH  25  27
ENDBRANCH  24  25
ENDBRANCH  22  24
ENDBRANCH  21  23
ENDBRANCH  20  21
ENDBRANCH   1  20
TORSDOF 7
ENDMDL
MODEL 2
REMARK VINA RESULT:      -8.2      1.232      1.942
REMARK  Name = 
REMARK  11 active torsions:
REMARK  status: ('A' for Active; 'I' for Inactive)
REMARK    1  A    between atoms: C_1  and  C_2
REMARK    2  A    between atoms: C_2  and  C_3
REMARK    3  A    between atoms: C_3  and  C_4
REMARK    4  A    between atoms: C_4  and  C_5
REMARK    5  A    between atoms: C_6  and  C_7
REMARK    6  A    between atoms: C_7  and  C_8
REMARK    7  A    between atoms: C_8  and  C_9
REMARK    8  A    between atoms: C_11  and  O_12
REMARK    9  A    between atoms: C_17  and  C_18
REMARK   10  A    between atoms: C_17  and  C_19
REMARK   11  A    between atoms: C_23  and  C_24
REMARK                            x       y       z     vdW  Elec       q    Type
REMARK                         _______ _______ _______ _____ _____    ______ ____
ROOT
ATOM      1  C   UNL     1       6.616   4.701  14.712  0.00  0.00    +0.000 A 
ATOM      2  C   UNL     1       6.040   5.951  14.995  0.00  0.00    +0.000 A 
ATOM      3  C   UNL     1       5.082   6.139  16.050  0.00  0.00    +0.000 A 
ATOM      4  C   UNL     1       4.656   5.097  16.895  0.00  0.00    +0.000 A 
ATOM      5  C   UNL     1       5.215   3.825  16.516  0.00  0.00    +0.000 A 
ATOM      6  C   UNL     1       6.172   3.637  15.490  0.00  0.00    +0.000 A 
ATOM      7  O   UNL     1       4.767   2.617  17.043  0.00  0.00    +0.000 OA
ATOM      8  C   UNL     1       3.883   2.866  18.161  0.00  0.00    +0.000 C 
ATOM      9  C   UNL     1       4.942   3.317  19.272  0.00  0.00    +0.000 C 
ATOM     10  C   UNL     1       3.416   1.494  18.687  0.00  0.00    +0.000 C 
ATOM     11  C   UNL     1       2.757   3.895  17.436  0.00  0.00    +0.000 C 
ATOM     12  C   UNL     1       1.282   4.179  17.718  0.00  0.00    +0.000 C 
ATOM     13  C   UNL     1       1.005   3.401  18.843  0.00  0.00    +0.000 C 
ATOM     14  C   UNL     1       1.688   3.848  19.968  0.00  0.00    +0.000 C 
ATOM     15  C   UNL     1       1.031   3.118  21.118  0.00  0.00    +0.000 C 
ATOM     16  C   UNL     1       2.814   5.082  19.597  0.00  0.00    +0.000 C 
ATOM     17  C   UNL     1       3.359   5.213  17.853  0.00  0.00    +0.000 C 
ENDROOT
BRANCH   3  18
ATOM     18  O   UNL     1       4.498   7.373  16.169  0.00  0.00    +0.000 OA
ATOM     19  H   UNL     1       3.621   7.333  15.747  0.00  0.00    +0.000 HD
ENDBRANCH   3  18
BRANCH   1  20
ATOM     20  C   UNL     1       7.628   4.465  13.600  0.00  0.00    +0.000 C 
BRANCH  20  21
ATOM     21  C   UNL     1       7.119   4.690  12.160  0.00  0.00    +0.000 C 
BRANCH  21  23
ATOM     22  C   UNL     1       4.684   3.469  11.596  0.00  0.00    +0.000 C 
ATOM     23  C   UNL     1       5.832   4.029  11.857  0.00  0.00    +0.000 C 
BRANCH  22  24
ATOM     24  C   UNL     1       3.345   2.817  11.292  0.00  0.00    +0.000 C 
BRANCH  24  25
ATOM     25  C   UNL     1       2.940   3.104   9.851  0.00  0.00    +0.000 C 
BRANCH  25  27
ATOM     26  C   UNL     1       1.878   5.116   8.792  0.00  0.00    +0.000 C 
ATOM     27  C   UNL     1       3.101   4.585   9.519  0.00  0.00    +0.000 C 
ENDBRANCH  25  27
ENDBRANCH  24  25
ENDBRANCH  22  24
ENDBRANCH  21  23
ENDBRANCH  20  21
ENDBRANCH   1  20
TORSDOF 7
ENDMDL
MODEL 3
REMARK VINA RESULT:      -8.1      1.401      2.101
REMARK  Name = 
REMARK  11 active torsions:
REMARK  status: ('A' for Active; 'I' for Inactive)
REMARK    1  A    between atoms: C_1  and  C_2
REMARK    2  A    between atoms: C_2  and  C_3
REMARK    3  A    between atoms: C_3  and  C_4
REMARK    4  A    between atoms: C_4  and  C_5
REMARK    5  A    between atoms: C_6  and  C_7
REMARK    6  A    between atoms: C_7  and  C_8
REMARK    7  A    between atoms: C_8  and  C_9
REMARK    8  A    between atoms: C_11  and  O_12
REMARK    9  A    between atoms: C_17  and  C_18
REMARK   10  A    between atoms: C_17  and  C_19
REMARK   11  A    between atoms: C_23  and  C_24
REMARK                            x       y       z     vdW  Elec       q    Type
REMARK                         _______ _______ _______ _____ _____    ______ ____
ROOT
ATOM      1  C   UNL     1       5.719   5.492  15.324  0.00  0.00    +0.000 A 
ATOM      2  C   UNL     1       5.126   6.620  15.917  0.00  0.00    +0.000 A 
ATOM      3  C   UNL     1       4.322   6.534  17.106  0.00  0.00    +0.000 A 
ATOM      4  C   UNL     1       4.078   5.323  17.782  0.00  0.00    +0.000 A 
ATOM      5  C   UNL     1       4.643   4.191  17.093  0.00  0.00    +0.000 A 
ATOM      6  C   UNL     1       5.449   4.272  15.933  0.00  0.00    +0.000 A 
ATOM      7  O   UNL     1       4.339   2.875  17.432  0.00  0.00    +0.000 OA
ATOM      8  C   UNL     1       3.615   2.843  18.684  0.00  0.00    +0.000 C 
ATOM      9  C   UNL     1       4.798   3.164  19.711  0.00  0.00    +0.000 C 
ATOM     10  C   UNL     1       3.302   1.366  18.991  0.00  0.00    +0.000 C 
ATOM     11  C   UNL     1       2.344   3.896  18.327  0.00  0.00    +0.000 C 
ATOM     12  C   UNL     1       0.912   4.005  18.851  0.00  0.00    +0.000 C 
ATOM     13  C   UNL     1       0.842   3.014  19.831  0.00  0.00    +0.000 C 
ATOM     14  C   UNL     1       1.657   3.298  20.920  0.00  0.00    +0.000 C 
ATOM     15  C   UNL     1       1.212   2.319  21.984  0.00  0.00    +0.000 C 
ATOM     16  C   UNL     1       2.650   4.665  20.649  0.00  0.00    +0.000 C 
ATOM     17  C   UNL     1       2.930   5.158  18.908  0.00  0.00    +0.000 C 
ENDROOT
BRANCH   3  18
ATOM     18  O   UNL     1       3.697   7.674  17.538  0.00  0.00    +0.000 OA
ATOM     19  H   UNL     1       4.196   8.438  17.197  0.00  0.00    +0.000 HD
ENDBRANCH   3  18
BRANCH   1  20
ATOM     20  C   UNL     1       6.570   5.546  14.063  0.00  0.00    +0.000 C 
BRANCH  20  21
ATOM     21  C   UNL     1       7.087   4.192  13.534  0.00  0.00    +0.000 C 
BRANCH  21  23
ATOM     22  C   UNL     1       5.334   2.900  11.802  0.00  0.00    +0.000 C 
ATOM     23  C   UNL     1       6.154   3.495  12.623  0.00  0.00    +0.000 C 
BRANCH  22  24
ATOM     24  C   UNL     1       4.379   2.208  10.844  0.00  0.00    +0.000 C 
BRANCH  24  25
ATOM     25  C   UNL     1       3.082   3.001  10.735  0.00  0.00    +0.000 C 
BRANCH  25  27
ATOM     26  C   UNL     1       2.533   4.629   8.906  0.00  0.00    +0.000 C 
ATOM     27  C   UNL     1       3.337   4.397  10.174  0.00  0.00    +0.000 C 
ENDBRANCH  25  27
ENDBRANCH  24  25
ENDBRANCH  22  24
ENDBRANCH  21  23
ENDBRANCH  20  21
ENDBRANCH   1  20
TORSDOF 7
ENDMDL
MODEL 4
REMARK VINA RESULT:      -7.9      4.707      7.605
REMARK  Name = 
REMARK  11 active torsions:
REMARK  status: ('A' for Active; 'I' for Inactive)
REMARK    1  A    between atoms: C_1  and  C_2
REMARK    2  A    between atoms: C_2  and  C_3
REMARK    3  A    between atoms: C_3  and  C_4
REMARK    4  A    between atoms: C_4  and  C_5
REMARK    5  A    between atoms: C_6  and  C_7
REMARK    6  A    between atoms: C_7  and  C_8
REMARK    7  A    between atoms: C_8  and  C_9
REMARK    8  A    between atoms: C_11  and  O_12
REMARK    9  A    between atoms: C_17  and  C_18
REMARK   10  A    between atoms: C_17  and  C_19
REMARK   11  A    between atoms: C_23  and  C_24
REMARK                            x       y       z     vdW  Elec       q    Type
REMARK                         _______ _______ _______ _____ _____    ______ ____
ROOT
ATOM      1  C   UNL     1       7.273   6.808  17.356  0.00  0.00    +0.000 A 
ATOM      2  C   UNL     1       7.237   5.843  16.335  0.00  0.00    +0.000 A 
ATOM      3  C   UNL     1       6.183   4.870  16.230  0.00  0.00    +0.000 A 
ATOM      4  C   UNL     1       5.097   4.815  17.124  0.00  0.00    +0.000 A 
ATOM      5  C   UNL     1       5.221   5.773  18.192  0.00  0.00    +0.000 A 
ATOM      6  C   UNL     1       6.245   6.745  18.291  0.00  0.00    +0.000 A 
ATOM      7  O   UNL     1       4.404   5.755  19.320  0.00  0.00    +0.000 OA
ATOM      8  C   UNL     1       3.309   4.831  19.119  0.00  0.00    +0.000 C 
ATOM      9  C   UNL     1       2.408   5.668  18.096  0.00  0.00    +0.000 C 
ATOM     10  C   UNL     1       2.456   4.851  20.403  0.00  0.00    +0.000 C 
ATOM     11  C   UNL     1       4.162   3.429  18.720  0.00  0.00    +0.000 C 
ATOM     12  C   UNL     1       3.844   1.943  18.881  0.00  0.00    +0.000 C 
ATOM     13  C   UNL     1       2.556   1.937  19.417  0.00  0.00    +0.000 C 
ATOM     14  C   UNL     1       1.613   2.422  18.518  0.00  0.00    +0.000 C 
ATOM     15  C   UNL     1       0.284   2.041  19.131  0.00  0.00    +0.000 C 
ATOM     16  C   UNL     1       2.333   3.067  17.107  0.00  0.00    +0.000 C 
ATOM     17  C   UNL     1       4.097   3.548  17.218  0.00  0.00    +0.000 C 
ENDROOT
BRANCH   3  18
ATOM     18  O   UNL     1       6.301   3.903  15.267  0.00  0.00    +0.000 OA
ATOM     19  H   UNL     1       7.193   3.970  14.880  0.00  0.00    +0.000 HD
ENDBRANCH   3  18
BRANCH   1  20
ATOM     20  C   UNL     1       8.375   7.849  17.501  0.00  0.00    +0.000 C 
BRANCH  20  21
ATOM     21  C   UNL     1       7.916   9.281  17.844  0.00  0.00    +0.000 C 
BRANCH  21  23
ATOM     22  C   UNL     1       9.717  10.758  19.365  0.00  0.00    +0.000 C 
ATOM     23  C   UNL     1       8.879  10.054  18.656  0.00  0.00    +0.000 C 
BRANCH  22  24
ATOM     24  C   UNL     1      10.693  11.580  20.190  0.00  0.00    +0.000 C 
BRANCH  24  25
ATOM     25  C   UNL     1      11.927  11.913  19.361  0.00  0.00    +0.000 C 
BRANCH  25  27
ATOM     26  C   UNL     1      11.147  14.218  19.975  0.00  0.00    +0.000 C 
ATOM     27  C   UNL     1      12.333  13.373  19.540  0.00  0.00    +0.000 C 
ENDBRANCH  25  27
ENDBRANCH  24  25
ENDBRANCH  22  24
ENDBRANCH  21  23
ENDBRANCH  20  21
ENDBRANCH   1  20
TORSDOF 7
ENDMDL
MODEL 5
REMARK VINA RESULT:      -7.8      4.443      7.497
REMARK  Name = 
REMARK  11 active torsions:
REMARK  status: ('A' for Active; 'I' for Inactive)
REMARK    1  A    between atoms: C_1  and  C_2
REMARK    2  A    between atoms: C_2  and  C_3
REMARK    3  A    between atoms: C_3  and  C_4
REMARK    4  A    between atoms: C_4  and  C_5
REMARK    5  A    between atoms: C_6  and  C_7
REMARK    6  A    between atoms: C_7  and  C_8
REMARK    7  A    between atoms: C_8  and  C_9
REMARK    8  A    between atoms: C_11  and  O_12
REMARK    9  A    between atoms: C_17  and  C_18
REMARK   10  A    between atoms: C_17  and  C_19
REMARK   11  A    between atoms: C_23  and  C_24
REMARK                            x       y       z     vdW  Elec       q    Type
REMARK                         _______ _______ _______ _____ _____    ______ ____
ROOT
ATOM      1  C   UNL     1       7.234   6.821  17.317  0.00  0.00    +0.000 A 
ATOM      2  C   UNL     1       7.214   5.833  16.318  0.00  0.00    +0.000 A 
ATOM      3  C   UNL     1       6.170   4.849  16.226  0.00  0.00    +0.000 A 
ATOM      4  C   UNL     1       5.077   4.805  17.112  0.00  0.00    +0.000 A 
ATOM      5  C   UNL     1       5.184   5.788  18.160  0.00  0.00    +0.000 A 
ATOM      6  C   UNL     1       6.200   6.770  18.245  0.00  0.00    +0.000 A 
ATOM      7  O   UNL     1       4.358   5.788  19.281  0.00  0.00    +0.000 OA
ATOM      8  C   UNL     1       3.272   4.851  19.092  0.00  0.00    +0.000 C 
ATOM      9  C   UNL     1       2.373   5.657  18.043  0.00  0.00    +0.000 C 
ATOM     10  C   UNL     1       2.409   4.892  20.368  0.00  0.00    +0.000 C 
ATOM     11  C   UNL     1       4.140   3.448  18.732  0.00  0.00    +0.000 C 
ATOM     12  C   UNL     1       3.833   1.962  18.923  0.00  0.00    +0.000 C 
ATOM     13  C   UNL     1       2.540   1.958  19.449  0.00  0.00    +0.000 C 
ATOM     14  C   UNL     1       1.601   2.414  18.532  0.00  0.00    +0.000 C 
ATOM     15  C   UNL     1       0.270   2.036  19.142  0.00  0.00    +0.000 C 
ATOM     16  C   UNL     1       2.328   3.034  17.112  0.00  0.00    +0.000 C 
ATOM     17  C   UNL     1       4.086   3.532  17.227  0.00  0.00    +0.000 C 
ENDROOT
BRANCH   3  18
ATOM     18  O   UNL     1       6.304   3.862  15.286  0.00  0.00    +0.000 OA
ATOM     19  H   UNL     1       5.568   3.946  14.653  0.00  0.00    +0.000 HD
ENDBRANCH   3  18
BRANCH   1  20
ATOM     20  C   UNL     1       8.327   7.874  17.447  0.00  0.00    +0.000 C 
BRANCH  20  21
ATOM     21  C   UNL     1       7.864   9.282  17.876  0.00  0.00    +0.000 C 
BRANCH  21  23
ATOM     22  C   UNL     1       9.890  10.919  18.855  0.00  0.00    +0.000 C 
ATOM     23  C   UNL     1       8.941  10.143  18.408  0.00  0.00    +0.000 C 
BRANCH  22  24
ATOM     24  C   UNL     1      10.995  11.823  19.375  0.00  0.00    +0.000 C 
BRANCH  24  25
ATOM     25  C   UNL     1      10.771  12.123  20.852  0.00  0.00    +0.000 C 
BRANCH  25  27
ATOM     26  C   UNL     1       8.616  11.925  22.122  0.00  0.00    +0.000 C 
ATOM     27  C   UNL     1       9.390  12.726  21.088  0.00  0.00    +0.000 C 
ENDBRANCH  25  27
ENDBRANCH  24  25
ENDBRANCH  22  24
ENDBRANCH  21  23
ENDBRANCH  20  21
ENDBRANCH   1  20
TORSDOF 7
ENDMDL
MODEL 6
REMARK VINA RESULT:      -7.7      4.838      7.541
REMARK  Name = 
REMARK  11 active torsions:
REMARK  status: ('A' for Active; 'I' for Inactive)
REMARK    1  A    between atoms: C_1  and  C_2
REMARK    2  A    between atoms: C_2  and  C_3
REMARK    3  A    between atoms: C_3  and  C_4
REMARK    4  A    between atoms: C_4  and  C_5
REMARK    5  A    between atoms: C_6  and  C_7
REMARK    6  A    between atoms: C_7  and  C_8
REMARK    7  A    between atoms: C_8  and  C_9
REMARK    8  A    between atoms: C_11  and  O_12
REMARK    9  A    between atoms: C_17  and  C_18
REMARK   10  A    between atoms: C_17  and  C_19
REMARK   11  A    between atoms: C_23  and  C_24
REMARK                            x       y       z     vdW  Elec       q    Type
REMARK                         _______ _______ _______ _____ _____    ______ ____
ROOT
ATOM      1  C   UNL     1       7.428   7.507  17.808  0.00  0.00    +0.000 A 
ATOM      2  C   UNL     1       7.905   6.678  18.838  0.00  0.00    +0.000 A 
ATOM      3  C   UNL     1       7.140   5.577  19.359  0.00  0.00    +0.000 A 
ATOM      4  C   UNL     1       5.866   5.229  18.871  0.00  0.00    +0.000 A 
ATOM      5  C   UNL     1       5.393   6.153  17.873  0.00  0.00    +0.000 A 
ATOM      6  C   UNL     1       6.148   7.227  17.344  0.00  0.00    +0.000 A 
ATOM      7  O   UNL     1       4.078   6.160  17.415  0.00  0.00    +0.000 OA
ATOM      8  C   UNL     1       3.386   4.982  17.890  0.00  0.00    +0.000 C 
ATOM      9  C   UNL     1       4.037   3.864  16.950  0.00  0.00    +0.000 C 
ATOM     10  C   UNL     1       1.940   5.058  17.360  0.00  0.00    +0.000 C 
ATOM     11  C   UNL     1       3.660   5.116  19.551  0.00  0.00    +0.000 C 
ATOM     12  C   UNL     1       2.876   4.635  20.772  0.00  0.00    +0.000 C 
ATOM     13  C   UNL     1       1.805   3.931  20.220  0.00  0.00    +0.000 C 
ATOM     14  C   UNL     1       2.218   2.776  19.568  0.00  0.00    +0.000 C 
ATOM     15  C   UNL     1       0.940   2.003  19.333  0.00  0.00    +0.000 C 
ATOM     16  C   UNL     1       3.922   2.666  19.460  0.00  0.00    +0.000 C 
ATOM     17  C   UNL     1       4.870   4.222  19.650  0.00  0.00    +0.000 C 
ENDROOT
BRANCH   3  18
ATOM     18  O   UNL     1       7.647   4.902  20.438  0.00  0.00    +0.000 OA
ATOM     19  H   UNL     1       8.497   5.313  20.678  0.00  0.00    +0.000 HD
ENDBRANCH   3  18
BRANCH   1  20
ATOM     20  C   UNL     1       8.208   8.684  17.238  0.00  0.00    +0.000 C 
BRANCH  20  21
ATOM     21  C   UNL     1       8.124  10.004  18.033  0.00  0.00    +0.000 C 
BRANCH  21  23
ATOM     22  C   UNL     1      10.573  11.280  18.364  0.00  0.00    +0.000 C 
ATOM     23  C   UNL     1       9.420  10.689  18.220  0.00  0.00    +0.000 C 
BRANCH  22  24
ATOM     24  C   UNL     1      11.918  11.969  18.531  0.00  0.00    +0.000 C 
BRANCH  24  25
ATOM     25  C   UNL     1      11.935  12.774  19.824  0.00  0.00    +0.000 C 
BRANCH  25  27
ATOM     26  C   UNL     1      10.009  13.446  21.288  0.00  0.00    +0.000 C 
ATOM     27  C   UNL     1      10.689  13.648  19.944  0.00  0.00    +0.000 C 
ENDBRANCH  25  27
ENDBRANCH  24  25
ENDBRANCH  22  24
ENDBRANCH  21  23
ENDBRANCH  20  21
ENDBRANCH   1  20
TORSDOF 7
ENDMDL
MODEL 7
REMARK VINA RESULT:      -7.7      4.925      7.820
REMARK  Name = 
REMARK  11 active torsions:
REMARK  status: ('A' for Active; 'I' for Inactive)
REMARK    1  A    between atoms: C_1  and  C_2
REMARK    2  A    between atoms: C_2  and  C_3
REMARK    3  A    between atoms: C_3  and  C_4
REMARK    4  A    between atoms: C_4  and  C_5
REMARK    5  A    between atoms: C_6  and  C_7
REMARK    6  A    between atoms: C_7  and  C_8
REMARK    7  A    between atoms: C_8  and  C_9
REMARK    8  A    between atoms: C_11  and  O_12
REMARK    9  A    between atoms: C_17  and  C_18
REMARK   10  A    between atoms: C_17  and  C_19
REMARK   11  A    between atoms: C_23  and  C_24
REMARK                            x       y       z     vdW  Elec       q    Type
REMARK                         _______ _______ _______ _____ _____    ______ ____
ROOT
ATOM      1  C   UNL     1       1.165   9.244  20.305  0.00  0.00    +0.000 A 
ATOM      2  C   UNL     1       1.650   9.305  18.987  0.00  0.00    +0.000 A 
ATOM      3  C   UNL     1       2.151   8.150  18.294  0.00  0.00    +0.000 A 
ATOM      4  C   UNL     1       2.181   6.864  18.867  0.00  0.00    +0.000 A 
ATOM      5  C   UNL     1       1.746   6.869  20.241  0.00  0.00    +0.000 A 
ATOM      6  C   UNL     1       1.235   8.000  20.921  0.00  0.00    +0.000 A 
ATOM      7  O   UNL     1       1.908   5.775  21.087  0.00  0.00    +0.000 OA
ATOM      8  C   UNL     1       2.320   4.618  20.322  0.00  0.00    +0.000 C 
ATOM      9  C   UNL     1       0.944   4.248  19.595  0.00  0.00    +0.000 C 
ATOM     10  C   UNL     1       2.492   3.453  21.316  0.00  0.00    +0.000 C 
ATOM     11  C   UNL     1       3.681   5.239  19.539  0.00  0.00    +0.000 C 
ATOM     12  C   UNL     1       4.955   4.586  19.004  0.00  0.00    +0.000 C 
ATOM     13  C   UNL     1       4.754   3.226  19.242  0.00  0.00    +0.000 C 
ATOM     14  C   UNL     1       3.721   2.707  18.471  0.00  0.00    +0.000 C 
ATOM     15  C   UNL     1       3.866   1.208  18.613  0.00  0.00    +0.000 C 
ATOM     16  C   UNL     1       2.875   3.924  17.616  0.00  0.00    +0.000 C 
ATOM     17  C   UNL     1       3.029   5.639  18.240  0.00  0.00    +0.000 C 
ENDROOT
BRANCH   3  18
ATOM     18  O   UNL     1       2.705   8.338  17.055  0.00  0.00    +0.000 OA
ATOM     19  H   UNL     1       2.077   8.857  16.521  0.00  0.00    +0.000 HD
ENDBRANCH   3  18
BRANCH   1  20
ATOM     20  C   UNL     1       0.633  10.448  21.069  0.00  0.00    +0.000 C 
BRANCH  20  21
ATOM     21  C   UNL     1       0.256  11.679  20.219  0.00  0.00    +0.000 C 
BRANCH  21  23
ATOM     22  C   UNL     1      -2.158  11.412  18.861  0.00  0.00    +0.000 C 
ATOM     23  C   UNL     1      -1.026  11.551  19.493  0.00  0.00    +0.000 C 
BRANCH  22  24
ATOM     24  C   UNL     1      -3.477  11.250  18.125  0.00  0.00    +0.000 C 
BRANCH  24  25
ATOM     25  C   UNL     1      -3.321  10.248  16.988  0.00  0.00    +0.000 C 
BRANCH  25  27
ATOM     26  C   UNL     1      -2.982  10.026  14.511  0.00  0.00    +0.000 C 
ATOM     27  C   UNL     1      -2.810  10.928  15.721  0.00  0.00    +0.000 C 
ENDBRANCH  25  27
ENDBRANCH  24  25
ENDBRANCH  22  24
ENDBRANCH  21  23
ENDBRANCH  20  21
ENDBRANCH   1  20
TORSDOF 7
ENDMDL
MODEL 8
REMARK VINA RESULT:      -7.6      4.867      7.475
REMARK  Name = 
REMARK  11 active torsions:
REMARK  status: ('A' for Active; 'I' for Inactive)
REMARK    1  A    between atoms: C_1  and  C_2
REMARK    2  A    between atoms: C_2  and  C_3
REMARK    3  A    between atoms: C_3  and  C_4
REMARK    4  A    between atoms: C_4  and  C_5
REMARK    5  A    between atoms: C_6  and  C_7
REMARK    6  A    between atoms: C_7  and  C_8
REMARK    7  A    between atoms: C_8  and  C_9
REMARK    8  A    between atoms: C_11  and  O_12
REMARK    9  A    between atoms: C_17  and  C_18
REMARK   10  A    between atoms: C_17  and  C_19
REMARK   11  A    between atoms: C_23  and  C_24
REMARK                            x       y       z     vdW  Elec       q    Type
REMARK                         _______ _______ _______ _____ _____    ______ ____
ROOT
ATOM      1  C   UNL     1       1.983   9.461  18.672  0.00  0.00    +0.000 A 
ATOM      2  C   UNL     1       1.363   8.957  19.828  0.00  0.00    +0.000 A 
ATOM      3  C   UNL     1       1.492   7.585  20.238  0.00  0.00    +0.000 A 
ATOM      4  C   UNL     1       2.261   6.642  19.531  0.00  0.00    +0.000 A 
ATOM      5  C   UNL     1       2.811   7.187  18.316  0.00  0.00    +0.000 A 
ATOM      6  C   UNL     1       2.702   8.540  17.917  0.00  0.00    +0.000 A 
ATOM      7  O   UNL     1       3.404   6.396  17.335  0.00  0.00    +0.000 OA
ATOM      8  C   UNL     1       3.597   5.053  17.837  0.00  0.00    +0.000 C 
ATOM      9  C   UNL     1       4.827   5.289  18.832  0.00  0.00    +0.000 C 
ATOM     10  C   UNL     1       4.242   4.232  16.703  0.00  0.00    +0.000 C 
ATOM     11  C   UNL     1       2.024   4.682  18.328  0.00  0.00    +0.000 C 
ATOM     12  C   UNL     1       1.263   3.362  18.454  0.00  0.00    +0.000 C 
ATOM     13  C   UNL     1       2.214   2.399  18.117  0.00  0.00    +0.000 C 
ATOM     14  C   UNL     1       3.239   2.326  19.053  0.00  0.00    +0.000 C 
ATOM     15  C   UNL     1       3.970   1.048  18.707  0.00  0.00    +0.000 C 
ATOM     16  C   UNL     1       3.138   3.569  20.225  0.00  0.00    +0.000 C 
ATOM     17  C   UNL     1       2.153   5.049  19.785  0.00  0.00    +0.000 C 
ENDROOT
BRANCH   3  18
ATOM     18  O   UNL     1       0.756   7.170  21.317  0.00  0.00    +0.000 OA
ATOM     19  H   UNL     1      -0.174   7.412  21.158  0.00  0.00    +0.000 HD
ENDBRANCH   3  18
BRANCH   1  20
ATOM     20  C   UNL     1       1.863  10.905  18.206  0.00  0.00    +0.000 C 
BRANCH  20  21
ATOM     21  C   UNL     1       0.939  11.814  19.043  0.00  0.00    +0.000 C 
BRANCH  21  23
ATOM     22  C   UNL     1      -1.752  11.638  18.359  0.00  0.00    +0.000 C 
ATOM     23  C   UNL     1      -0.494  11.717  18.693  0.00  0.00    +0.000 C 
BRANCH  22  24
ATOM     24  C   UNL     1      -3.218  11.546  17.969  0.00  0.00    +0.000 C 
BRANCH  24  25
ATOM     25  C   UNL     1      -3.542  10.137  17.487  0.00  0.00    +0.000 C 
BRANCH  25  27
ATOM     26  C   UNL     1      -2.990  10.367  15.050  0.00  0.00    +0.000 C 
ATOM     27  C   UNL     1      -2.602   9.710  16.363  0.00  0.00    +0.000 C 
ENDBRANCH  25  27
ENDBRANCH  24  25
ENDBRANCH  22  24
ENDBRANCH  21  23
ENDBRANCH  20  21
ENDBRANCH   1  20
TORSDOF 7
ENDMDL
MODEL 9
REMARK VINA RESULT:      -7.5      5.246      7.483
REMARK  Name = 
REMARK  11 active torsions:
REMARK  status: ('A' for Active; 'I' for Inactive)
REMARK    1  A    between atoms: C_1  and  C_2
REMARK    2  A    between atoms: C_2  and  C_3
REMARK    3  A    between atoms: C_3  and  C_4
REMARK    4  A    between atoms: C_4  and  C_5
REMARK    5  A    between atoms: C_6  and  C_7
REMARK    6  A    between atoms: C_7  and  C_8
REMARK    7  A    between atoms: C_8  and  C_9
REMARK    8  A    between atoms: C_11  and  O_12
REMARK    9  A    between atoms: C_17  and  C_18
REMARK   10  A    between atoms: C_17  and  C_19
REMARK   11  A    between atoms: C_23  and  C_24
REMARK                            x       y       z     vdW  Elec       q    Type
REMARK                         _______ _______ _______ _____ _____    ______ ____
ROOT
ATOM      1  C   UNL     1       7.497   7.662  17.944  0.00  0.00    +0.000 A 
ATOM      2  C   UNL     1       7.983   6.751  18.897  0.00  0.00    +0.000 A 
ATOM      3  C   UNL     1       7.226   5.608  19.328  0.00  0.00    +0.000 A 
ATOM      4  C   UNL     1       5.951   5.296  18.821  0.00  0.00    +0.000 A 
ATOM      5  C   UNL     1       5.467   6.299  17.907  0.00  0.00    +0.000 A 
ATOM      6  C   UNL     1       6.215   7.417  17.466  0.00  0.00    +0.000 A 
ATOM      7  O   UNL     1       4.149   6.339  17.459  0.00  0.00    +0.000 OA
ATOM      8  C   UNL     1       3.464   5.122  17.838  0.00  0.00    +0.000 C 
ATOM      9  C   UNL     1       4.113   4.090  16.803  0.00  0.00    +0.000 C 
ATOM     10  C   UNL     1       2.015   5.237  17.325  0.00  0.00    +0.000 C 
ATOM     11  C   UNL     1       3.749   5.117  19.502  0.00  0.00    +0.000 C 
ATOM     12  C   UNL     1       2.975   4.532  20.684  0.00  0.00    +0.000 C 
ATOM     13  C   UNL     1       1.903   3.873  20.082  0.00  0.00    +0.000 C 
ATOM     14  C   UNL     1       2.316   2.778  19.332  0.00  0.00    +0.000 C 
ATOM     15  C   UNL     1       1.038   2.022  19.041  0.00  0.00    +0.000 C 
ATOM     16  C   UNL     1       4.019   2.685  19.204  0.00  0.00    +0.000 C 
ATOM     17  C   UNL     1       4.963   4.223  19.518  0.00  0.00    +0.000 C 
ENDROOT
BRANCH   3  18
ATOM     18  O   UNL     1       7.743   4.846  20.343  0.00  0.00    +0.000 OA
ATOM     19  H   UNL     1       8.677   4.662  20.137  0.00  0.00    +0.000 HD
ENDBRANCH   3  18
BRANCH   1  20
ATOM     20  C   UNL     1       8.269   8.886  17.469  0.00  0.00    +0.000 C 
BRANCH  20  21
ATOM     21  C   UNL     1       8.851   9.792  18.575  0.00  0.00    +0.000 C 
BRANCH  21  23
ATOM     22  C   UNL     1      10.171  12.045  17.614  0.00  0.00    +0.000 C 
ATOM     23  C   UNL     1       9.546  10.996  18.075  0.00  0.00    +0.000 C 
BRANCH  22  24
ATOM     24  C   UNL     1      10.900  13.265  17.077  0.00  0.00    +0.000 C 
BRANCH  24  25
ATOM     25  C   UNL     1      11.029  14.319  18.170  0.00  0.00    +0.000 C 
BRANCH  25  27
ATOM     26  C   UNL     1      11.256  16.463  16.886  0.00  0.00    +0.000 C 
ATOM     27  C   UNL     1      10.345  15.621  17.763  0.00  0.00    +0.000 C 
ENDBRANCH  25  27
ENDBRANCH  24  25
ENDBRANCH  22  24
ENDBRANCH  21  23
ENDBRANCH  20  21
ENDBRANCH   1  20
TORSDOF 7
ENDMDL
