MODEL 1
REMARK VINA RESULT:      -8.7      0.000      0.000
REMARK  Name = 
REMARK  5 active torsions:
REMARK  status: ('A' for Active; 'I' for Inactive)
REMARK    1  A    between atoms: C_1  and  C_2
REMARK    2  A    between atoms: C_5  and  S_6
REMARK    3  A    between atoms: S_6  and  N_9
REMARK    4  A    between atoms: N_9  and  C_10
REMARK    5  A    between atoms: C_15  and  C_16
REMARK                            x       y       z     vdW  Elec       q    Type
REMARK                         _______ _______ _______ _____ _____    ______ ____
ROOT
ATOM      1  C   UNL     1       2.922   6.021  18.897  0.00  0.00    +0.000 A 
ATOM      2  C   UNL     1       3.108   6.865  17.795  0.00  0.00    +0.000 A 
ATOM      3  C   UNL     1       2.604   8.176  17.797  0.00  0.00    +0.000 A 
ATOM      4  C   UNL     1       1.917   8.616  18.935  0.00  0.00    +0.000 A 
ATOM      5  N   UNL     1       1.331   9.821  19.223  0.00  0.00    +0.000 NA
ATOM      6  C   UNL     1       0.830   9.647  20.433  0.00  0.00    +0.000 A 
ATOM      7  O   UNL     1       1.048   8.400  20.967  0.00  0.00    +0.000 OA
ATOM      8  C   UNL     1       1.748   7.743  19.997  0.00  0.00    +0.000 A 
ATOM      9  C   UNL     1       2.216   6.435  20.031  0.00  0.00    +0.000 A 
ENDROOT
BRANCH   6  10
ATOM     10  C   UNL     1       0.061  10.590  21.247  0.00  0.00    +0.000 A 
ATOM     11  C   UNL     1      -0.554  10.140  22.429  0.00  0.00    +0.000 A 
ATOM     12  C   UNL     1      -1.262  11.022  23.249  0.00  0.00    +0.000 A 
ATOM     13  C   UNL     1      -1.363  12.359  22.889  0.00  0.00    +0.000 A 
ATOM     14  F   UNL     1      -2.029  13.209  23.681  0.00  0.00    +0.000 F 
ATOM     15  C   UNL     1      -0.778  12.828  21.719  0.00  0.00    +0.000 A 
ATOM     16  C   UNL     1      -0.069  11.945  20.897  0.00  0.00    +0.000 A 
ENDBRANCH   6  10
BRANCH   1  17
ATOM     17  N   UNL     1       3.410   4.696  18.844  0.00  0.00    +0.000 N 
ATOM     18  H   UNL     1       2.776   3.905  18.758  0.00  0.00    +0.000 HD
BRANCH  17  19
ATOM     19  S   UNL     1       5.037   4.352  19.030  0.00  0.00    +0.000 S 
ATOM     20  O   UNL     1       5.182   3.001  19.534  0.00  0.00    +0.000 OA
ATOM     21  O   UNL     1       5.604   5.479  19.740  0.00  0.00    +0.000 OA
BRANCH  19  26
ATOM     22  C   UNL     1       7.113   4.660  13.325  0.00  0.00    +0.000 C 
ATOM     23  C   UNL     1       6.603   4.558  14.734  0.00  0.00    +0.000 A 
ATOM     24  C   UNL     1       5.313   4.078  14.997  0.00  0.00    +0.000 A 
ATOM     25  C   UNL     1       4.840   3.999  16.309  0.00  0.00    +0.000 A 
ATOM     26  C   UNL     1       5.664   4.395  17.367  0.00  0.00    +0.000 A 
ATOM     27  C   UNL     1       6.946   4.893  17.117  0.00  0.00    +0.000 A 
ATOM     28  C   UNL     1       7.414   4.965  15.803  0.00  0.00    +0.000 A 
ENDBRANCH  19  26
ENDBRANCH  17  19
ENDBRANCH   1  17
TORSDOF 4
ENDMDL
MODEL 2
REMARK VINA RESULT:      -8.4      4.818      7.597
REMARK  Name = 
REMARK  5 active torsions:
REMARK  status: ('A' for Active; 'I' for Inactive)
REMARK    1  A    between atoms: C_1  and  C_2
REMARK    2  A    between atoms: C_5  and  S_6
REMARK    3  A    between atoms: S_6  and  N_9
REMARK    4  A    between atoms: N_9  and  C_10
REMARK    5  A    between atoms: C_15  and  C_16
REMARK                            x       y       z     vdW  Elec       q    Type
REMARK                         _______ _______ _______ _____ _____    ______ ____
ROOT
ATOM      1  C   UNL     1       5.713   5.325  17.217  0.00  0.00    +0.000 A 
ATOM      2  C   UNL     1       6.626   4.729  18.098  0.00  0.00    +0.000 A 
ATOM      3  C   UNL     1       7.660   5.479  18.681  0.00  0.00    +0.000 A 
ATOM      4  C   UNL     1       7.748   6.840  18.362  0.00  0.00    +0.000 A 
ATOM      5  N   UNL     1       8.628   7.806  18.773  0.00  0.00    +0.000 NA
ATOM      6  C   UNL     1       8.227   8.892  18.136  0.00  0.00    +0.000 A 
ATOM      7  O   UNL     1       7.132   8.706  17.327  0.00  0.00    +0.000 OA
ATOM      8  C   UNL     1       6.831   7.384  17.478  0.00  0.00    +0.000 A 
ATOM      9  C   UNL     1       5.802   6.676  16.868  0.00  0.00    +0.000 A 
ENDROOT
BRANCH   6  10
ATOM     10  C   UNL     1       8.810  10.234  18.164  0.00  0.00    +0.000 A 
ATOM     11  C   UNL     1       8.124  11.297  17.548  0.00  0.00    +0.000 A 
ATOM     12  C   UNL     1       8.633  12.598  17.589  0.00  0.00    +0.000 A 
ATOM     13  C   UNL     1       9.833  12.842  18.242  0.00  0.00    +0.000 A 
ATOM     14  F   UNL     1      10.315  14.090  18.295  0.00  0.00    +0.000 F 
ATOM     15  C   UNL     1      10.539  11.809  18.845  0.00  0.00    +0.000 A 
ATOM     16  C   UNL     1      10.030  10.506  18.804  0.00  0.00    +0.000 A 
ENDBRANCH   6  10
BRANCH   1  17
ATOM     17  N   UNL     1       4.708   4.531  16.620  0.00  0.00    +0.000 N 
ATOM     18  H   UNL     1       4.642   4.439  15.610  0.00  0.00    +0.000 HD
BRANCH  17  19
ATOM     19  S   UNL     1       3.515   3.794  17.532  0.00  0.00    +0.000 S 
ATOM     20  O   UNL     1       4.119   2.782  18.376  0.00  0.00    +0.000 OA
ATOM     21  O   UNL     1       2.455   3.459  16.605  0.00  0.00    +0.000 OA
BRANCH  19  26
ATOM     22  C   UNL     1       1.318   8.242  21.045  0.00  0.00    +0.000 C 
ATOM     23  C   UNL     1       1.884   7.154  20.179  0.00  0.00    +0.000 A 
ATOM     24  C   UNL     1       2.249   7.410  18.850  0.00  0.00    +0.000 A 
ATOM     25  C   UNL     1       2.763   6.390  18.047  0.00  0.00    +0.000 A 
ATOM     26  C   UNL     1       2.920   5.105  18.576  0.00  0.00    +0.000 A 
ATOM     27  C   UNL     1       2.543   4.831  19.894  0.00  0.00    +0.000 A 
ATOM     28  C   UNL     1       2.035   5.858  20.693  0.00  0.00    +0.000 A 
ENDBRANCH  19  26
ENDBRANCH  17  19
ENDBRANCH   1  17
TORSDOF 4
ENDMDL
MODEL 3
REMARK VINA RESULT:      -8.3      4.828      7.588
REMARK  Name = 
REMARK  5 active torsions:
REMARK  status: ('A' for Active; 'I' for Inactive)
REMARK    1  A    between atoms: C_1  and  C_2
REMARK    2  A    between atoms: C_5  and  S_6
REMARK    3  A    between atoms: S_6  and  N_9
REMARK    4  A    between atoms: N_9  and  C_10
REMARK    5  A    between atoms: C_15  and  C_16
REMARK                            x       y       z     vdW  Elec       q    Type
REMARK                         _______ _______ _______ _____ _____    ______ ____
ROOT
ATOM      1  C   UNL     1       5.650   5.314  17.185  0.00  0.00    +0.000 A 
ATOM      2  C   UNL     1       6.569   4.707  18.051  0.00  0.00    +0.000 A 
ATOM      3  C   UNL     1       7.608   5.449  18.636  0.00  0.00    +0.000 A 
ATOM      4  C   UNL     1       7.695   6.813  18.332  0.00  0.00    +0.000 A 
ATOM      5  N   UNL     1       8.579   7.774  18.748  0.00  0.00    +0.000 NA
ATOM      6  C   UNL     1       8.174   8.868  18.128  0.00  0.00    +0.000 A 
ATOM      7  O   UNL     1       7.073   8.692  17.324  0.00  0.00    +0.000 OA
ATOM      8  C   UNL     1       6.771   7.369  17.462  0.00  0.00    +0.000 A 
ATOM      9  C   UNL     1       5.737   6.669  16.851  0.00  0.00    +0.000 A 
ENDROOT
BRANCH   6  10
ATOM     10  C   UNL     1       8.759  10.209  18.166  0.00  0.00    +0.000 A 
ATOM     11  C   UNL     1       9.991  10.406  18.815  0.00  0.00    +0.000 A 
ATOM     12  C   UNL     1      10.597  11.665  18.838  0.00  0.00    +0.000 A 
ATOM     13  C   UNL     1       9.970  12.735  18.215  0.00  0.00    +0.000 A 
ATOM     14  F   UNL     1      10.555  13.940  18.222  0.00  0.00    +0.000 F 
ATOM     15  C   UNL     1       8.745  12.573  17.580  0.00  0.00    +0.000 A 
ATOM     16  C   UNL     1       8.138  11.312  17.557  0.00  0.00    +0.000 A 
ENDBRANCH   6  10
BRANCH   1  17
ATOM     17  N   UNL     1       4.640   4.528  16.586  0.00  0.00    +0.000 N 
ATOM     18  H   UNL     1       4.559   4.458  15.575  0.00  0.00    +0.000 HD
BRANCH  17  19
ATOM     19  S   UNL     1       3.464   3.765  17.500  0.00  0.00    +0.000 S 
ATOM     20  O   UNL     1       4.095   2.787  18.364  0.00  0.00    +0.000 OA
ATOM     21  O   UNL     1       2.424   3.381  16.570  0.00  0.00    +0.000 OA
BRANCH  19  26
ATOM     22  C   UNL     1       1.414   8.270  21.030  0.00  0.00    +0.000 C 
ATOM     23  C   UNL     1       1.897   7.146  20.159  0.00  0.00    +0.000 A 
ATOM     24  C   UNL     1       2.096   5.863  20.685  0.00  0.00    +0.000 A 
ATOM     25  C   UNL     1       2.558   4.827  19.871  0.00  0.00    +0.000 A 
ATOM     26  C   UNL     1       2.817   5.071  18.519  0.00  0.00    +0.000 A 
ATOM     27  C   UNL     1       2.640   6.351  17.985  0.00  0.00    +0.000 A 
ATOM     28  C   UNL     1       2.172   7.382  18.804  0.00  0.00    +0.000 A 
ENDBRANCH  19  26
ENDBRANCH  17  19
ENDBRANCH   1  17
TORSDOF 4
ENDMDL
MODEL 4
REMARK VINA RESULT:      -8.1      2.002      2.553
REMARK  Name = 
REMARK  5 active torsions:
REMARK  status: ('A' for Active; 'I' for Inactive)
REMARK    1  A    between atoms: C_1  and  C_2
REMARK    2  A    between atoms: C_5  and  S_6
REMARK    3  A    between atoms: S_6  and  N_9
REMARK    4  A    between atoms: N_9  and  C_10
REMARK    5  A    between atoms: C_15  and  C_16
REMARK                            x       y       z     vdW  Elec       q    Type
REMARK                         _______ _______ _______ _____ _____    ______ ____
ROOT
ATOM      1  C   UNL     1       2.664   5.757  19.181  0.00  0.00    +0.000 A 
ATOM      2  C   UNL     1       2.139   5.705  20.479  0.00  0.00    +0.000 A 
ATOM      3  C   UNL     1       1.513   6.824  21.050  0.00  0.00    +0.000 A 
ATOM      4  C   UNL     1       1.424   7.992  20.283  0.00  0.00    +0.000 A 
ATOM      5  N   UNL     1       0.874   9.216  20.565  0.00  0.00    +0.000 NA
ATOM      6  C   UNL     1       1.096   9.923  19.471  0.00  0.00    +0.000 A 
ATOM      7  O   UNL     1       1.760   9.242  18.478  0.00  0.00    +0.000 OA
ATOM      8  C   UNL     1       1.966   8.002  19.009  0.00  0.00    +0.000 A 
ATOM      9  C   UNL     1       2.606   6.923  18.410  0.00  0.00    +0.000 A 
ENDROOT
BRANCH   6  10
ATOM     10  C   UNL     1       0.756  11.320  19.203  0.00  0.00    +0.000 A 
ATOM     11  C   UNL     1       1.766  12.210  18.793  0.00  0.00    +0.000 A 
ATOM     12  C   UNL     1       1.469  13.542  18.491  0.00  0.00    +0.000 A 
ATOM     13  C   UNL     1       0.160  13.992  18.602  0.00  0.00    +0.000 A 
ATOM     14  F   UNL     1      -0.130  15.264  18.299  0.00  0.00    +0.000 F 
ATOM     15  C   UNL     1      -0.854  13.139  19.019  0.00  0.00    +0.000 A 
ATOM     16  C   UNL     1      -0.557  11.806  19.322  0.00  0.00    +0.000 A 
ENDBRANCH   6  10
BRANCH   1  17
ATOM     17  N   UNL     1       3.320   4.623  18.653  0.00  0.00    +0.000 N 
ATOM     18  H   UNL     1       2.804   3.902  18.154  0.00  0.00    +0.000 HD
BRANCH  17  19
ATOM     19  S   UNL     1       4.950   4.352  18.913  0.00  0.00    +0.000 S 
ATOM     20  O   UNL     1       5.132   3.006  19.418  0.00  0.00    +0.000 OA
ATOM     21  O   UNL     1       5.431   5.499  19.653  0.00  0.00    +0.000 OA
BRANCH  19  26
ATOM     22  C   UNL     1       7.302   4.800  13.326  0.00  0.00    +0.000 C 
ATOM     23  C   UNL     1       6.719   4.663  14.703  0.00  0.00    +0.000 A 
ATOM     24  C   UNL     1       5.365   4.352  14.883  0.00  0.00    +0.000 A 
ATOM     25  C   UNL     1       4.828   4.240  16.167  0.00  0.00    +0.000 A 
ATOM     26  C   UNL     1       5.651   4.433  17.281  0.00  0.00    +0.000 A 
ATOM     27  C   UNL     1       6.999   4.762  17.116  0.00  0.00    +0.000 A 
ATOM     28  C   UNL     1       7.531   4.867  15.828  0.00  0.00    +0.000 A 
ENDBRANCH  19  26
ENDBRANCH  17  19
ENDBRANCH   1  17
TORSDOF 4
ENDMDL
MODEL 5
REMARK VINA RESULT:      -8.1      4.173     10.187
REMARK  Name = 
REMARK  5 active torsions:
REMARK  status: ('A' for Active; 'I' for Inactive)
REMARK    1  A    between atoms: C_1  and  C_2
REMARK    2  A    between atoms: C_5  and  S_6
REMARK    3  A    between atoms: S_6  and  N_9
REMARK    4  A    between atoms: N_9  and  C_10
REMARK    5  A    between atoms: C_15  and  C_16
REMARK                            x       y       z     vdW  Elec       q    Type
REMARK                         _______ _______ _______ _____ _____    ______ ____
ROOT
ATOM      1  C   UNL     1       0.887  10.295  19.732  0.00  0.00    +0.000 A 
ATOM      2  C   UNL     1       0.743   9.422  20.818  0.00  0.00    +0.000 A 
ATOM      3  C   UNL     1       1.314   8.139  20.793  0.00  0.00    +0.000 A 
ATOM      4  C   UNL     1       2.035   7.761  19.654  0.00  0.00    +0.000 A 
ATOM      5  N   UNL     1       2.696   6.599  19.351  0.00  0.00    +0.000 NA
ATOM      6  C   UNL     1       3.176   6.814  18.139  0.00  0.00    +0.000 A 
ATOM      7  O   UNL     1       2.875   8.051  17.619  0.00  0.00    +0.000 OA
ATOM      8  C   UNL     1       2.142   8.652  18.599  0.00  0.00    +0.000 A 
ATOM      9  C   UNL     1       1.582   9.924  18.576  0.00  0.00    +0.000 A 
ENDROOT
BRANCH   6  10
ATOM     10  C   UNL     1       3.949   5.908  17.289  0.00  0.00    +0.000 A 
ATOM     11  C   UNL     1       4.779   6.442  16.286  0.00  0.00    +0.000 A 
ATOM     12  C   UNL     1       5.560   5.608  15.482  0.00  0.00    +0.000 A 
ATOM     13  C   UNL     1       5.511   4.234  15.674  0.00  0.00    +0.000 A 
ATOM     14  F   UNL     1       6.269   3.432  14.914  0.00  0.00    +0.000 F 
ATOM     15  C   UNL     1       4.689   3.678  16.646  0.00  0.00    +0.000 A 
ATOM     16  C   UNL     1       3.906   4.513  17.451  0.00  0.00    +0.000 A 
ENDBRANCH   6  10
BRANCH   1  17
ATOM     17  N   UNL     1       0.268  11.564  19.778  0.00  0.00    +0.000 N 
ATOM     18  H   UNL     1       0.735  12.362  20.201  0.00  0.00    +0.000 HD
BRANCH  17  19
ATOM     19  S   UNL     1      -1.299  11.795  19.240  0.00  0.00    +0.000 S 
ATOM     20  O   UNL     1      -1.801  10.552  18.690  0.00  0.00    +0.000 OA
ATOM     21  O   UNL     1      -1.274  13.006  18.447  0.00  0.00    +0.000 OA
BRANCH  19  26
ATOM     22  C   UNL     1      -4.452  12.841  24.331  0.00  0.00    +0.000 C 
ATOM     23  C   UNL     1      -3.671  12.608  23.070  0.00  0.00    +0.000 A 
ATOM     24  C   UNL     1      -4.250  12.836  21.814  0.00  0.00    +0.000 A 
ATOM     25  C   UNL     1      -3.522  12.605  20.646  0.00  0.00    +0.000 A 
ATOM     26  C   UNL     1      -2.203  12.149  20.731  0.00  0.00    +0.000 A 
ATOM     27  C   UNL     1      -1.619  11.899  21.976  0.00  0.00    +0.000 A 
ATOM     28  C   UNL     1      -2.352  12.138  23.141  0.00  0.00    +0.000 A 
ENDBRANCH  19  26
ENDBRANCH  17  19
ENDBRANCH   1  17
TORSDOF 4
ENDMDL
MODEL 6
REMARK VINA RESULT:      -8.1      2.038      2.660
REMARK  Name = 
REMARK  5 active torsions:
REMARK  status: ('A' for Active; 'I' for Inactive)
REMARK    1  A    between atoms: C_1  and  C_2
REMARK    2  A    between atoms: C_5  and  S_6
REMARK    3  A    between atoms: S_6  and  N_9
REMARK    4  A    between atoms: N_9  and  C_10
REMARK    5  A    between atoms: C_15  and  C_16
REMARK                            x       y       z     vdW  Elec       q    Type
REMARK                         _______ _______ _______ _____ _____    ______ ____
ROOT
ATOM      1  C   UNL     1       2.651   5.744  19.202  0.00  0.00    +0.000 A 
ATOM      2  C   UNL     1       2.075   5.715  20.478  0.00  0.00    +0.000 A 
ATOM      3  C   UNL     1       1.447   6.852  21.013  0.00  0.00    +0.000 A 
ATOM      4  C   UNL     1       1.409   8.012  20.230  0.00  0.00    +0.000 A 
ATOM      5  N   UNL     1       0.871   9.248  20.477  0.00  0.00    +0.000 NA
ATOM      6  C   UNL     1       1.149   9.940  19.386  0.00  0.00    +0.000 A 
ATOM      7  O   UNL     1       1.840   9.237  18.428  0.00  0.00    +0.000 OA
ATOM      8  C   UNL     1       2.002   7.999  18.979  0.00  0.00    +0.000 A 
ATOM      9  C   UNL     1       2.646   6.902  18.418  0.00  0.00    +0.000 A 
ENDROOT
BRANCH   6  10
ATOM     10  C   UNL     1       0.845  11.340  19.090  0.00  0.00    +0.000 A 
ATOM     11  C   UNL     1      -0.483  11.793  19.186  0.00  0.00    +0.000 A 
ATOM     12  C   UNL     1      -0.803  13.132  18.949  0.00  0.00    +0.000 A 
ATOM     13  C   UNL     1       0.204  14.025  18.609  0.00  0.00    +0.000 A 
ATOM     14  F   UNL     1      -0.098  15.312  18.395  0.00  0.00    +0.000 F 
ATOM     15  C   UNL     1       1.521  13.602  18.491  0.00  0.00    +0.000 A 
ATOM     16  C   UNL     1       1.843  12.261  18.729  0.00  0.00    +0.000 A 
ENDBRANCH   6  10
BRANCH   1  17
ATOM     17  N   UNL     1       3.307   4.592  18.713  0.00  0.00    +0.000 N 
ATOM     18  H   UNL     1       2.787   3.839  18.270  0.00  0.00    +0.000 HD
BRANCH  17  19
ATOM     19  S   UNL     1       4.949   4.359  18.931  0.00  0.00    +0.000 S 
ATOM     20  O   UNL     1       5.179   3.005  19.395  0.00  0.00    +0.000 OA
ATOM     21  O   UNL     1       5.416   5.498  19.692  0.00  0.00    +0.000 OA
BRANCH  19  26
ATOM     22  C   UNL     1       7.257   4.684  13.316  0.00  0.00    +0.000 C 
ATOM     23  C   UNL     1       6.689   4.629  14.706  0.00  0.00    +0.000 A 
ATOM     24  C   UNL     1       7.511   4.815  15.825  0.00  0.00    +0.000 A 
ATOM     25  C   UNL     1       6.978   4.749  17.114  0.00  0.00    +0.000 A 
ATOM     26  C   UNL     1       5.613   4.503  17.287  0.00  0.00    +0.000 A 
ATOM     27  C   UNL     1       4.785   4.298  16.180  0.00  0.00    +0.000 A 
ATOM     28  C   UNL     1       5.324   4.370  14.893  0.00  0.00    +0.000 A 
ENDBRANCH  19  26
ENDBRANCH  17  19
ENDBRANCH   1  17
TORSDOF 4
ENDMDL
MODEL 7
REMARK VINA RESULT:      -8.0      4.104     10.147
REMARK  Name = 
REMARK  5 active torsions:
REMARK  status: ('A' for Active; 'I' for Inactive)
REMARK    1  A    between atoms: C_1  and  C_2
REMARK    2  A    between atoms: C_5  and  S_6
REMARK    3  A    between atoms: S_6  and  N_9
REMARK    4  A    between atoms: N_9  and  C_10
REMARK    5  A    between atoms: C_15  and  C_16
REMARK                            x       y       z     vdW  Elec       q    Type
REMARK                         _______ _______ _______ _____ _____    ______ ____
ROOT
ATOM      1  C   UNL     1       0.580  10.282  19.511  0.00  0.00    +0.000 A 
ATOM      2  C   UNL     1       0.522   9.478  20.657  0.00  0.00    +0.000 A 
ATOM      3  C   UNL     1       1.207   8.253  20.714  0.00  0.00    +0.000 A 
ATOM      4  C   UNL     1       1.953   7.863  19.596  0.00  0.00    +0.000 A 
ATOM      5  N   UNL     1       2.716   6.747  19.366  0.00  0.00    +0.000 NA
ATOM      6  C   UNL     1       3.169   6.920  18.137  0.00  0.00    +0.000 A 
ATOM      7  O   UNL     1       2.754   8.084  17.536  0.00  0.00    +0.000 OA
ATOM      8  C   UNL     1       1.973   8.684  18.481  0.00  0.00    +0.000 A 
ATOM      9  C   UNL     1       1.300   9.895  18.376  0.00  0.00    +0.000 A 
ENDROOT
BRANCH   6  10
ATOM     10  C   UNL     1       4.016   6.030  17.343  0.00  0.00    +0.000 A 
ATOM     11  C   UNL     1       3.898   4.637  17.507  0.00  0.00    +0.000 A 
ATOM     12  C   UNL     1       4.664   3.757  16.738  0.00  0.00    +0.000 A 
ATOM     13  C   UNL     1       5.555   4.266  15.803  0.00  0.00    +0.000 A 
ATOM     14  F   UNL     1       6.280   3.425  15.054  0.00  0.00    +0.000 F 
ATOM     15  C   UNL     1       5.703   5.637  15.631  0.00  0.00    +0.000 A 
ATOM     16  C   UNL     1       4.937   6.518  16.401  0.00  0.00    +0.000 A 
ENDBRANCH   6  10
BRANCH   1  17
ATOM     17  N   UNL     1      -0.152  11.490  19.476  0.00  0.00    +0.000 N 
ATOM     18  H   UNL     1      -0.883  11.641  18.785  0.00  0.00    +0.000 HD
BRANCH  17  19
ATOM     19  S   UNL     1       0.217  12.770  20.488  0.00  0.00    +0.000 S 
ATOM     20  O   UNL     1       0.134  14.007  19.738  0.00  0.00    +0.000 OA
ATOM     21  O   UNL     1       1.433  12.394  21.177  0.00  0.00    +0.000 OA
BRANCH  19  26
ATOM     22  C   UNL     1      -4.390  12.612  24.450  0.00  0.00    +0.000 C 
ATOM     23  C   UNL     1      -3.242  12.672  23.484  0.00  0.00    +0.000 A 
ATOM     24  C   UNL     1      -3.173  13.679  22.512  0.00  0.00    +0.000 A 
ATOM     25  C   UNL     1      -2.109  13.720  21.608  0.00  0.00    +0.000 A 
ATOM     26  C   UNL     1      -1.102  12.752  21.680  0.00  0.00    +0.000 A 
ATOM     27  C   UNL     1      -1.169  11.731  22.632  0.00  0.00    +0.000 A 
ATOM     28  C   UNL     1      -2.233  11.699  23.536  0.00  0.00    +0.000 A 
ENDBRANCH  19  26
ENDBRANCH  17  19
ENDBRANCH   1  17
TORSDOF 4
ENDMDL
MODEL 8
REMARK VINA RESULT:      -8.0      1.740      2.018
REMARK  Name = 
REMARK  5 active torsions:
REMARK  status: ('A' for Active; 'I' for Inactive)
REMARK    1  A    between atoms: C_1  and  C_2
REMARK    2  A    between atoms: C_5  and  S_6
REMARK    3  A    between atoms: S_6  and  N_9
REMARK    4  A    between atoms: N_9  and  C_10
REMARK    5  A    between atoms: C_15  and  C_16
REMARK                            x       y       z     vdW  Elec       q    Type
REMARK                         _______ _______ _______ _____ _____    ______ ____
ROOT
ATOM      1  C   UNL     1       2.387   7.514  19.399  0.00  0.00    +0.000 A 
ATOM      2  C   UNL     1       2.328   8.164  18.160  0.00  0.00    +0.000 A 
ATOM      3  C   UNL     1       1.520   9.298  17.977  0.00  0.00    +0.000 A 
ATOM      4  C   UNL     1       0.780   9.762  19.072  0.00  0.00    +0.000 A 
ATOM      5  N   UNL     1      -0.074  10.828  19.195  0.00  0.00    +0.000 NA
ATOM      6  C   UNL     1      -0.483  10.763  20.449  0.00  0.00    +0.000 A 
ATOM      7  O   UNL     1       0.049   9.719  21.168  0.00  0.00    +0.000 OA
ATOM      8  C   UNL     1       0.860   9.082  20.275  0.00  0.00    +0.000 A 
ATOM      9  C   UNL     1       1.634   7.949  20.495  0.00  0.00    +0.000 A 
ENDROOT
BRANCH   6  10
ATOM     10  C   UNL     1      -1.434  11.630  21.145  0.00  0.00    +0.000 A 
ATOM     11  C   UNL     1      -1.477  11.618  22.552  0.00  0.00    +0.000 A 
ATOM     12  C   UNL     1      -2.346  12.462  23.249  0.00  0.00    +0.000 A 
ATOM     13  C   UNL     1      -3.179  13.318  22.543  0.00  0.00    +0.000 A 
ATOM     14  F   UNL     1      -4.003  14.138  23.210  0.00  0.00    +0.000 F 
ATOM     15  C   UNL     1      -3.168  13.340  21.155  0.00  0.00    +0.000 A 
ATOM     16  C   UNL     1      -2.299  12.495  20.455  0.00  0.00    +0.000 A 
ENDBRANCH   6  10
BRANCH   1  17
ATOM     17  N   UNL     1       3.181   6.354  19.536  0.00  0.00    +0.000 N 
ATOM     18  H   UNL     1       4.025   6.358  20.104  0.00  0.00    +0.000 HD
BRANCH  17  19
ATOM     19  S   UNL     1       2.841   4.952  18.687  0.00  0.00    +0.000 S 
ATOM     20  O   UNL     1       1.548   5.087  18.046  0.00  0.00    +0.000 OA
ATOM     21  O   UNL     1       3.113   3.860  19.597  0.00  0.00    +0.000 OA
BRANCH  19  26
ATOM     22  C   UNL     1       6.981   4.843  14.237  0.00  0.00    +0.000 C 
ATOM     23  C   UNL     1       5.976   4.860  15.353  0.00  0.00    +0.000 A 
ATOM     24  C   UNL     1       5.422   3.669  15.840  0.00  0.00    +0.000 A 
ATOM     25  C   UNL     1       4.478   3.695  16.868  0.00  0.00    +0.000 A 
ATOM     26  C   UNL     1       4.089   4.919  17.421  0.00  0.00    +0.000 A 
ATOM     27  C   UNL     1       4.620   6.116  16.933  0.00  0.00    +0.000 A 
ATOM     28  C   UNL     1       5.568   6.082  15.907  0.00  0.00    +0.000 A 
ENDBRANCH  19  26
ENDBRANCH  17  19
ENDBRANCH   1  17
TORSDOF 4
ENDMDL
MODEL 9
REMARK VINA RESULT:      -7.9      1.560      1.794
REMARK  Name = 
REMARK  5 active torsions:
REMARK  status: ('A' for Active; 'I' for Inactive)
REMARK    1  A    between atoms: C_1  and  C_2
REMARK    2  A    between atoms: C_5  and  S_6
REMARK    3  A    between atoms: S_6  and  N_9
REMARK    4  A    between atoms: N_9  and  C_10
REMARK    5  A    between atoms: C_15  and  C_16
REMARK                            x       y       z     vdW  Elec       q    Type
REMARK                         _______ _______ _______ _____ _____    ______ ____
ROOT
ATOM      1  C   UNL     1       3.406   6.461  19.299  0.00  0.00    +0.000 A 
ATOM      2  C   UNL     1       3.670   6.948  18.012  0.00  0.00    +0.000 A 
ATOM      3  C   UNL     1       2.947   8.032  17.489  0.00  0.00    +0.000 A 
ATOM      4  C   UNL     1       1.959   8.614  18.292  0.00  0.00    +0.000 A 
ATOM      5  N   UNL     1       1.113   9.667  18.059  0.00  0.00    +0.000 NA
ATOM      6  C   UNL     1       0.399   9.752  19.167  0.00  0.00    +0.000 A 
ATOM      7  O   UNL     1       0.721   8.819  20.124  0.00  0.00    +0.000 OA
ATOM      8  C   UNL     1       1.724   8.092  19.553  0.00  0.00    +0.000 A 
ATOM      9  C   UNL     1       2.406   7.014  20.105  0.00  0.00    +0.000 A 
ENDROOT
BRANCH   6  10
ATOM     10  C   UNL     1      -0.688  10.679  19.484  0.00  0.00    +0.000 A 
ATOM     11  C   UNL     1      -0.646  11.406  20.688  0.00  0.00    +0.000 A 
ATOM     12  C   UNL     1      -1.647  12.328  21.004  0.00  0.00    +0.000 A 
ATOM     13  C   UNL     1      -2.698  12.524  20.119  0.00  0.00    +0.000 A 
ATOM     14  F   UNL     1      -3.652  13.418  20.413  0.00  0.00    +0.000 F 
ATOM     15  C   UNL     1      -2.773  11.809  18.931  0.00  0.00    +0.000 A 
ATOM     16  C   UNL     1      -1.771  10.885  18.614  0.00  0.00    +0.000 A 
ENDBRANCH   6  10
BRANCH   1  17
ATOM     17  N   UNL     1       4.129   5.345  19.778  0.00  0.00    +0.000 N 
ATOM     18  H   UNL     1       4.752   5.426  20.578  0.00  0.00    +0.000 HD
BRANCH  17  19
ATOM     19  S   UNL     1       4.081   3.867  18.996  0.00  0.00    +0.000 S 
ATOM     20  O   UNL     1       2.721   3.596  18.575  0.00  0.00    +0.000 OA
ATOM     21  O   UNL     1       4.798   2.942  19.847  0.00  0.00    +0.000 OA
BRANCH  19  26
ATOM     22  C   UNL     1       7.409   4.948  14.024  0.00  0.00    +0.000 C 
ATOM     23  C   UNL     1       6.588   4.655  15.247  0.00  0.00    +0.000 A 
ATOM     24  C   UNL     1       5.250   4.255  15.135  0.00  0.00    +0.000 A 
ATOM     25  C   UNL     1       4.489   3.998  16.278  0.00  0.00    +0.000 A 
ATOM     26  C   UNL     1       5.071   4.135  17.542  0.00  0.00    +0.000 A 
ATOM     27  C   UNL     1       6.399   4.551  17.669  0.00  0.00    +0.000 A 
ATOM     28  C   UNL     1       7.156   4.802  16.521  0.00  0.00    +0.000 A 
ENDBRANCH  19  26
ENDBRANCH  17  19
ENDBRANCH   1  17
TORSDOF 4
ENDMDL
