MODEL 1
REMARK VINA RESULT:      -7.7      0.000      0.000
REMARK  Name = 
REMARK  6 active torsions:
REMARK  status: ('A' for Active; 'I' for Inactive)
REMARK    1  A    between atoms: C_1  and  O_2
REMARK    2  A    between atoms: O_2  and  C_3
REMARK    3  A    between atoms: C_6  and  C_7
REMARK    4  A    between atoms: C_18  and  C_19
REMARK    5  A    between atoms: C_18  and  C_20
REMARK    6  A    between atoms: C_23  and  O_24
REMARK                            x       y       z     vdW  Elec       q    Type
REMARK                         _______ _______ _______ _____ _____    ______ ____
ROOT
ATOM      1  C   UNL     1       2.144   8.169  17.931  0.00  0.00    +0.000 C 
ATOM      2  C   UNL     1       1.664   6.705  17.908  0.00  0.00    +0.000 C 
ATOM      3  O   UNL     1       2.652   5.716  17.859  0.00  0.00    +0.000 OA
ATOM      4  C   UNL     1       3.986   6.143  18.169  0.00  0.00    +0.000 A 
ATOM      5  C   UNL     1       4.330   7.073  17.218  0.00  0.00    +0.000 A 
ATOM      6  C   UNL     1       4.968   6.522  16.096  0.00  0.00    +0.000 A 
ATOM      7  C   UNL     1       5.155   5.097  16.036  0.00  0.00    +0.000 A 
ATOM      8  C   UNL     1       4.903   4.315  17.177  0.00  0.00    +0.000 A 
ATOM      9  C   UNL     1       4.738   5.008  18.358  0.00  0.00    +0.000 A 
ATOM     10  C   UNL     1       4.617   4.379  19.631  0.00  0.00    +0.000 C 
ATOM     11  C   UNL     1       3.962   3.234  19.588  0.00  0.00    +0.000 C 
ATOM     12  C   UNL     1       3.641   2.565  18.247  0.00  0.00    +0.000 C 
ATOM     13  C   UNL     1       2.164   2.743  17.814  0.00  0.00    +0.000 C 
ATOM     14  C   UNL     1       3.831   1.074  18.540  0.00  0.00    +0.000 C 
ATOM     15  O   UNL     1       4.584   2.968  17.161  0.00  0.00    +0.000 OA
ATOM     16  C   UNL     1       3.635   8.386  17.454  0.00  0.00    +0.000 C 
ENDROOT
BRANCH   1  20
ATOM     17  C   UNL     1       0.172   9.569  21.572  0.00  0.00    +0.000 A 
ATOM     18  C   UNL     1       0.987   8.428  21.621  0.00  0.00    +0.000 A 
ATOM     19  C   UNL     1       1.683   7.968  20.483  0.00  0.00    +0.000 A 
ATOM     20  C   UNL     1       1.597   8.669  19.279  0.00  0.00    +0.000 A 
ATOM     21  C   UNL     1       0.737   9.795  19.249  0.00  0.00    +0.000 A 
ATOM     22  C   UNL     1       0.021  10.234  20.363  0.00  0.00    +0.000 A 
BRANCH  17  24
ATOM     23  C   UNL     1      -1.018  11.225  22.801  0.00  0.00    +0.000 C 
ATOM     24  O   UNL     1      -0.437   9.921  22.747  0.00  0.00    +0.000 OA
ENDBRANCH  17  24
BRANCH  21  25
ATOM     25  O   UNL     1       0.536  10.426  18.047  0.00  0.00    +0.000 OA
ATOM     26  H   UNL     1      -0.261  10.063  17.631  0.00  0.00    +0.000 HD
ENDBRANCH  21  25
ENDBRANCH   1  20
TORSDOF 3
ENDMDL
MODEL 2
REMARK VINA RESULT:      -7.6      2.841      6.992
REMARK  Name = 
REMARK  6 active torsions:
REMARK  status: ('A' for Active; 'I' for Inactive)
REMARK    1  A    between atoms: C_1  and  O_2
REMARK    2  A    between atoms: O_2  and  C_3
REMARK    3  A    between atoms: C_6  and  C_7
REMARK    4  A    between atoms: C_18  and  C_19
REMARK    5  A    between atoms: C_18  and  C_20
REMARK    6  A    between atoms: C_23  and  O_24
REMARK                            x       y       z     vdW  Elec       q    Type
REMARK                         _______ _______ _______ _____ _____    ______ ____
ROOT
ATOM      1  C   UNL     1       5.183   6.345  16.978  0.00  0.00    +0.000 C 
ATOM      2  C   UNL     1       5.228   5.226  18.037  0.00  0.00    +0.000 C 
ATOM      3  O   UNL     1       4.045   4.972  18.740  0.00  0.00    +0.000 OA
ATOM      4  C   UNL     1       2.848   5.534  18.180  0.00  0.00    +0.000 A 
ATOM      5  C   UNL     1       3.013   6.898  18.194  0.00  0.00    +0.000 A 
ATOM      6  C   UNL     1       2.533   7.513  19.359  0.00  0.00    +0.000 A 
ATOM      7  C   UNL     1       1.977   6.687  20.399  0.00  0.00    +0.000 A 
ATOM      8  C   UNL     1       1.722   5.328  20.145  0.00  0.00    +0.000 A 
ATOM      9  C   UNL     1       1.788   4.940  18.823  0.00  0.00    +0.000 A 
ATOM     10  C   UNL     1       1.422   3.642  18.363  0.00  0.00    +0.000 C 
ATOM     11  C   UNL     1       1.723   2.681  19.217  0.00  0.00    +0.000 C 
ATOM     12  C   UNL     1       2.155   3.014  20.650  0.00  0.00    +0.000 C 
ATOM     13  C   UNL     1       3.682   2.878  20.875  0.00  0.00    +0.000 C 
ATOM     14  C   UNL     1       1.493   1.913  21.484  0.00  0.00    +0.000 C 
ATOM     15  O   UNL     1       1.648   4.341  21.112  0.00  0.00    +0.000 OA
ATOM     16  C   UNL     1       3.970   7.347  17.123  0.00  0.00    +0.000 C 
ENDROOT
BRANCH   1  20
ATOM     17  C   UNL     1       6.438   3.954  13.542  0.00  0.00    +0.000 A 
ATOM     18  C   UNL     1       5.100   3.915  13.960  0.00  0.00    +0.000 A 
ATOM     19  C   UNL     1       4.638   4.708  15.032  0.00  0.00    +0.000 A 
ATOM     20  C   UNL     1       5.510   5.580  15.684  0.00  0.00    +0.000 A 
ATOM     21  C   UNL     1       6.864   5.570  15.265  0.00  0.00    +0.000 A 
ATOM     22  C   UNL     1       7.332   4.764  14.227  0.00  0.00    +0.000 A 
BRANCH  17  24
ATOM     23  C   UNL     1       5.664   2.573  11.762  0.00  0.00    +0.000 C 
ATOM     24  O   UNL     1       6.757   3.149  12.481  0.00  0.00    +0.000 OA
ENDBRANCH  17  24
BRANCH  21  25
ATOM     25  O   UNL     1       7.768   6.323  15.972  0.00  0.00    +0.000 OA
ATOM     26  H   UNL     1       8.557   5.787  16.145  0.00  0.00    +0.000 HD
ENDBRANCH  21  25
ENDBRANCH   1  20
TORSDOF 3
ENDMDL
MODEL 3
REMARK VINA RESULT:      -7.5      3.217      7.585
REMARK  Name = 
REMARK  6 active torsions:
REMARK  status: ('A' for Active; 'I' for Inactive)
REMARK    1  A    between atoms: C_1  and  O_2
REMARK    2  A    between atoms: O_2  and  C_3
REMARK    3  A    between atoms: C_6  and  C_7
REMARK    4  A    between atoms: C_18  and  C_19
REMARK    5  A    between atoms: C_18  and  C_20
REMARK    6  A    between atoms: C_23  and  O_24
REMARK                            x       y       z     vdW  Elec       q    Type
REMARK                         _______ _______ _______ _____ _____    ______ ____
ROOT
ATOM      1  C   UNL     1       5.888   5.715  15.770  0.00  0.00    +0.000 C 
ATOM      2  C   UNL     1       5.819   4.606  16.837  0.00  0.00    +0.000 C 
ATOM      3  O   UNL     1       4.671   4.567  17.636  0.00  0.00    +0.000 OA
ATOM      4  C   UNL     1       3.552   5.334  17.168  0.00  0.00    +0.000 A 
ATOM      5  C   UNL     1       3.959   6.646  17.149  0.00  0.00    +0.000 A 
ATOM      6  C   UNL     1       3.693   7.336  18.342  0.00  0.00    +0.000 A 
ATOM      7  C   UNL     1       3.086   6.622  19.434  0.00  0.00    +0.000 A 
ATOM      8  C   UNL     1       2.573   5.331  19.220  0.00  0.00    +0.000 A 
ATOM      9  C   UNL     1       2.460   4.939  17.902  0.00  0.00    +0.000 A 
ATOM     10  C   UNL     1       1.831   3.728  17.491  0.00  0.00    +0.000 C 
ATOM     11  C   UNL     1       2.025   2.728  18.331  0.00  0.00    +0.000 C 
ATOM     12  C   UNL     1       2.625   2.976  19.719  0.00  0.00    +0.000 C 
ATOM     13  C   UNL     1       4.117   2.569  19.822  0.00  0.00    +0.000 C 
ATOM     14  C   UNL     1       1.848   2.010  20.619  0.00  0.00    +0.000 C 
ATOM     15  O   UNL     1       2.403   4.372  20.203  0.00  0.00    +0.000 OA
ATOM     16  C   UNL     1       4.890   6.919  15.999  0.00  0.00    +0.000 C 
ENDROOT
BRANCH   1  20
ATOM     17  C   UNL     1       6.493   3.225  12.230  0.00  0.00    +0.000 A 
ATOM     18  C   UNL     1       5.285   3.141  12.937  0.00  0.00    +0.000 A 
ATOM     19  C   UNL     1       5.025   3.961  14.055  0.00  0.00    +0.000 A 
ATOM     20  C   UNL     1       5.967   4.906  14.465  0.00  0.00    +0.000 A 
ATOM     21  C   UNL     1       7.193   4.942  13.755  0.00  0.00    +0.000 A 
ATOM     22  C   UNL     1       7.467   4.111  12.669  0.00  0.00    +0.000 A 
BRANCH  17  24
ATOM     23  C   UNL     1       5.899   1.153  11.217  0.00  0.00    +0.000 C 
ATOM     24  O   UNL     1       6.617   2.387  11.154  0.00  0.00    +0.000 OA
ENDBRANCH  17  24
BRANCH  21  25
ATOM     25  O   UNL     1       8.184   5.773  14.215  0.00  0.00    +0.000 OA
ATOM     26  H   UNL     1       8.225   5.709  15.182  0.00  0.00    +0.000 HD
ENDBRANCH  21  25
ENDBRANCH   1  20
TORSDOF 3
ENDMDL
MODEL 4
REMARK VINA RESULT:      -7.0      9.108     11.044
REMARK  Name = 
REMARK  6 active torsions:
REMARK  status: ('A' for Active; 'I' for Inactive)
REMARK    1  A    between atoms: C_1  and  O_2
REMARK    2  A    between atoms: O_2  and  C_3
REMARK    3  A    between atoms: C_6  and  C_7
REMARK    4  A    between atoms: C_18  and  C_19
REMARK    5  A    between atoms: C_18  and  C_20
REMARK    6  A    between atoms: C_23  and  O_24
REMARK                            x       y       z     vdW  Elec       q    Type
REMARK                         _______ _______ _______ _____ _____    ______ ____
ROOT
ATOM      1  C   UNL     1       9.399  12.247  21.246  0.00  0.00    +0.000 C 
ATOM      2  C   UNL     1      10.202  13.561  21.206  0.00  0.00    +0.000 C 
ATOM      3  O   UNL     1      10.452  14.112  19.944  0.00  0.00    +0.000 OA
ATOM      4  C   UNL     1       9.663  13.593  18.864  0.00  0.00    +0.000 A 
ATOM      5  C   UNL     1       9.970  12.257  18.763  0.00  0.00    +0.000 A 
ATOM      6  C   UNL     1      11.023  11.986  17.877  0.00  0.00    +0.000 A 
ATOM      7  C   UNL     1      11.677  13.087  17.221  0.00  0.00    +0.000 A 
ATOM      8  C   UNL     1      11.118  14.375  17.302  0.00  0.00    +0.000 A 
ATOM      9  C   UNL     1       9.833  14.444  17.798  0.00  0.00    +0.000 A 
ATOM     10  C   UNL     1       9.059  15.640  17.820  0.00  0.00    +0.000 C 
ATOM     11  C   UNL     1       9.778  16.723  18.048  0.00  0.00    +0.000 C 
ATOM     12  C   UNL     1      11.309  16.671  18.002  0.00  0.00    +0.000 C 
ATOM     13  C   UNL     1      11.963  16.663  19.407  0.00  0.00    +0.000 C 
ATOM     14  C   UNL     1      11.690  18.005  17.354  0.00  0.00    +0.000 C 
ATOM     15  O   UNL     1      11.824  15.556  17.151  0.00  0.00    +0.000 OA
ATOM     16  C   UNL     1       9.341  11.462  19.875  0.00  0.00    +0.000 C 
ENDROOT
BRANCH   1  20
ATOM     17  C   UNL     1       6.123  13.385  23.906  0.00  0.00    +0.000 A 
ATOM     18  C   UNL     1       6.461  14.217  22.829  0.00  0.00    +0.000 A 
ATOM     19  C   UNL     1       7.477  13.867  21.915  0.00  0.00    +0.000 A 
ATOM     20  C   UNL     1       8.152  12.653  22.050  0.00  0.00    +0.000 A 
ATOM     21  C   UNL     1       7.816  11.851  23.169  0.00  0.00    +0.000 A 
ATOM     22  C   UNL     1       6.835  12.209  24.094  0.00  0.00    +0.000 A 
BRANCH  17  24
ATOM     23  C   UNL     1       5.416  13.983  26.100  0.00  0.00    +0.000 C 
ATOM     24  O   UNL     1       5.110  13.831  24.713  0.00  0.00    +0.000 OA
ENDBRANCH  17  24
BRANCH  21  25
ATOM     25  O   UNL     1       8.551  10.714  23.397  0.00  0.00    +0.000 OA
ATOM     26  H   UNL     1       9.454  10.852  23.067  0.00  0.00    +0.000 HD
ENDBRANCH  21  25
ENDBRANCH   1  20
TORSDOF 3
ENDMDL
MODEL 5
REMARK VINA RESULT:      -6.5      2.479      8.407
REMARK  Name = 
REMARK  6 active torsions:
REMARK  status: ('A' for Active; 'I' for Inactive)
REMARK    1  A    between atoms: C_1  and  O_2
REMARK    2  A    between atoms: O_2  and  C_3
REMARK    3  A    between atoms: C_6  and  C_7
REMARK    4  A    between atoms: C_18  and  C_19
REMARK    5  A    between atoms: C_18  and  C_20
REMARK    6  A    between atoms: C_23  and  O_24
REMARK                            x       y       z     vdW  Elec       q    Type
REMARK                         _______ _______ _______ _____ _____    ______ ____
ROOT
ATOM      1  C   UNL     1       0.765   8.421  20.200  0.00  0.00    +0.000 C 
ATOM      2  C   UNL     1       0.207   9.497  19.250  0.00  0.00    +0.000 C 
ATOM      3  O   UNL     1       0.192  10.814  19.724  0.00  0.00    +0.000 OA
ATOM      4  C   UNL     1       0.991  11.073  20.887  0.00  0.00    +0.000 A 
ATOM      5  C   UNL     1       0.474  10.298  21.897  0.00  0.00    +0.000 A 
ATOM      6  C   UNL     1      -0.509  10.948  22.659  0.00  0.00    +0.000 A 
ATOM      7  C   UNL     1      -0.892  12.288  22.297  0.00  0.00    +0.000 A 
ATOM      8  C   UNL     1      -0.134  12.994  21.347  0.00  0.00    +0.000 A 
ATOM      9  C   UNL     1       1.084  12.438  21.014  0.00  0.00    +0.000 A 
ATOM     10  C   UNL     1       2.044  13.082  20.181  0.00  0.00    +0.000 C 
ATOM     11  C   UNL     1       1.500  13.796  19.213  0.00  0.00    +0.000 C 
ATOM     12  C   UNL     1      -0.003  14.092  19.208  0.00  0.00    +0.000 C 
ATOM     13  C   UNL     1      -0.795  13.219  18.202  0.00  0.00    +0.000 C 
ATOM     14  C   UNL     1      -0.079  15.531  18.688  0.00  0.00    +0.000 C 
ATOM     15  O   UNL     1      -0.606  14.040  20.573  0.00  0.00    +0.000 OA
ATOM     16  C   UNL     1       0.834   8.848  21.720  0.00  0.00    +0.000 C 
ENDROOT
BRANCH   1  20
ATOM     17  C   UNL     1       3.941   6.507  17.886  0.00  0.00    +0.000 A 
ATOM     18  C   UNL     1       3.439   7.750  17.476  0.00  0.00    +0.000 A 
ATOM     19  C   UNL     1       2.449   8.429  18.218  0.00  0.00    +0.000 A 
ATOM     20  C   UNL     1       1.969   7.882  19.409  0.00  0.00    +0.000 A 
ATOM     21  C   UNL     1       2.467   6.608  19.779  0.00  0.00    +0.000 A 
ATOM     22  C   UNL     1       3.421   5.918  19.031  0.00  0.00    +0.000 A 
BRANCH  17  24
ATOM     23  C   UNL     1       4.736   4.589  16.720  0.00  0.00    +0.000 C 
ATOM     24  O   UNL     1       4.909   5.959  17.088  0.00  0.00    +0.000 OA
ENDBRANCH  17  24
BRANCH  21  25
ATOM     25  O   UNL     1       1.920   5.991  20.876  0.00  0.00    +0.000 OA
ATOM     26  H   UNL     1       1.121   6.474  21.143  0.00  0.00    +0.000 HD
ENDBRANCH  21  25
ENDBRANCH   1  20
TORSDOF 3
ENDMDL
MODEL 6
REMARK VINA RESULT:      -6.3      8.131      9.756
REMARK  Name = 
REMARK  6 active torsions:
REMARK  status: ('A' for Active; 'I' for Inactive)
REMARK    1  A    between atoms: C_1  and  O_2
REMARK    2  A    between atoms: O_2  and  C_3
REMARK    3  A    between atoms: C_6  and  C_7
REMARK    4  A    between atoms: C_18  and  C_19
REMARK    5  A    between atoms: C_18  and  C_20
REMARK    6  A    between atoms: C_23  and  O_24
REMARK                            x       y       z     vdW  Elec       q    Type
REMARK                         _______ _______ _______ _____ _____    ______ ____
ROOT
ATOM      1  C   UNL     1       6.307  15.709  18.239  0.00  0.00    +0.000 C 
ATOM      2  C   UNL     1       7.054  14.398  17.925  0.00  0.00    +0.000 C 
ATOM      3  O   UNL     1       8.389  14.316  18.334  0.00  0.00    +0.000 OA
ATOM      4  C   UNL     1       8.818  15.305  19.282  0.00  0.00    +0.000 A 
ATOM      5  C   UNL     1       8.683  16.524  18.662  0.00  0.00    +0.000 A 
ATOM      6  C   UNL     1       9.838  16.944  17.985  0.00  0.00    +0.000 A 
ATOM      7  C   UNL     1      10.986  16.076  17.971  0.00  0.00    +0.000 A 
ATOM      8  C   UNL     1      11.012  14.945  18.806  0.00  0.00    +0.000 A 
ATOM      9  C   UNL     1      10.032  14.889  19.775  0.00  0.00    +0.000 A 
ATOM     10  C   UNL     1       9.987  13.895  20.796  0.00  0.00    +0.000 C 
ATOM     11  C   UNL     1      10.405  12.711  20.389  0.00  0.00    +0.000 C 
ATOM     12  C   UNL     1      11.116  12.551  19.042  0.00  0.00    +0.000 C 
ATOM     13  C   UNL     1      10.209  11.948  17.940  0.00  0.00    +0.000 C 
ATOM     14  C   UNL     1      12.198  11.506  19.333  0.00  0.00    +0.000 C 
ATOM     15  O   UNL     1      11.774  13.811  18.582  0.00  0.00    +0.000 OA
ATOM     16  C   UNL     1       7.240  16.940  18.572  0.00  0.00    +0.000 C 
ENDROOT
BRANCH   1  20
ATOM     17  C   UNL     1       3.053  13.961  20.574  0.00  0.00    +0.000 A 
ATOM     18  C   UNL     1       4.260  14.288  21.208  0.00  0.00    +0.000 A 
ATOM     19  C   UNL     1       5.321  14.900  20.506  0.00  0.00    +0.000 A 
ATOM     20  C   UNL     1       5.172  15.224  19.156  0.00  0.00    +0.000 A 
ATOM     21  C   UNL     1       3.956  14.846  18.534  0.00  0.00    +0.000 A 
ATOM     22  C   UNL     1       2.918  14.212  19.216  0.00  0.00    +0.000 A 
BRANCH  17  24
ATOM     23  C   UNL     1       0.894  14.131  21.566  0.00  0.00    +0.000 C 
ATOM     24  O   UNL     1       2.097  13.385  21.369  0.00  0.00    +0.000 OA
ENDBRANCH  17  24
BRANCH  21  25
ATOM     25  O   UNL     1       3.833  15.038  17.180  0.00  0.00    +0.000 OA
ATOM     26  H   UNL     1       3.196  14.397  16.828  0.00  0.00    +0.000 HD
ENDBRANCH  21  25
ENDBRANCH   1  20
TORSDOF 3
ENDMDL
MODEL 7
REMARK VINA RESULT:      -6.3      8.911     10.536
REMARK  Name = 
REMARK  6 active torsions:
REMARK  status: ('A' for Active; 'I' for Inactive)
REMARK    1  A    between atoms: C_1  and  O_2
REMARK    2  A    between atoms: O_2  and  C_3
REMARK    3  A    between atoms: C_6  and  C_7
REMARK    4  A    between atoms: C_18  and  C_19
REMARK    5  A    between atoms: C_18  and  C_20
REMARK    6  A    between atoms: C_23  and  O_24
REMARK                            x       y       z     vdW  Elec       q    Type
REMARK                         _______ _______ _______ _____ _____    ______ ____
ROOT
ATOM      1  C   UNL     1       9.061  12.335  22.364  0.00  0.00    +0.000 C 
ATOM      2  C   UNL     1       9.720  13.634  21.859  0.00  0.00    +0.000 C 
ATOM      3  O   UNL     1       9.845  13.782  20.474  0.00  0.00    +0.000 OA
ATOM      4  C   UNL     1       9.060  12.888  19.672  0.00  0.00    +0.000 A 
ATOM      5  C   UNL     1       9.500  11.618  19.959  0.00  0.00    +0.000 A 
ATOM      6  C   UNL     1      10.528  11.172  19.116  0.00  0.00    +0.000 A 
ATOM      7  C   UNL     1      11.029  12.065  18.104  0.00  0.00    +0.000 A 
ATOM      8  C   UNL     1      10.344  13.262  17.833  0.00  0.00    +0.000 A 
ATOM      9  C   UNL     1       9.086  13.375  18.386  0.00  0.00    +0.000 A 
ATOM     10  C   UNL     1       8.193  14.449  18.104  0.00  0.00    +0.000 C 
ATOM     11  C   UNL     1       8.806  15.605  17.931  0.00  0.00    +0.000 C 
ATOM     12  C   UNL     1      10.329  15.669  17.779  0.00  0.00    +0.000 C 
ATOM     13  C   UNL     1      11.052  16.155  19.062  0.00  0.00    +0.000 C 
ATOM     14  C   UNL     1      10.535  16.762  16.726  0.00  0.00    +0.000 C 
ATOM     15  O   UNL     1      10.913  14.392  17.271  0.00  0.00    +0.000 OA
ATOM     16  C   UNL     1       9.016  11.160  21.309  0.00  0.00    +0.000 C 
ENDROOT
BRANCH   1  20
ATOM     17  C   UNL     1       5.830  14.093  24.724  0.00  0.00    +0.000 A 
ATOM     18  C   UNL     1       5.821  14.231  23.329  0.00  0.00    +0.000 A 
ATOM     19  C   UNL     1       6.816  13.638  22.522  0.00  0.00    +0.000 A 
ATOM     20  C   UNL     1       7.822  12.867  23.105  0.00  0.00    +0.000 A 
ATOM     21  C   UNL     1       7.827  12.777  24.519  0.00  0.00    +0.000 A 
ATOM     22  C   UNL     1       6.865  13.388  25.323  0.00  0.00    +0.000 A 
BRANCH  17  24
ATOM     23  C   UNL     1       5.096  15.206  26.698  0.00  0.00    +0.000 C 
ATOM     24  O   UNL     1       4.802  14.703  25.393  0.00  0.00    +0.000 OA
ENDBRANCH  17  24
BRANCH  21  25
ATOM     25  O   UNL     1       8.876  12.131  25.124  0.00  0.00    +0.000 OA
ATOM     26  H   UNL     1       9.361  11.623  24.455  0.00  0.00    +0.000 HD
ENDBRANCH  21  25
ENDBRANCH   1  20
TORSDOF 3
ENDMDL
MODEL 8
REMARK VINA RESULT:      -6.3      7.895     11.498
REMARK  Name = 
REMARK  6 active torsions:
REMARK  status: ('A' for Active; 'I' for Inactive)
REMARK    1  A    between atoms: C_1  and  O_2
REMARK    2  A    between atoms: O_2  and  C_3
REMARK    3  A    between atoms: C_6  and  C_7
REMARK    4  A    between atoms: C_18  and  C_19
REMARK    5  A    between atoms: C_18  and  C_20
REMARK    6  A    between atoms: C_23  and  O_24
REMARK                            x       y       z     vdW  Elec       q    Type
REMARK                         _______ _______ _______ _____ _____    ______ ____
ROOT
ATOM      1  C   UNL     1      -5.621  12.749  19.583  0.00  0.00    +0.000 C 
ATOM      2  C   UNL     1      -4.666  13.861  20.058  0.00  0.00    +0.000 C 
ATOM      3  O   UNL     1      -4.325  13.867  21.414  0.00  0.00    +0.000 OA
ATOM      4  C   UNL     1      -4.620  12.666  22.142  0.00  0.00    +0.000 A 
ATOM      5  C   UNL     1      -5.984  12.505  22.093  0.00  0.00    +0.000 A 
ATOM      6  C   UNL     1      -6.661  13.099  23.168  0.00  0.00    +0.000 A 
ATOM      7  C   UNL     1      -5.899  13.823  24.151  0.00  0.00    +0.000 A 
ATOM      8  C   UNL     1      -4.495  13.737  24.143  0.00  0.00    +0.000 A 
ATOM      9  C   UNL     1      -3.957  12.751  23.343  0.00  0.00    +0.000 A 
ATOM     10  C   UNL     1      -2.570  12.424  23.319  0.00  0.00    +0.000 C 
ATOM     11  C   UNL     1      -1.784  13.473  23.477  0.00  0.00    +0.000 C 
ATOM     12  C   UNL     1      -2.358  14.823  23.919  0.00  0.00    +0.000 C 
ATOM     13  C   UNL     1      -2.488  15.841  22.758  0.00  0.00    +0.000 C 
ATOM     14  C   UNL     1      -1.284  15.374  24.861  0.00  0.00    +0.000 C 
ATOM     15  O   UNL     1      -3.639  14.686  24.674  0.00  0.00    +0.000 OA
ATOM     16  C   UNL     1      -6.435  12.037  20.736  0.00  0.00    +0.000 C 
ENDROOT
BRANCH   1  20
ATOM     17  C   UNL     1      -3.255  10.953  16.377  0.00  0.00    +0.000 A 
ATOM     18  C   UNL     1      -2.656  11.207  17.620  0.00  0.00    +0.000 A 
ATOM     19  C   UNL     1      -3.393  11.739  18.700  0.00  0.00    +0.000 A 
ATOM     20  C   UNL     1      -4.757  11.995  18.557  0.00  0.00    +0.000 A 
ATOM     21  C   UNL     1      -5.326  11.765  17.280  0.00  0.00    +0.000 A 
ATOM     22  C   UNL     1      -4.594  11.270  16.200  0.00  0.00    +0.000 A 
BRANCH  17  24
ATOM     23  C   UNL     1      -3.063  10.008  14.199  0.00  0.00    +0.000 C 
ATOM     24  O   UNL     1      -2.437  10.423  15.415  0.00  0.00    +0.000 OA
ENDBRANCH  17  24
BRANCH  21  25
ATOM     25  O   UNL     1      -6.634  12.128  17.077  0.00  0.00    +0.000 OA
ATOM     26  H   UNL     1      -7.189  11.333  17.107  0.00  0.00    +0.000 HD
ENDBRANCH  21  25
ENDBRANCH   1  20
TORSDOF 3
ENDMDL
MODEL 9
REMARK VINA RESULT:      -6.0      0.970      1.363
REMARK  Name = 
REMARK  6 active torsions:
REMARK  status: ('A' for Active; 'I' for Inactive)
REMARK    1  A    between atoms: C_1  and  O_2
REMARK    2  A    between atoms: O_2  and  C_3
REMARK    3  A    between atoms: C_6  and  C_7
REMARK    4  A    between atoms: C_18  and  C_19
REMARK    5  A    between atoms: C_18  and  C_20
REMARK    6  A    between atoms: C_23  and  O_24
REMARK                            x       y       z     vdW  Elec       q    Type
REMARK                         _______ _______ _______ _____ _____    ______ ____
ROOT
ATOM      1  C   UNL     1       1.995   8.263  17.876  0.00  0.00    +0.000 C 
ATOM      2  C   UNL     1       1.528   6.795  17.838  0.00  0.00    +0.000 C 
ATOM      3  O   UNL     1       2.525   5.813  17.832  0.00  0.00    +0.000 OA
ATOM      4  C   UNL     1       3.842   6.251  18.197  0.00  0.00    +0.000 A 
ATOM      5  C   UNL     1       4.218   7.181  17.257  0.00  0.00    +0.000 A 
ATOM      6  C   UNL     1       4.906   6.633  16.165  0.00  0.00    +0.000 A 
ATOM      7  C   UNL     1       5.105   5.209  16.116  0.00  0.00    +0.000 A 
ATOM      8  C   UNL     1       4.812   4.427  17.248  0.00  0.00    +0.000 A 
ATOM      9  C   UNL     1       4.593   5.122  18.419  0.00  0.00    +0.000 A 
ATOM     10  C   UNL     1       4.424   4.496  19.688  0.00  0.00    +0.000 C 
ATOM     11  C   UNL     1       3.780   3.346  19.621  0.00  0.00    +0.000 C 
ATOM     12  C   UNL     1       3.520   2.671  18.270  0.00  0.00    +0.000 C 
ATOM     13  C   UNL     1       2.061   2.836  17.775  0.00  0.00    +0.000 C 
ATOM     14  C   UNL     1       3.709   1.182  18.575  0.00  0.00    +0.000 C 
ATOM     15  O   UNL     1       4.504   3.078  17.222  0.00  0.00    +0.000 OA
ATOM     16  C   UNL     1       3.503   8.490  17.461  0.00  0.00    +0.000 C 
ENDROOT
BRANCH   1  20
ATOM     17  C   UNL     1       0.704   9.703  21.796  0.00  0.00    +0.000 A 
ATOM     18  C   UNL     1       0.341  10.414  20.643  0.00  0.00    +0.000 A 
ATOM     19  C   UNL     1       0.691   9.961  19.353  0.00  0.00    +0.000 A 
ATOM     20  C   UNL     1       1.390   8.762  19.199  0.00  0.00    +0.000 A 
ATOM     21  C   UNL     1       1.776   8.085  20.383  0.00  0.00    +0.000 A 
ATOM     22  C   UNL     1       1.460   8.547  21.660  0.00  0.00    +0.000 A 
BRANCH  17  24
ATOM     23  C   UNL     1      -1.086  10.616  23.074  0.00  0.00    +0.000 C 
ATOM     24  O   UNL     1       0.290  10.240  22.986  0.00  0.00    +0.000 OA
ENDBRANCH  17  24
BRANCH  21  25
ATOM     25  O   UNL     1       2.571   6.973  20.263  0.00  0.00    +0.000 OA
ATOM     26  H   UNL     1       3.369   7.097  20.801  0.00  0.00    +0.000 HD
ENDBRANCH  21  25
ENDBRANCH   1  20
TORSDOF 3
ENDMDL
