MODEL 1
REMARK VINA RESULT:      -9.8      0.000      0.000
REMARK  Name = 
REMARK  11 active torsions:
REMARK  status: ('A' for Active; 'I' for Inactive)
REMARK    1  A    between atoms: C_1  and  O_2
REMARK    2  A    between atoms: O_2  and  C_3
REMARK    3  A    between atoms: C_8  and  C_9
REMARK    4  A    between atoms: C_9  and  N_10
REMARK    5  A    between atoms: C_11  and  C_13
REMARK    6  A    between atoms: C_15  and  C_16
REMARK    7  A    between atoms: N_21  and  C_22
REMARK    8  A    between atoms: C_26  and  C_27
REMARK    9  A    between atoms: C_30  and  C_31
REMARK   10  A    between atoms: C_31  and  C_32
REMARK   11  A    between atoms: C_31  and  N_33
REMARK                            x       y       z     vdW  Elec       q    Type
REMARK                         _______ _______ _______ _____ _____    ______ ____
ROOT
ATOM      1  C   UNL     1       2.741   5.707  19.316  0.00  0.00    +0.000 A 
ATOM      2  C   UNL     1       1.936   5.005  20.198  0.00  0.00    +0.000 A 
ATOM      3  C   UNL     1       2.414   3.672  20.189  0.00  0.00    +0.000 A 
ATOM      4  N   UNL     1       3.456   3.556  19.344  0.00  0.00    +0.000 NA
ATOM      5  N   UNL     1       3.759   4.829  18.987  0.00  0.00    +0.000 N 
ENDROOT
BRANCH   5   6
ATOM      6  C   UNL     1       5.018   5.110  18.393  0.00  0.00    +0.000 A 
ATOM      7  C   UNL     1       6.051   5.688  19.144  0.00  0.00    +0.000 A 
ATOM      8  C   UNL     1       7.266   5.996  18.541  0.00  0.00    +0.000 A 
ATOM      9  C   UNL     1       7.456   5.723  17.186  0.00  0.00    +0.000 A 
ATOM     10  C   UNL     1       6.442   5.123  16.423  0.00  0.00    +0.000 A 
ATOM     11  C   UNL     1       5.227   4.797  17.043  0.00  0.00    +0.000 A 
BRANCH  10  12
ATOM     12  C   UNL     1       6.654   4.874  15.002  0.00  0.00    +0.000 A 
ATOM     13  N   UNL     1       7.656   5.407  14.283  0.00  0.00    +0.000 NA
ATOM     14  N   UNL     1       7.443   4.881  13.070  0.00  0.00    +0.000 N 
ATOM     15  C   UNL     1       6.355   4.059  13.064  0.00  0.00    +0.000 A 
ATOM     16  N   UNL     1       5.842   4.027  14.278  0.00  0.00    +0.000 NA
ATOM     17  H   UNL     1       8.067   5.125  12.309  0.00  0.00    +0.000 HD
BRANCH  15  18
ATOM     18  C   UNL     1       5.881   3.350  11.838  0.00  0.00    +0.000 C 
ATOM     19  C   UNL     1       4.355   3.305  11.807  0.00  0.00    +0.000 C 
BRANCH  18  20
ATOM     20  N   UNL     1       6.405   1.981  11.795  0.00  0.00    +0.000 NA
ATOM     21  H   UNL     1       6.751   1.756  12.732  0.00  0.00    +0.000 HD
ATOM     22  H   UNL     1       7.249   1.981  11.221  0.00  0.00    +0.000 HD
ENDBRANCH  18  20
ENDBRANCH  15  18
ENDBRANCH  10  12
ENDBRANCH   5   6
BRANCH   1  24
ATOM     23  N   UNL     1       1.839   7.878  19.697  0.00  0.00    +0.000 N 
ATOM     24  C   UNL     1       2.584   7.070  18.868  0.00  0.00    +0.000 C 
ATOM     25  O   UNL     1       3.093   7.481  17.829  0.00  0.00    +0.000 OA
ATOM     26  H   UNL     1       1.561   7.552  20.613  0.00  0.00    +0.000 HD
BRANCH  23  27
ATOM     27  C   UNL     1       1.469   9.236  19.364  0.00  0.00    +0.000 C 
BRANCH  27  33
ATOM     28  C   UNL     1       0.030  11.120  20.318  0.00  0.00    +0.000 A 
ATOM     29  C   UNL     1      -0.721  11.640  21.380  0.00  0.00    +0.000 A 
ATOM     30  C   UNL     1      -0.785  10.969  22.602  0.00  0.00    +0.000 A 
ATOM     31  C   UNL     1      -0.116   9.762  22.767  0.00  0.00    +0.000 A 
ATOM     32  C   UNL     1       0.606   9.223  21.705  0.00  0.00    +0.000 A 
ATOM     33  C   UNL     1       0.689   9.889  20.472  0.00  0.00    +0.000 A 
BRANCH  28  35
ATOM     34  C   UNL     1      -1.097  12.298  18.607  0.00  0.00    +0.000 C 
ATOM     35  O   UNL     1       0.125  11.744  19.098  0.00  0.00    +0.000 OA
ENDBRANCH  28  35
ENDBRANCH  27  33
ENDBRANCH  23  27
ENDBRANCH   1  24
BRANCH   3  36
ATOM     36  C   UNL     1       1.868   2.502  20.966  0.00  0.00    +0.000 C 
ATOM     37  F   UNL     1       0.712   2.820  21.614  0.00  0.00    +0.000 F 
ATOM     38  F   UNL     1       1.584   1.434  20.175  0.00  0.00    +0.000 F 
ATOM     39  F   UNL     1       2.734   2.070  21.922  0.00  0.00    +0.000 F 
ENDBRANCH   3  36
TORSDOF 9
ENDMDL
MODEL 2
REMARK VINA RESULT:      -9.6      1.051      1.322
REMARK  Name = 
REMARK  11 active torsions:
REMARK  status: ('A' for Active; 'I' for Inactive)
REMARK    1  A    between atoms: C_1  and  O_2
REMARK    2  A    between atoms: O_2  and  C_3
REMARK    3  A    between atoms: C_8  and  C_9
REMARK    4  A    between atoms: C_9  and  N_10
REMARK    5  A    between atoms: C_11  and  C_13
REMARK    6  A    between atoms: C_15  and  C_16
REMARK    7  A    between atoms: N_21  and  C_22
REMARK    8  A    between atoms: C_26  and  C_27
REMARK    9  A    between atoms: C_30  and  C_31
REMARK   10  A    between atoms: C_31  and  C_32
REMARK   11  A    between atoms: C_31  and  N_33
REMARK                            x       y       z     vdW  Elec       q    Type
REMARK                         _______ _______ _______ _____ _____    ______ ____
ROOT
ATOM      1  C   UNL     1       2.911   5.966  18.996  0.00  0.00    +0.000 A 
ATOM      2  C   UNL     1       2.040   5.487  19.961  0.00  0.00    +0.000 A 
ATOM      3  C   UNL     1       2.409   4.137  20.187  0.00  0.00    +0.000 A 
ATOM      4  N   UNL     1       3.450   3.801  19.401  0.00  0.00    +0.000 NA
ATOM      5  N   UNL     1       3.859   4.968  18.845  0.00  0.00    +0.000 N 
ENDROOT
BRANCH   5   6
ATOM      6  C   UNL     1       5.144   5.047  18.246  0.00  0.00    +0.000 A 
ATOM      7  C   UNL     1       6.268   5.402  19.006  0.00  0.00    +0.000 A 
ATOM      8  C   UNL     1       7.514   5.515  18.399  0.00  0.00    +0.000 A 
ATOM      9  C   UNL     1       7.645   5.270  17.033  0.00  0.00    +0.000 A 
ATOM     10  C   UNL     1       6.536   4.891  16.259  0.00  0.00    +0.000 A 
ATOM     11  C   UNL     1       5.287   4.759  16.881  0.00  0.00    +0.000 A 
BRANCH  10  12
ATOM     12  C   UNL     1       6.693   4.669  14.827  0.00  0.00    +0.000 A 
ATOM     13  N   UNL     1       7.639   5.250  14.071  0.00  0.00    +0.000 NA
ATOM     14  N   UNL     1       7.391   4.731  12.861  0.00  0.00    +0.000 N 
ATOM     15  C   UNL     1       6.337   3.867  12.893  0.00  0.00    +0.000 A 
ATOM     16  N   UNL     1       5.882   3.800  14.128  0.00  0.00    +0.000 NA
ATOM     17  H   UNL     1       7.970   5.009  12.076  0.00  0.00    +0.000 HD
BRANCH  15  18
ATOM     18  C   UNL     1       5.836   3.155  11.680  0.00  0.00    +0.000 C 
ATOM     19  C   UNL     1       4.318   3.290  11.573  0.00  0.00    +0.000 C 
BRANCH  18  20
ATOM     20  N   UNL     1       6.191   1.733  11.728  0.00  0.00    +0.000 NA
ATOM     21  H   UNL     1       5.916   1.380  12.648  0.00  0.00    +0.000 HD
ATOM     22  H   UNL     1       7.209   1.660  11.738  0.00  0.00    +0.000 HD
ENDBRANCH  18  20
ENDBRANCH  15  18
ENDBRANCH  10  12
ENDBRANCH   5   6
BRANCH   1  24
ATOM     23  N   UNL     1       1.928   8.125  18.798  0.00  0.00    +0.000 N 
ATOM     24  C   UNL     1       2.871   7.242  18.323  0.00  0.00    +0.000 C 
ATOM     25  O   UNL     1       3.634   7.522  17.403  0.00  0.00    +0.000 OA
ATOM     26  H   UNL     1       1.420   7.922  19.648  0.00  0.00    +0.000 HD
BRANCH  23  27
ATOM     27  C   UNL     1       1.652   9.404  18.180  0.00  0.00    +0.000 C 
BRANCH  27  33
ATOM     28  C   UNL     1      -0.700  10.347  18.512  0.00  0.00    +0.000 A 
ATOM     29  C   UNL     1      -1.614  11.046  19.312  0.00  0.00    +0.000 A 
ATOM     30  C   UNL     1      -1.210  11.618  20.519  0.00  0.00    +0.000 A 
ATOM     31  C   UNL     1       0.104  11.481  20.948  0.00  0.00    +0.000 A 
ATOM     32  C   UNL     1       1.010  10.761  20.173  0.00  0.00    +0.000 A 
ATOM     33  C   UNL     1       0.625  10.185  18.952  0.00  0.00    +0.000 A 
BRANCH  28  35
ATOM     34  C   UNL     1      -2.313  10.178  16.793  0.00  0.00    +0.000 C 
ATOM     35  O   UNL     1      -1.048   9.768  17.317  0.00  0.00    +0.000 OA
ENDBRANCH  28  35
ENDBRANCH  27  33
ENDBRANCH  23  27
ENDBRANCH   1  24
BRANCH   3  36
ATOM     36  C   UNL     1       1.761   3.161  21.133  0.00  0.00    +0.000 C 
ATOM     37  F   UNL     1       2.029   3.463  22.435  0.00  0.00    +0.000 F 
ATOM     38  F   UNL     1       0.407   3.138  21.016  0.00  0.00    +0.000 F 
ATOM     39  F   UNL     1       2.199   1.888  20.941  0.00  0.00    +0.000 F 
ENDBRANCH   3  36
TORSDOF 9
ENDMDL
MODEL 3
REMARK VINA RESULT:      -9.5      1.186      1.663
REMARK  Name = 
REMARK  11 active torsions:
REMARK  status: ('A' for Active; 'I' for Inactive)
REMARK    1  A    between atoms: C_1  and  O_2
REMARK    2  A    between atoms: O_2  and  C_3
REMARK    3  A    between atoms: C_8  and  C_9
REMARK    4  A    between atoms: C_9  and  N_10
REMARK    5  A    between atoms: C_11  and  C_13
REMARK    6  A    between atoms: C_15  and  C_16
REMARK    7  A    between atoms: N_21  and  C_22
REMARK    8  A    between atoms: C_26  and  C_27
REMARK    9  A    between atoms: C_30  and  C_31
REMARK   10  A    between atoms: C_31  and  C_32
REMARK   11  A    between atoms: C_31  and  N_33
REMARK                            x       y       z     vdW  Elec       q    Type
REMARK                         _______ _______ _______ _____ _____    ______ ____
ROOT
ATOM      1  C   UNL     1       2.737   6.037  18.856  0.00  0.00    +0.000 A 
ATOM      2  C   UNL     1       1.774   5.524  19.708  0.00  0.00    +0.000 A 
ATOM      3  C   UNL     1       2.028   4.132  19.796  0.00  0.00    +0.000 A 
ATOM      4  N   UNL     1       3.090   3.804  19.035  0.00  0.00    +0.000 NA
ATOM      5  N   UNL     1       3.618   4.991  18.642  0.00  0.00    +0.000 N 
ENDROOT
BRANCH   5   6
ATOM      6  C   UNL     1       4.941   5.033  18.128  0.00  0.00    +0.000 A 
ATOM      7  C   UNL     1       6.024   5.334  18.965  0.00  0.00    +0.000 A 
ATOM      8  C   UNL     1       7.311   5.413  18.442  0.00  0.00    +0.000 A 
ATOM      9  C   UNL     1       7.521   5.187  17.083  0.00  0.00    +0.000 A 
ATOM     10  C   UNL     1       6.452   4.863  16.232  0.00  0.00    +0.000 A 
ATOM     11  C   UNL     1       5.161   4.764  16.770  0.00  0.00    +0.000 A 
BRANCH  10  12
ATOM     12  C   UNL     1       6.694   4.660  14.808  0.00  0.00    +0.000 A 
ATOM     13  N   UNL     1       7.659   5.280  14.110  0.00  0.00    +0.000 NA
ATOM     14  N   UNL     1       7.495   4.765  12.884  0.00  0.00    +0.000 N 
ATOM     15  C   UNL     1       6.470   3.867  12.852  0.00  0.00    +0.000 A 
ATOM     16  N   UNL     1       5.950   3.772  14.059  0.00  0.00    +0.000 NA
ATOM     17  H   UNL     1       8.105   5.070  12.134  0.00  0.00    +0.000 HD
BRANCH  15  18
ATOM     18  C   UNL     1       6.059   3.151  11.607  0.00  0.00    +0.000 C 
ATOM     19  C   UNL     1       4.536   3.113  11.494  0.00  0.00    +0.000 C 
BRANCH  18  20
ATOM     20  N   UNL     1       6.577   1.780  11.601  0.00  0.00    +0.000 NA
ATOM     21  H   UNL     1       5.773   1.148  11.589  0.00  0.00    +0.000 HD
ATOM     22  H   UNL     1       7.011   1.599  12.508  0.00  0.00    +0.000 HD
ENDBRANCH  18  20
ENDBRANCH  15  18
ENDBRANCH  10  12
ENDBRANCH   5   6
BRANCH   1  24
ATOM     23  N   UNL     1       1.858   8.249  18.772  0.00  0.00    +0.000 N 
ATOM     24  C   UNL     1       2.833   7.380  18.334  0.00  0.00    +0.000 C 
ATOM     25  O   UNL     1       3.728   7.723  17.569  0.00  0.00    +0.000 OA
ATOM     26  H   UNL     1       1.228   7.977  19.514  0.00  0.00    +0.000 HD
BRANCH  23  27
ATOM     27  C   UNL     1       1.713   9.598  18.273  0.00  0.00    +0.000 C 
BRANCH  27  33
ATOM     28  C   UNL     1       0.133  11.032  19.679  0.00  0.00    +0.000 A 
ATOM     29  C   UNL     1      -1.147  11.564  19.884  0.00  0.00    +0.000 A 
ATOM     30  C   UNL     1      -2.206  11.212  19.046  0.00  0.00    +0.000 A 
ATOM     31  C   UNL     1      -1.992  10.341  17.985  0.00  0.00    +0.000 A 
ATOM     32  C   UNL     1      -0.716   9.833  17.756  0.00  0.00    +0.000 A 
ATOM     33  C   UNL     1       0.359  10.169  18.594  0.00  0.00    +0.000 A 
BRANCH  28  35
ATOM     34  C   UNL     1       1.521  12.738  20.542  0.00  0.00    +0.000 C 
ATOM     35  O   UNL     1       1.205  11.346  20.476  0.00  0.00    +0.000 OA
ENDBRANCH  28  35
ENDBRANCH  27  33
ENDBRANCH  23  27
ENDBRANCH   1  24
BRANCH   3  36
ATOM     36  C   UNL     1       1.252   3.111  20.585  0.00  0.00    +0.000 C 
ATOM     37  F   UNL     1       1.254   3.393  21.918  0.00  0.00    +0.000 F 
ATOM     38  F   UNL     1      -0.053   3.041  20.210  0.00  0.00    +0.000 F 
ATOM     39  F   UNL     1       1.770   1.860  20.459  0.00  0.00    +0.000 F 
ENDBRANCH   3  36
TORSDOF 9
ENDMDL
MODEL 4
REMARK VINA RESULT:      -9.2      0.849      1.126
REMARK  Name = 
REMARK  11 active torsions:
REMARK  status: ('A' for Active; 'I' for Inactive)
REMARK    1  A    between atoms: C_1  and  O_2
REMARK    2  A    between atoms: O_2  and  C_3
REMARK    3  A    between atoms: C_8  and  C_9
REMARK    4  A    between atoms: C_9  and  N_10
REMARK    5  A    between atoms: C_11  and  C_13
REMARK    6  A    between atoms: C_15  and  C_16
REMARK    7  A    between atoms: N_21  and  C_22
REMARK    8  A    between atoms: C_26  and  C_27
REMARK    9  A    between atoms: C_30  and  C_31
REMARK   10  A    between atoms: C_31  and  C_32
REMARK   11  A    between atoms: C_31  and  N_33
REMARK                            x       y       z     vdW  Elec       q    Type
REMARK                         _______ _______ _______ _____ _____    ______ ____
ROOT
ATOM      1  C   UNL     1       2.658   6.039  18.941  0.00  0.00    +0.000 A 
ATOM      2  C   UNL     1       1.719   5.430  19.758  0.00  0.00    +0.000 A 
ATOM      3  C   UNL     1       2.009   4.043  19.722  0.00  0.00    +0.000 A 
ATOM      4  N   UNL     1       3.067   3.809  18.923  0.00  0.00    +0.000 NA
ATOM      5  N   UNL     1       3.560   5.037  18.627  0.00  0.00    +0.000 N 
ENDROOT
BRANCH   5   6
ATOM      6  C   UNL     1       4.874   5.158  18.102  0.00  0.00    +0.000 A 
ATOM      7  C   UNL     1       5.939   5.553  18.924  0.00  0.00    +0.000 A 
ATOM      8  C   UNL     1       7.214   5.706  18.389  0.00  0.00    +0.000 A 
ATOM      9  C   UNL     1       7.432   5.461  17.034  0.00  0.00    +0.000 A 
ATOM     10  C   UNL     1       6.383   5.043  16.200  0.00  0.00    +0.000 A 
ATOM     11  C   UNL     1       5.105   4.870  16.750  0.00  0.00    +0.000 A 
BRANCH  10  12
ATOM     12  C   UNL     1       6.629   4.821  14.780  0.00  0.00    +0.000 A 
ATOM     13  N   UNL     1       7.554   5.479  14.062  0.00  0.00    +0.000 NA
ATOM     14  N   UNL     1       7.415   4.927  12.849  0.00  0.00    +0.000 N 
ATOM     15  C   UNL     1       6.444   3.970  12.844  0.00  0.00    +0.000 A 
ATOM     16  N   UNL     1       5.936   3.874  14.056  0.00  0.00    +0.000 NA
ATOM     17  H   UNL     1       8.003   5.248  12.089  0.00  0.00    +0.000 HD
BRANCH  15  18
ATOM     18  C   UNL     1       6.069   3.203  11.618  0.00  0.00    +0.000 C 
ATOM     19  C   UNL     1       4.551   3.079  11.512  0.00  0.00    +0.000 C 
BRANCH  18  20
ATOM     20  N   UNL     1       6.662   1.861  11.644  0.00  0.00    +0.000 NA
ATOM     21  H   UNL     1       5.906   1.190  11.489  0.00  0.00    +0.000 HD
ATOM     22  H   UNL     1       6.964   1.665  12.600  0.00  0.00    +0.000 HD
ENDBRANCH  18  20
ENDBRANCH  15  18
ENDBRANCH  10  12
ENDBRANCH   5   6
BRANCH   1  24
ATOM     23  N   UNL     1       1.756   8.237  19.099  0.00  0.00    +0.000 N 
ATOM     24  C   UNL     1       2.713   7.423  18.536  0.00  0.00    +0.000 C 
ATOM     25  O   UNL     1       3.563   7.844  17.758  0.00  0.00    +0.000 OA
ATOM     26  H   UNL     1       1.168   7.893  19.846  0.00  0.00    +0.000 HD
BRANCH  23  27
ATOM     27  C   UNL     1       1.572   9.623  18.729  0.00  0.00    +0.000 C 
BRANCH  27  33
ATOM     28  C   UNL     1       0.581  11.771  19.699  0.00  0.00    +0.000 A 
ATOM     29  C   UNL     1      -0.096  12.420  20.739  0.00  0.00    +0.000 A 
ATOM     30  C   UNL     1      -0.424  11.735  21.911  0.00  0.00    +0.000 A 
ATOM     31  C   UNL     1      -0.095  10.392  22.045  0.00  0.00    +0.000 A 
ATOM     32  C   UNL     1       0.550   9.732  21.003  0.00  0.00    +0.000 A 
ATOM     33  C   UNL     1       0.896  10.406  19.821  0.00  0.00    +0.000 A 
BRANCH  28  35
ATOM     34  C   UNL     1       1.695  13.593  18.690  0.00  0.00    +0.000 C 
ATOM     35  O   UNL     1       0.927  12.400  18.529  0.00  0.00    +0.000 OA
ENDBRANCH  28  35
ENDBRANCH  27  33
ENDBRANCH  23  27
ENDBRANCH   1  24
BRANCH   3  36
ATOM     36  C   UNL     1       1.268   2.939  20.430  0.00  0.00    +0.000 C 
ATOM     37  F   UNL     1       1.926   1.749  20.338  0.00  0.00    +0.000 F 
ATOM     38  F   UNL     1       1.104   3.184  21.757  0.00  0.00    +0.000 F 
ATOM     39  F   UNL     1       0.030   2.731  19.907  0.00  0.00    +0.000 F 
ENDBRANCH   3  36
TORSDOF 9
ENDMDL
MODEL 5
REMARK VINA RESULT:      -8.7      1.145      1.869
REMARK  Name = 
REMARK  11 active torsions:
REMARK  status: ('A' for Active; 'I' for Inactive)
REMARK    1  A    between atoms: C_1  and  O_2
REMARK    2  A    between atoms: O_2  and  C_3
REMARK    3  A    between atoms: C_8  and  C_9
REMARK    4  A    between atoms: C_9  and  N_10
REMARK    5  A    between atoms: C_11  and  C_13
REMARK    6  A    between atoms: C_15  and  C_16
REMARK    7  A    between atoms: N_21  and  C_22
REMARK    8  A    between atoms: C_26  and  C_27
REMARK    9  A    between atoms: C_30  and  C_31
REMARK   10  A    between atoms: C_31  and  C_32
REMARK   11  A    between atoms: C_31  and  N_33
REMARK                            x       y       z     vdW  Elec       q    Type
REMARK                         _______ _______ _______ _____ _____    ______ ____
ROOT
ATOM      1  C   UNL     1       3.001   6.061  19.013  0.00  0.00    +0.000 A 
ATOM      2  C   UNL     1       2.167   5.604  20.020  0.00  0.00    +0.000 A 
ATOM      3  C   UNL     1       2.534   4.255  20.251  0.00  0.00    +0.000 A 
ATOM      4  N   UNL     1       3.538   3.897  19.428  0.00  0.00    +0.000 NA
ATOM      5  N   UNL     1       3.933   5.053  18.838  0.00  0.00    +0.000 N 
ENDROOT
BRANCH   5   6
ATOM      6  C   UNL     1       5.193   5.111  18.184  0.00  0.00    +0.000 A 
ATOM      7  C   UNL     1       6.333   5.559  18.867  0.00  0.00    +0.000 A 
ATOM      8  C   UNL     1       7.553   5.650  18.205  0.00  0.00    +0.000 A 
ATOM      9  C   UNL     1       7.640   5.291  16.860  0.00  0.00    +0.000 A 
ATOM     10  C   UNL     1       6.515   4.818  16.166  0.00  0.00    +0.000 A 
ATOM     11  C   UNL     1       5.293   4.709  16.845  0.00  0.00    +0.000 A 
BRANCH  10  12
ATOM     12  C   UNL     1       6.625   4.476  14.753  0.00  0.00    +0.000 A 
ATOM     13  N   UNL     1       7.398   5.134  13.874  0.00  0.00    +0.000 NA
ATOM     14  N   UNL     1       7.182   4.453  12.741  0.00  0.00    +0.000 N 
ATOM     15  C   UNL     1       6.313   3.421  12.937  0.00  0.00    +0.000 A 
ATOM     16  N   UNL     1       5.952   3.404  14.205  0.00  0.00    +0.000 NA
ATOM     17  H   UNL     1       7.650   4.745  11.891  0.00  0.00    +0.000 HD
BRANCH  15  18
ATOM     18  C   UNL     1       5.883   2.504  11.839  0.00  0.00    +0.000 C 
ATOM     19  C   UNL     1       7.074   2.136  10.957  0.00  0.00    +0.000 C 
BRANCH  18  20
ATOM     20  N   UNL     1       4.847   3.134  11.013  0.00  0.00    +0.000 NA
ATOM     21  H   UNL     1       3.996   2.575  11.112  0.00  0.00    +0.000 HD
ATOM     22  H   UNL     1       5.103   3.010  10.033  0.00  0.00    +0.000 HD
ENDBRANCH  18  20
ENDBRANCH  15  18
ENDBRANCH  10  12
ENDBRANCH   5   6
BRANCH   1  24
ATOM     23  N   UNL     1       2.016   8.220  18.814  0.00  0.00    +0.000 N 
ATOM     24  C   UNL     1       2.943   7.328  18.323  0.00  0.00    +0.000 C 
ATOM     25  O   UNL     1       3.679   7.593  17.378  0.00  0.00    +0.000 OA
ATOM     26  H   UNL     1       1.534   8.030  19.682  0.00  0.00    +0.000 HD
BRANCH  23  27
ATOM     27  C   UNL     1       1.725   9.490  18.187  0.00  0.00    +0.000 C 
BRANCH  27  33
ATOM     28  C   UNL     1       0.076  10.500  19.859  0.00  0.00    +0.000 A 
ATOM     29  C   UNL     1      -1.199  11.011  20.130  0.00  0.00    +0.000 A 
ATOM     30  C   UNL     1      -2.195  10.995  19.153  0.00  0.00    +0.000 A 
ATOM     31  C   UNL     1      -1.920  10.487  17.889  0.00  0.00    +0.000 A 
ATOM     32  C   UNL     1      -0.645  10.006  17.602  0.00  0.00    +0.000 A 
ATOM     33  C   UNL     1       0.367  10.005  18.575  0.00  0.00    +0.000 A 
BRANCH  28  35
ATOM     34  C   UNL     1       0.874   9.629  21.905  0.00  0.00    +0.000 C 
ATOM     35  O   UNL     1       1.088  10.492  20.787  0.00  0.00    +0.000 OA
ENDBRANCH  28  35
ENDBRANCH  27  33
ENDBRANCH  23  27
ENDBRANCH   1  24
BRANCH   3  36
ATOM     36  C   UNL     1       1.917   3.298  21.238  0.00  0.00    +0.000 C 
ATOM     37  F   UNL     1       0.558   3.282  21.147  0.00  0.00    +0.000 F 
ATOM     38  F   UNL     1       2.329   2.016  21.053  0.00  0.00    +0.000 F 
ATOM     39  F   UNL     1       2.208   3.627  22.525  0.00  0.00    +0.000 F 
ENDBRANCH   3  36
TORSDOF 9
ENDMDL
MODEL 6
REMARK VINA RESULT:      -8.5      4.665      7.650
REMARK  Name = 
REMARK  11 active torsions:
REMARK  status: ('A' for Active; 'I' for Inactive)
REMARK    1  A    between atoms: C_1  and  O_2
REMARK    2  A    between atoms: O_2  and  C_3
REMARK    3  A    between atoms: C_8  and  C_9
REMARK    4  A    between atoms: C_9  and  N_10
REMARK    5  A    between atoms: C_11  and  C_13
REMARK    6  A    between atoms: C_15  and  C_16
REMARK    7  A    between atoms: N_21  and  C_22
REMARK    8  A    between atoms: C_26  and  C_27
REMARK    9  A    between atoms: C_30  and  C_31
REMARK   10  A    between atoms: C_31  and  C_32
REMARK   11  A    between atoms: C_31  and  N_33
REMARK                            x       y       z     vdW  Elec       q    Type
REMARK                         _______ _______ _______ _____ _____    ______ ____
ROOT
ATOM      1  C   UNL     1       5.137   5.243  15.857  0.00  0.00    +0.000 A 
ATOM      2  C   UNL     1       5.052   4.525  14.675  0.00  0.00    +0.000 A 
ATOM      3  C   UNL     1       6.320   4.642  14.053  0.00  0.00    +0.000 A 
ATOM      4  N   UNL     1       7.143   5.395  14.809  0.00  0.00    +0.000 NA
ATOM      5  N   UNL     1       6.476   5.575  15.976  0.00  0.00    +0.000 N 
ENDROOT
BRANCH   5   6
ATOM      6  C   UNL     1       7.183   6.015  17.127  0.00  0.00    +0.000 A 
ATOM      7  C   UNL     1       7.486   5.123  18.165  0.00  0.00    +0.000 A 
ATOM      8  C   UNL     1       8.143   5.575  19.305  0.00  0.00    +0.000 A 
ATOM      9  C   UNL     1       8.504   6.918  19.410  0.00  0.00    +0.000 A 
ATOM     10  C   UNL     1       8.230   7.822  18.371  0.00  0.00    +0.000 A 
ATOM     11  C   UNL     1       7.586   7.355  17.217  0.00  0.00    +0.000 A 
BRANCH  10  12
ATOM     12  C   UNL     1       8.591   9.227  18.518  0.00  0.00    +0.000 A 
ATOM     13  N   UNL     1       9.202   9.742  19.597  0.00  0.00    +0.000 NA
ATOM     14  N   UNL     1       9.334  11.031  19.259  0.00  0.00    +0.000 N 
ATOM     15  C   UNL     1       8.824  11.277  18.019  0.00  0.00    +0.000 A 
ATOM     16  N   UNL     1       8.356  10.150  17.521  0.00  0.00    +0.000 NA
ATOM     17  H   UNL     1       9.771  11.671  19.912  0.00  0.00    +0.000 HD
BRANCH  15  18
ATOM     18  C   UNL     1       8.827  12.635  17.397  0.00  0.00    +0.000 C 
ATOM     19  C   UNL     1       9.566  13.628  18.291  0.00  0.00    +0.000 C 
BRANCH  18  20
ATOM     20  N   UNL     1       7.456  13.109  17.180  0.00  0.00    +0.000 NA
ATOM     21  H   UNL     1       7.025  13.230  18.100  0.00  0.00    +0.000 HD
ATOM     22  H   UNL     1       6.918  12.349  16.762  0.00  0.00    +0.000 HD
ENDBRANCH  18  20
ENDBRANCH  15  18
ENDBRANCH  10  12
ENDBRANCH   5   6
BRANCH   1  24
ATOM     23  N   UNL     1       3.141   4.549  16.953  0.00  0.00    +0.000 N 
ATOM     24  C   UNL     1       4.075   5.546  16.786  0.00  0.00    +0.000 C 
ATOM     25  O   UNL     1       4.021   6.610  17.395  0.00  0.00    +0.000 OA
ATOM     26  H   UNL     1       3.295   3.632  16.554  0.00  0.00    +0.000 HD
BRANCH  23  27
ATOM     27  C   UNL     1       1.942   4.706  17.746  0.00  0.00    +0.000 C 
BRANCH  27  33
ATOM     28  C   UNL     1       2.402   2.745  19.319  0.00  0.00    +0.000 A 
ATOM     29  C   UNL     1       2.580   2.266  20.624  0.00  0.00    +0.000 A 
ATOM     30  C   UNL     1       2.415   3.112  21.721  0.00  0.00    +0.000 A 
ATOM     31  C   UNL     1       2.090   4.449  21.525  0.00  0.00    +0.000 A 
ATOM     32  C   UNL     1       1.942   4.939  20.230  0.00  0.00    +0.000 A 
ATOM     33  C   UNL     1       2.095   4.101  19.114  0.00  0.00    +0.000 A 
BRANCH  28  35
ATOM     34  C   UNL     1       3.779   1.225  18.146  0.00  0.00    +0.000 C 
ATOM     35  O   UNL     1       2.551   1.952  18.208  0.00  0.00    +0.000 OA
ENDBRANCH  28  35
ENDBRANCH  27  33
ENDBRANCH  23  27
ENDBRANCH   1  24
BRANCH   3  36
ATOM     36  C   UNL     1       6.745   4.057  12.732  0.00  0.00    +0.000 C 
ATOM     37  F   UNL     1       5.706   3.981  11.854  0.00  0.00    +0.000 F 
ATOM     38  F   UNL     1       7.711   4.792  12.120  0.00  0.00    +0.000 F 
ATOM     39  F   UNL     1       7.228   2.792  12.860  0.00  0.00    +0.000 F 
ENDBRANCH   3  36
TORSDOF 9
ENDMDL
MODEL 7
REMARK VINA RESULT:      -8.4      2.581      4.283
REMARK  Name = 
REMARK  11 active torsions:
REMARK  status: ('A' for Active; 'I' for Inactive)
REMARK    1  A    between atoms: C_1  and  O_2
REMARK    2  A    between atoms: O_2  and  C_3
REMARK    3  A    between atoms: C_8  and  C_9
REMARK    4  A    between atoms: C_9  and  N_10
REMARK    5  A    between atoms: C_11  and  C_13
REMARK    6  A    between atoms: C_15  and  C_16
REMARK    7  A    between atoms: N_21  and  C_22
REMARK    8  A    between atoms: C_26  and  C_27
REMARK    9  A    between atoms: C_30  and  C_31
REMARK   10  A    between atoms: C_31  and  C_32
REMARK   11  A    between atoms: C_31  and  N_33
REMARK                            x       y       z     vdW  Elec       q    Type
REMARK                         _______ _______ _______ _____ _____    ______ ____
ROOT
ATOM      1  C   UNL     1       2.431   5.892  18.728  0.00  0.00    +0.000 A 
ATOM      2  C   UNL     1       1.737   5.078  19.609  0.00  0.00    +0.000 A 
ATOM      3  C   UNL     1       2.184   3.757  19.358  0.00  0.00    +0.000 A 
ATOM      4  N   UNL     1       3.102   3.755  18.372  0.00  0.00    +0.000 NA
ATOM      5  N   UNL     1       3.379   5.064  18.151  0.00  0.00    +0.000 N 
ENDROOT
BRANCH   5   6
ATOM      6  C   UNL     1       4.553   5.421  17.435  0.00  0.00    +0.000 A 
ATOM      7  C   UNL     1       4.854   4.815  16.207  0.00  0.00    +0.000 A 
ATOM      8  C   UNL     1       6.027   5.143  15.536  0.00  0.00    +0.000 A 
ATOM      9  C   UNL     1       6.901   6.081  16.085  0.00  0.00    +0.000 A 
ATOM     10  C   UNL     1       6.606   6.716  17.302  0.00  0.00    +0.000 A 
ATOM     11  C   UNL     1       5.411   6.395  17.963  0.00  0.00    +0.000 A 
BRANCH  10  12
ATOM     12  C   UNL     1       7.549   7.671  17.870  0.00  0.00    +0.000 A 
ATOM     13  N   UNL     1       8.400   7.389  18.870  0.00  0.00    +0.000 NA
ATOM     14  N   UNL     1       9.052   8.549  19.021  0.00  0.00    +0.000 N 
ATOM     15  C   UNL     1       8.610   9.491  18.139  0.00  0.00    +0.000 A 
ATOM     16  N   UNL     1       7.665   8.959  17.390  0.00  0.00    +0.000 NA
ATOM     17  H   UNL     1       9.770   8.624  19.733  0.00  0.00    +0.000 HD
BRANCH  15  18
ATOM     18  C   UNL     1       9.154  10.881  18.097  0.00  0.00    +0.000 C 
ATOM     19  C   UNL     1       9.642  11.303  19.482  0.00  0.00    +0.000 C 
BRANCH  18  20
ATOM     20  N   UNL     1       8.131  11.825  17.637  0.00  0.00    +0.000 NA
ATOM     21  H   UNL     1       7.247  11.556  18.076  0.00  0.00    +0.000 HD
ATOM     22  H   UNL     1       7.967  11.657  16.643  0.00  0.00    +0.000 HD
ENDBRANCH  18  20
ENDBRANCH  15  18
ENDBRANCH  10  12
ENDBRANCH   5   6
BRANCH   1  24
ATOM     23  N   UNL     1       1.809   8.027  19.579  0.00  0.00    +0.000 N 
ATOM     24  C   UNL     1       2.243   7.303  18.491  0.00  0.00    +0.000 C 
ATOM     25  O   UNL     1       2.468   7.820  17.401  0.00  0.00    +0.000 OA
ATOM     26  H   UNL     1       1.777   7.602  20.496  0.00  0.00    +0.000 HD
BRANCH  23  27
ATOM     27  C   UNL     1       1.449   9.426  19.511  0.00  0.00    +0.000 C 
BRANCH  27  33
ATOM     28  C   UNL     1      -0.108  11.030  20.751  0.00  0.00    +0.000 A 
ATOM     29  C   UNL     1      -0.847  11.341  21.900  0.00  0.00    +0.000 A 
ATOM     30  C   UNL     1      -0.783  10.525  23.030  0.00  0.00    +0.000 A 
ATOM     31  C   UNL     1       0.003   9.379  23.015  0.00  0.00    +0.000 A 
ATOM     32  C   UNL     1       0.715   9.046  21.866  0.00  0.00    +0.000 A 
ATOM     33  C   UNL     1       0.671   9.860  20.723  0.00  0.00    +0.000 A 
BRANCH  28  35
ATOM     34  C   UNL     1      -1.420  11.923  19.000  0.00  0.00    +0.000 C 
ATOM     35  O   UNL     1      -0.136  11.802  19.616  0.00  0.00    +0.000 OA
ENDBRANCH  28  35
ENDBRANCH  27  33
ENDBRANCH  23  27
ENDBRANCH   1  24
BRANCH   3  36
ATOM     36  C   UNL     1       1.724   2.495  20.038  0.00  0.00    +0.000 C 
ATOM     37  F   UNL     1       1.905   1.399  19.249  0.00  0.00    +0.000 F 
ATOM     38  F   UNL     1       2.395   2.249  21.195  0.00  0.00    +0.000 F 
ATOM     39  F   UNL     1       0.400   2.527  20.345  0.00  0.00    +0.000 F 
ENDBRANCH   3  36
TORSDOF 9
ENDMDL
MODEL 8
REMARK VINA RESULT:      -8.4      4.640      7.799
REMARK  Name = 
REMARK  11 active torsions:
REMARK  status: ('A' for Active; 'I' for Inactive)
REMARK    1  A    between atoms: C_1  and  O_2
REMARK    2  A    between atoms: O_2  and  C_3
REMARK    3  A    between atoms: C_8  and  C_9
REMARK    4  A    between atoms: C_9  and  N_10
REMARK    5  A    between atoms: C_11  and  C_13
REMARK    6  A    between atoms: C_15  and  C_16
REMARK    7  A    between atoms: N_21  and  C_22
REMARK    8  A    between atoms: C_26  and  C_27
REMARK    9  A    between atoms: C_30  and  C_31
REMARK   10  A    between atoms: C_31  and  C_32
REMARK   11  A    between atoms: C_31  and  N_33
REMARK                            x       y       z     vdW  Elec       q    Type
REMARK                         _______ _______ _______ _____ _____    ______ ____
ROOT
ATOM      1  C   UNL     1       5.082   5.349  15.865  0.00  0.00    +0.000 A 
ATOM      2  C   UNL     1       4.975   4.581  14.717  0.00  0.00    +0.000 A 
ATOM      3  C   UNL     1       6.248   4.624  14.096  0.00  0.00    +0.000 A 
ATOM      4  N   UNL     1       7.094   5.382  14.820  0.00  0.00    +0.000 NA
ATOM      5  N   UNL     1       6.431   5.639  15.975  0.00  0.00    +0.000 N 
ENDROOT
BRANCH   5   6
ATOM      6  C   UNL     1       7.150   6.107  17.107  0.00  0.00    +0.000 A 
ATOM      7  C   UNL     1       7.455   5.242  18.168  0.00  0.00    +0.000 A 
ATOM      8  C   UNL     1       8.124   5.722  19.290  0.00  0.00    +0.000 A 
ATOM      9  C   UNL     1       8.495   7.064  19.354  0.00  0.00    +0.000 A 
ATOM     10  C   UNL     1       8.219   7.940  18.292  0.00  0.00    +0.000 A 
ATOM     11  C   UNL     1       7.563   7.445  17.156  0.00  0.00    +0.000 A 
BRANCH  10  12
ATOM     12  C   UNL     1       8.591   9.346  18.395  0.00  0.00    +0.000 A 
ATOM     13  N   UNL     1       8.287  10.278  17.478  0.00  0.00    +0.000 NA
ATOM     14  N   UNL     1       8.813  11.386  18.016  0.00  0.00    +0.000 N 
ATOM     15  C   UNL     1       9.408  11.126  19.215  0.00  0.00    +0.000 A 
ATOM     16  N   UNL     1       9.274   9.844  19.486  0.00  0.00    +0.000 NA
ATOM     17  H   UNL     1       8.731  12.265  17.517  0.00  0.00    +0.000 HD
BRANCH  15  18
ATOM     18  C   UNL     1      10.088  12.179  20.026  0.00  0.00    +0.000 C 
ATOM     19  C   UNL     1      10.273  13.451  19.200  0.00  0.00    +0.000 C 
BRANCH  18  20
ATOM     20  N   UNL     1      11.398  11.711  20.492  0.00  0.00    +0.000 NA
ATOM     21  H   UNL     1      12.066  12.470  20.337  0.00  0.00    +0.000 HD
ATOM     22  H   UNL     1      11.717  10.977  19.858  0.00  0.00    +0.000 HD
ENDBRANCH  18  20
ENDBRANCH  15  18
ENDBRANCH  10  12
ENDBRANCH   5   6
BRANCH   1  24
ATOM     23  N   UNL     1       3.159   4.721  17.122  0.00  0.00    +0.000 N 
ATOM     24  C   UNL     1       4.029   5.731  16.775  0.00  0.00    +0.000 C 
ATOM     25  O   UNL     1       3.927   6.871  17.218  0.00  0.00    +0.000 OA
ATOM     26  H   UNL     1       3.357   3.765  16.860  0.00  0.00    +0.000 HD
BRANCH  23  27
ATOM     27  C   UNL     1       1.974   4.932  17.924  0.00  0.00    +0.000 C 
BRANCH  27  33
ATOM     28  C   UNL     1       2.268   2.800  19.303  0.00  0.00    +0.000 A 
ATOM     29  C   UNL     1       2.372   2.185  20.558  0.00  0.00    +0.000 A 
ATOM     30  C   UNL     1       2.213   2.926  21.729  0.00  0.00    +0.000 A 
ATOM     31  C   UNL     1       1.969   4.292  21.659  0.00  0.00    +0.000 A 
ATOM     32  C   UNL     1       1.896   4.917  20.417  0.00  0.00    +0.000 A 
ATOM     33  C   UNL     1       2.044   4.186  19.228  0.00  0.00    +0.000 A 
BRANCH  28  35
ATOM     34  C   UNL     1       3.632   1.379  18.000  0.00  0.00    +0.000 C 
ATOM     35  O   UNL     1       2.414   2.115  18.123  0.00  0.00    +0.000 OA
ENDBRANCH  28  35
ENDBRANCH  27  33
ENDBRANCH  23  27
ENDBRANCH   1  24
BRANCH   3  36
ATOM     36  C   UNL     1       6.656   3.964  12.805  0.00  0.00    +0.000 C 
ATOM     37  F   UNL     1       7.623   4.673  12.157  0.00  0.00    +0.000 F 
ATOM     38  F   UNL     1       7.157   2.714  12.991  0.00  0.00    +0.000 F 
ATOM     39  F   UNL     1       5.618   3.852  11.933  0.00  0.00    +0.000 F 
ENDBRANCH   3  36
TORSDOF 9
ENDMDL
MODEL 9
REMARK VINA RESULT:      -8.3      1.364      1.624
REMARK  Name = 
REMARK  11 active torsions:
REMARK  status: ('A' for Active; 'I' for Inactive)
REMARK    1  A    between atoms: C_1  and  O_2
REMARK    2  A    between atoms: O_2  and  C_3
REMARK    3  A    between atoms: C_8  and  C_9
REMARK    4  A    between atoms: C_9  and  N_10
REMARK    5  A    between atoms: C_11  and  C_13
REMARK    6  A    between atoms: C_15  and  C_16
REMARK    7  A    between atoms: N_21  and  C_22
REMARK    8  A    between atoms: C_26  and  C_27
REMARK    9  A    between atoms: C_30  and  C_31
REMARK   10  A    between atoms: C_31  and  C_32
REMARK   11  A    between atoms: C_31  and  N_33
REMARK                            x       y       z     vdW  Elec       q    Type
REMARK                         _______ _______ _______ _____ _____    ______ ____
ROOT
ATOM      1  C   UNL     1       2.388   5.934  18.937  0.00  0.00    +0.000 A 
ATOM      2  C   UNL     1       1.485   5.125  19.608  0.00  0.00    +0.000 A 
ATOM      3  C   UNL     1       1.739   3.803  19.165  0.00  0.00    +0.000 A 
ATOM      4  N   UNL     1       2.742   3.797  18.266  0.00  0.00    +0.000 NA
ATOM      5  N   UNL     1       3.246   5.056  18.297  0.00  0.00    +0.000 N 
ENDROOT
BRANCH   5   6
ATOM      6  C   UNL     1       4.529   5.312  17.745  0.00  0.00    +0.000 A 
ATOM      7  C   UNL     1       5.500   6.005  18.481  0.00  0.00    +0.000 A 
ATOM      8  C   UNL     1       6.739   6.284  17.915  0.00  0.00    +0.000 A 
ATOM      9  C   UNL     1       7.015   5.869  16.613  0.00  0.00    +0.000 A 
ATOM     10  C   UNL     1       6.065   5.154  15.867  0.00  0.00    +0.000 A 
ATOM     11  C   UNL     1       4.825   4.858  16.452  0.00  0.00    +0.000 A 
BRANCH  10  12
ATOM     12  C   UNL     1       6.366   4.757  14.497  0.00  0.00    +0.000 A 
ATOM     13  N   UNL     1       7.435   5.182  13.804  0.00  0.00    +0.000 NA
ATOM     14  N   UNL     1       7.288   4.543  12.637  0.00  0.00    +0.000 N 
ATOM     15  C   UNL     1       6.172   3.759  12.633  0.00  0.00    +0.000 A 
ATOM     16  N   UNL     1       5.574   3.866  13.802  0.00  0.00    +0.000 NA
ATOM     17  H   UNL     1       7.972   4.689  11.903  0.00  0.00    +0.000 HD
BRANCH  15  18
ATOM     18  C   UNL     1       5.758   2.945  11.451  0.00  0.00    +0.000 C 
ATOM     19  C   UNL     1       4.247   3.033  11.247  0.00  0.00    +0.000 C 
BRANCH  18  20
ATOM     20  N   UNL     1       6.139   1.540  11.630  0.00  0.00    +0.000 NA
ATOM     21  H   UNL     1       5.938   1.289  12.601  0.00  0.00    +0.000 HD
ATOM     22  H   UNL     1       7.156   1.476  11.572  0.00  0.00    +0.000 HD
ENDBRANCH  18  20
ENDBRANCH  15  18
ENDBRANCH  10  12
ENDBRANCH   5   6
BRANCH   1  24
ATOM     23  N   UNL     1       1.690   7.996  17.970  0.00  0.00    +0.000 N 
ATOM     24  C   UNL     1       2.452   7.376  18.935  0.00  0.00    +0.000 C 
ATOM     25  O   UNL     1       3.125   8.002  19.748  0.00  0.00    +0.000 OA
ATOM     26  H   UNL     1       1.034   7.462  17.417  0.00  0.00    +0.000 HD
BRANCH  23  27
ATOM     27  C   UNL     1       1.715   9.422  17.731  0.00  0.00    +0.000 C 
BRANCH  27  33
ATOM     28  C   UNL     1      -0.666  10.196  18.248  0.00  0.00    +0.000 A 
ATOM     29  C   UNL     1      -1.558  10.847  19.111  0.00  0.00    +0.000 A 
ATOM     30  C   UNL     1      -1.097  11.480  20.265  0.00  0.00    +0.000 A 
ATOM     31  C   UNL     1       0.257  11.453  20.579  0.00  0.00    +0.000 A 
ATOM     32  C   UNL     1       1.145  10.781  19.744  0.00  0.00    +0.000 A 
ATOM     33  C   UNL     1       0.701  10.146  18.573  0.00  0.00    +0.000 A 
BRANCH  28  35
ATOM     34  C   UNL     1      -2.370   9.925  16.634  0.00  0.00    +0.000 C 
ATOM     35  O   UNL     1      -1.070   9.560  17.100  0.00  0.00    +0.000 OA
ENDBRANCH  28  35
ENDBRANCH  27  33
ENDBRANCH  23  27
ENDBRANCH   1  24
BRANCH   3  36
ATOM     36  C   UNL     1       1.016   2.548  19.579  0.00  0.00    +0.000 C 
ATOM     37  F   UNL     1       0.257   2.745  20.693  0.00  0.00    +0.000 F 
ATOM     38  F   UNL     1       0.173   2.088  18.617  0.00  0.00    +0.000 F 
ATOM     39  F   UNL     1       1.872   1.534  19.877  0.00  0.00    +0.000 F 
ENDBRANCH   3  36
TORSDOF 9
ENDMDL
