MODEL 1
REMARK VINA RESULT:      -7.4      0.000      0.000
REMARK  Name = 
REMARK  10 active torsions:
REMARK  status: ('A' for Active; 'I' for Inactive)
REMARK    1  A    between atoms: C_1  and  O_2
REMARK    2  A    between atoms: O_2  and  C_3
REMARK    3  A    between atoms: C_6  and  S_7
REMARK    4  A    between atoms: S_7  and  N_10
REMARK    5  A    between atoms: C_19  and  C_20
REMARK    6  A    between atoms: N_22  and  C_23
REMARK    7  A    between atoms: C_26  and  C_27
REMARK    8  A    between atoms: C_29  and  C_30
REMARK    9  A    between atoms: C_32  and  O_33
REMARK   10  A    between atoms: O_33  and  C_34
REMARK                            x       y       z     vdW  Elec       q    Type
REMARK                         _______ _______ _______ _____ _____    ______ ____
ROOT
ATOM      1  N   UNL     1       0.932  11.587  20.933  0.00  0.00    +0.000 NA
ATOM      2  C   UNL     1       1.115  12.997  21.336  0.00  0.00    +0.000 C 
ATOM      3  C   UNL     1       2.023  13.704  20.380  0.00  0.00    +0.000 A 
ATOM      4  C   UNL     1       3.327  14.067  20.688  0.00  0.00    +0.000 A 
ATOM      5  C   UNL     1       4.074  14.752  19.739  0.00  0.00    +0.000 A 
ATOM      6  C   UNL     1       3.479  15.142  18.535  0.00  0.00    +0.000 A 
ATOM      7  C   UNL     1       2.230  14.632  18.166  0.00  0.00    +0.000 A 
ATOM      8  C   UNL     1       1.591  13.763  19.043  0.00  0.00    +0.000 A 
ATOM      9  C   UNL     1       0.719  12.564  18.611  0.00  0.00    +0.000 C 
ATOM     10  C   UNL     1       1.250  11.352  19.474  0.00  0.00    +0.000 C 
ENDROOT
BRANCH  10  11
ATOM     11  C   UNL     1       1.097   9.890  18.990  0.00  0.00    +0.000 C 
ATOM     12  O   UNL     1       0.394   9.601  18.032  0.00  0.00    +0.000 OA
ATOM     13  N   UNL     1       1.895   9.010  19.759  0.00  0.00    +0.000 N 
ATOM     14  H   UNL     1       2.440   9.438  20.493  0.00  0.00    +0.000 HD
BRANCH  13  15
ATOM     15  C   UNL     1       2.008   7.587  19.677  0.00  0.00    +0.000 A 
ATOM     16  C   UNL     1       1.485   6.739  20.653  0.00  0.00    +0.000 A 
ATOM     17  C   UNL     1       1.594   5.331  20.556  0.00  0.00    +0.000 A 
ATOM     18  C   UNL     1       2.234   4.745  19.454  0.00  0.00    +0.000 A 
ATOM     19  C   UNL     1       2.296   3.253  19.280  0.00  0.00    +0.000 C 
ATOM     20  C   UNL     1       2.780   5.581  18.486  0.00  0.00    +0.000 A 
ATOM     21  C   UNL     1       2.688   6.998  18.584  0.00  0.00    +0.000 A 
ATOM     22  C   UNL     1       3.360   7.778  17.486  0.00  0.00    +0.000 C 
ENDBRANCH  13  15
ENDBRANCH  10  11
BRANCH   1  23
ATOM     23  S   UNL     1      -0.361  10.826  21.707  0.00  0.00    +0.000 S 
ATOM     24  O   UNL     1      -0.018  10.721  23.112  0.00  0.00    +0.000 OA
ATOM     25  O   UNL     1      -0.689   9.625  20.979  0.00  0.00    +0.000 OA
BRANCH  23  29
ATOM     26  C   UNL     1      -4.251  13.177  21.375  0.00  0.00    +0.000 A 
ATOM     27  C   UNL     1      -3.550  12.791  20.219  0.00  0.00    +0.000 A 
ATOM     28  C   UNL     1      -2.324  12.137  20.313  0.00  0.00    +0.000 A 
ATOM     29  C   UNL     1      -1.750  11.933  21.561  0.00  0.00    +0.000 A 
ATOM     30  C   UNL     1      -2.390  12.410  22.711  0.00  0.00    +0.000 A 
ATOM     31  C   UNL     1      -3.641  13.047  22.631  0.00  0.00    +0.000 A 
BRANCH  26  33
ATOM     32  C   UNL     1      -6.544  12.655  21.383  0.00  0.00    +0.000 C 
ATOM     33  O   UNL     1      -5.526  13.658  21.259  0.00  0.00    +0.000 OA
ENDBRANCH  26  33
BRANCH  31  34
ATOM     34  O   UNL     1      -4.115  13.395  23.866  0.00  0.00    +0.000 OA
ATOM     35  C   UNL     1      -4.491  12.391  24.794  0.00  0.00    +0.000 C 
ENDBRANCH  31  34
ENDBRANCH  23  29
ENDBRANCH   1  23
TORSDOF 6
ENDMDL
MODEL 2
REMARK VINA RESULT:      -7.3      2.750      6.839
REMARK  Name = 
REMARK  10 active torsions:
REMARK  status: ('A' for Active; 'I' for Inactive)
REMARK    1  A    between atoms: C_1  and  O_2
REMARK    2  A    between atoms: O_2  and  C_3
REMARK    3  A    between atoms: C_6  and  S_7
REMARK    4  A    between atoms: S_7  and  N_10
REMARK    5  A    between atoms: C_19  and  C_20
REMARK    6  A    between atoms: N_22  and  C_23
REMARK    7  A    between atoms: C_26  and  C_27
REMARK    8  A    between atoms: C_29  and  C_30
REMARK    9  A    between atoms: C_32  and  O_33
REMARK   10  A    between atoms: O_33  and  C_34
REMARK                            x       y       z     vdW  Elec       q    Type
REMARK                         _______ _______ _______ _____ _____    ______ ____
ROOT
ATOM      1  N   UNL     1      -2.833  14.379  22.759  0.00  0.00    +0.000 NA
ATOM      2  C   UNL     1      -4.027  15.185  23.092  0.00  0.00    +0.000 C 
ATOM      3  C   UNL     1      -5.266  14.351  23.004  0.00  0.00    +0.000 A 
ATOM      4  C   UNL     1      -6.200  14.473  21.984  0.00  0.00    +0.000 A 
ATOM      5  C   UNL     1      -7.335  13.674  22.015  0.00  0.00    +0.000 A 
ATOM      6  C   UNL     1      -7.562  12.831  23.108  0.00  0.00    +0.000 A 
ATOM      7  C   UNL     1      -6.546  12.592  24.040  0.00  0.00    +0.000 A 
ATOM      8  C   UNL     1      -5.329  13.240  23.863  0.00  0.00    +0.000 A 
ATOM      9  C   UNL     1      -3.952  12.628  24.200  0.00  0.00    +0.000 C 
ATOM     10  C   UNL     1      -3.071  12.894  22.916  0.00  0.00    +0.000 C 
ENDROOT
BRANCH  10  11
ATOM     11  C   UNL     1      -1.865  11.990  22.565  0.00  0.00    +0.000 C 
ATOM     12  O   UNL     1      -1.122  11.547  23.429  0.00  0.00    +0.000 OA
ATOM     13  N   UNL     1      -1.802  11.738  21.175  0.00  0.00    +0.000 N 
ATOM     14  H   UNL     1      -2.527  12.164  20.617  0.00  0.00    +0.000 HD
BRANCH  13  15
ATOM     15  C   UNL     1      -0.827  11.000  20.433  0.00  0.00    +0.000 A 
ATOM     16  C   UNL     1       0.082  10.138  21.046  0.00  0.00    +0.000 A 
ATOM     17  C   UNL     1       1.037   9.405  20.299  0.00  0.00    +0.000 A 
ATOM     18  C   UNL     1       1.087   9.525  18.903  0.00  0.00    +0.000 A 
ATOM     19  C   UNL     1       2.033   8.701  18.075  0.00  0.00    +0.000 C 
ATOM     20  C   UNL     1       0.200  10.399  18.283  0.00  0.00    +0.000 A 
ATOM     21  C   UNL     1      -0.752  11.151  19.027  0.00  0.00    +0.000 A 
ATOM     22  C   UNL     1      -1.618  12.088  18.230  0.00  0.00    +0.000 C 
ENDBRANCH  13  15
ENDBRANCH  10  11
BRANCH   1  23
ATOM     23  S   UNL     1      -1.379  15.111  23.205  0.00  0.00    +0.000 S 
ATOM     24  O   UNL     1      -0.809  14.317  24.275  0.00  0.00    +0.000 OA
ATOM     25  O   UNL     1      -1.625  16.514  23.434  0.00  0.00    +0.000 OA
BRANCH  23  29
ATOM     26  C   UNL     1       1.055  14.316  19.435  0.00  0.00    +0.000 A 
ATOM     27  C   UNL     1       1.485  13.823  20.679  0.00  0.00    +0.000 A 
ATOM     28  C   UNL     1       0.787  14.123  21.847  0.00  0.00    +0.000 A 
ATOM     29  C   UNL     1      -0.302  14.983  21.792  0.00  0.00    +0.000 A 
ATOM     30  C   UNL     1      -0.673  15.565  20.574  0.00  0.00    +0.000 A 
ATOM     31  C   UNL     1       0.008  15.248  19.384  0.00  0.00    +0.000 A 
BRANCH  26  33
ATOM     32  C   UNL     1       3.069  14.089  18.243  0.00  0.00    +0.000 C 
ATOM     33  O   UNL     1       1.652  13.867  18.290  0.00  0.00    +0.000 OA
ENDBRANCH  26  33
BRANCH  31  34
ATOM     34  O   UNL     1      -0.537  15.883  18.302  0.00  0.00    +0.000 OA
ATOM     35  C   UNL     1      -0.260  17.254  18.066  0.00  0.00    +0.000 C 
ENDBRANCH  31  34
ENDBRANCH  23  29
ENDBRANCH   1  23
TORSDOF 6
ENDMDL
MODEL 3
REMARK VINA RESULT:      -7.3      3.093      6.404
REMARK  Name = 
REMARK  10 active torsions:
REMARK  status: ('A' for Active; 'I' for Inactive)
REMARK    1  A    between atoms: C_1  and  O_2
REMARK    2  A    between atoms: O_2  and  C_3
REMARK    3  A    between atoms: C_6  and  S_7
REMARK    4  A    between atoms: S_7  and  N_10
REMARK    5  A    between atoms: C_19  and  C_20
REMARK    6  A    between atoms: N_22  and  C_23
REMARK    7  A    between atoms: C_26  and  C_27
REMARK    8  A    between atoms: C_29  and  C_30
REMARK    9  A    between atoms: C_32  and  O_33
REMARK   10  A    between atoms: O_33  and  C_34
REMARK                            x       y       z     vdW  Elec       q    Type
REMARK                         _______ _______ _______ _____ _____    ______ ____
ROOT
ATOM      1  N   UNL     1      -1.034  14.145  21.773  0.00  0.00    +0.000 NA
ATOM      2  C   UNL     1      -1.684  14.804  22.927  0.00  0.00    +0.000 C 
ATOM      3  C   UNL     1      -3.012  14.175  23.211  0.00  0.00    +0.000 A 
ATOM      4  C   UNL     1      -4.225  14.791  22.934  0.00  0.00    +0.000 A 
ATOM      5  C   UNL     1      -5.402  14.135  23.270  0.00  0.00    +0.000 A 
ATOM      6  C   UNL     1      -5.347  12.917  23.957  0.00  0.00    +0.000 A 
ATOM      7  C   UNL     1      -4.135  12.230  24.082  0.00  0.00    +0.000 A 
ATOM      8  C   UNL     1      -2.994  12.808  23.538  0.00  0.00    +0.000 A 
ATOM      9  C   UNL     1      -1.839  12.020  22.882  0.00  0.00    +0.000 C 
ATOM     10  C   UNL     1      -1.578  12.760  21.511  0.00  0.00    +0.000 C 
ENDROOT
BRANCH  10  11
ATOM     11  C   UNL     1      -0.954  12.021  20.303  0.00  0.00    +0.000 C 
ATOM     12  O   UNL     1      -1.217  12.336  19.151  0.00  0.00    +0.000 OA
ATOM     13  N   UNL     1      -0.047  11.022  20.728  0.00  0.00    +0.000 N 
ATOM     14  H   UNL     1       0.069  10.928  21.726  0.00  0.00    +0.000 HD
BRANCH  13  15
ATOM     15  C   UNL     1       0.699  10.087  19.945  0.00  0.00    +0.000 A 
ATOM     16  C   UNL     1       1.063  10.341  18.623  0.00  0.00    +0.000 A 
ATOM     17  C   UNL     1       1.810   9.411  17.860  0.00  0.00    +0.000 A 
ATOM     18  C   UNL     1       2.216   8.195  18.427  0.00  0.00    +0.000 A 
ATOM     19  C   UNL     1       3.078   7.222  17.673  0.00  0.00    +0.000 C 
ATOM     20  C   UNL     1       1.840   7.919  19.738  0.00  0.00    +0.000 A 
ATOM     21  C   UNL     1       1.075   8.842  20.506  0.00  0.00    +0.000 A 
ATOM     22  C   UNL     1       0.706   8.395  21.894  0.00  0.00    +0.000 C 
ENDBRANCH  13  15
ENDBRANCH  10  11
BRANCH   1  23
ATOM     23  S   UNL     1       0.607  14.513  21.624  0.00  0.00    +0.000 S 
ATOM     24  O   UNL     1       1.305  13.266  21.385  0.00  0.00    +0.000 OA
ATOM     25  O   UNL     1       0.998  15.325  22.750  0.00  0.00    +0.000 OA
BRANCH  23  29
ATOM     26  C   UNL     1       1.007  17.549  18.249  0.00  0.00    +0.000 A 
ATOM     27  C   UNL     1      -0.257  17.057  18.620  0.00  0.00    +0.000 A 
ATOM     28  C   UNL     1      -0.382  16.076  19.600  0.00  0.00    +0.000 A 
ATOM     29  C   UNL     1       0.761  15.520  20.162  0.00  0.00    +0.000 A 
ATOM     30  C   UNL     1       2.026  15.926  19.722  0.00  0.00    +0.000 A 
ATOM     31  C   UNL     1       2.164  16.937  18.753  0.00  0.00    +0.000 A 
BRANCH  26  33
ATOM     32  C   UNL     1       1.235  18.290  16.030  0.00  0.00    +0.000 C 
ATOM     33  O   UNL     1       1.090  18.630  17.415  0.00  0.00    +0.000 OA
ENDBRANCH  26  33
BRANCH  31  34
ATOM     34  O   UNL     1       3.477  17.219  18.496  0.00  0.00    +0.000 OA
ATOM     35  C   UNL     1       4.389  16.172  18.209  0.00  0.00    +0.000 C 
ENDBRANCH  31  34
ENDBRANCH  23  29
ENDBRANCH   1  23
TORSDOF 6
ENDMDL
MODEL 4
REMARK VINA RESULT:      -7.3      2.057      2.826
REMARK  Name = 
REMARK  10 active torsions:
REMARK  status: ('A' for Active; 'I' for Inactive)
REMARK    1  A    between atoms: C_1  and  O_2
REMARK    2  A    between atoms: O_2  and  C_3
REMARK    3  A    between atoms: C_6  and  S_7
REMARK    4  A    between atoms: S_7  and  N_10
REMARK    5  A    between atoms: C_19  and  C_20
REMARK    6  A    between atoms: N_22  and  C_23
REMARK    7  A    between atoms: C_26  and  C_27
REMARK    8  A    between atoms: C_29  and  C_30
REMARK    9  A    between atoms: C_32  and  O_33
REMARK   10  A    between atoms: O_33  and  C_34
REMARK                            x       y       z     vdW  Elec       q    Type
REMARK                         _______ _______ _______ _____ _____    ______ ____
ROOT
ATOM      1  N   UNL     1      -0.367  11.698  19.086  0.00  0.00    +0.000 NA
ATOM      2  C   UNL     1      -0.515  12.992  18.386  0.00  0.00    +0.000 C 
ATOM      3  C   UNL     1       0.664  13.874  18.655  0.00  0.00    +0.000 A 
ATOM      4  C   UNL     1       0.612  14.990  19.479  0.00  0.00    +0.000 A 
ATOM      5  C   UNL     1       1.756  15.762  19.634  0.00  0.00    +0.000 A 
ATOM      6  C   UNL     1       2.905  15.459  18.896  0.00  0.00    +0.000 A 
ATOM      7  C   UNL     1       3.001  14.248  18.203  0.00  0.00    +0.000 A 
ATOM      8  C   UNL     1       1.914  13.381  18.244  0.00  0.00    +0.000 A 
ATOM      9  C   UNL     1       2.021  11.841  18.268  0.00  0.00    +0.000 C 
ATOM     10  C   UNL     1       1.069  11.392  19.446  0.00  0.00    +0.000 C 
ENDROOT
BRANCH  10  11
ATOM     11  C   UNL     1       1.293  10.059  20.200  0.00  0.00    +0.000 C 
ATOM     12  O   UNL     1       1.172   9.980  21.414  0.00  0.00    +0.000 OA
ATOM     13  N   UNL     1       1.589   9.007  19.302  0.00  0.00    +0.000 N 
ATOM     14  H   UNL     1       1.613   9.256  18.324  0.00  0.00    +0.000 HD
BRANCH  13  15
ATOM     15  C   UNL     1       1.909   7.642  19.583  0.00  0.00    +0.000 A 
ATOM     16  C   UNL     1       1.390   6.965  20.686  0.00  0.00    +0.000 A 
ATOM     17  C   UNL     1       1.707   5.610  20.949  0.00  0.00    +0.000 A 
ATOM     18  C   UNL     1       2.558   4.902  20.088  0.00  0.00    +0.000 A 
ATOM     19  C   UNL     1       2.849   3.442  20.293  0.00  0.00    +0.000 C 
ATOM     20  C   UNL     1       3.100   5.573  18.997  0.00  0.00    +0.000 A 
ATOM     21  C   UNL     1       2.799   6.940  18.734  0.00  0.00    +0.000 A 
ATOM     22  C   UNL     1       3.489   7.548  17.544  0.00  0.00    +0.000 C 
ENDBRANCH  13  15
ENDBRANCH  10  11
BRANCH   1  23
ATOM     23  S   UNL     1      -1.433  10.510  18.539  0.00  0.00    +0.000 S 
ATOM     24  O   UNL     1      -1.687   9.616  19.652  0.00  0.00    +0.000 OA
ATOM     25  O   UNL     1      -0.915   9.961  17.310  0.00  0.00    +0.000 OA
BRANCH  23  29
ATOM     26  C   UNL     1      -5.594  12.141  17.648  0.00  0.00    +0.000 A 
ATOM     27  C   UNL     1      -4.771  11.679  16.607  0.00  0.00    +0.000 A 
ATOM     28  C   UNL     1      -3.472  11.247  16.861  0.00  0.00    +0.000 A 
ATOM     29  C   UNL     1      -2.955  11.347  18.147  0.00  0.00    +0.000 A 
ATOM     30  C   UNL     1      -3.730  11.907  19.169  0.00  0.00    +0.000 A 
ATOM     31  C   UNL     1      -5.053  12.321  18.930  0.00  0.00    +0.000 A 
BRANCH  26  33
ATOM     32  C   UNL     1      -7.173  13.703  16.877  0.00  0.00    +0.000 C 
ATOM     33  O   UNL     1      -6.915  12.393  17.401  0.00  0.00    +0.000 OA
ENDBRANCH  26  33
BRANCH  31  34
ATOM     34  O   UNL     1      -5.651  12.794  20.065  0.00  0.00    +0.000 OA
ATOM     35  C   UNL     1      -5.574  14.172  20.391  0.00  0.00    +0.000 C 
ENDBRANCH  31  34
ENDBRANCH  23  29
ENDBRANCH   1  23
TORSDOF 6
ENDMDL
MODEL 5
REMARK VINA RESULT:      -7.1      2.582      5.975
REMARK  Name = 
REMARK  10 active torsions:
REMARK  status: ('A' for Active; 'I' for Inactive)
REMARK    1  A    between atoms: C_1  and  O_2
REMARK    2  A    between atoms: O_2  and  C_3
REMARK    3  A    between atoms: C_6  and  S_7
REMARK    4  A    between atoms: S_7  and  N_10
REMARK    5  A    between atoms: C_19  and  C_20
REMARK    6  A    between atoms: N_22  and  C_23
REMARK    7  A    between atoms: C_26  and  C_27
REMARK    8  A    between atoms: C_29  and  C_30
REMARK    9  A    between atoms: C_32  and  O_33
REMARK   10  A    between atoms: O_33  and  C_34
REMARK                            x       y       z     vdW  Elec       q    Type
REMARK                         _______ _______ _______ _____ _____    ______ ____
ROOT
ATOM      1  N   UNL     1      -1.672  13.560  20.078  0.00  0.00    +0.000 NA
ATOM      2  C   UNL     1      -2.235  14.548  21.023  0.00  0.00    +0.000 C 
ATOM      3  C   UNL     1      -3.154  13.880  21.997  0.00  0.00    +0.000 A 
ATOM      4  C   UNL     1      -4.535  14.013  21.960  0.00  0.00    +0.000 A 
ATOM      5  C   UNL     1      -5.296  13.379  22.933  0.00  0.00    +0.000 A 
ATOM      6  C   UNL     1      -4.661  12.696  23.977  0.00  0.00    +0.000 A 
ATOM      7  C   UNL     1      -3.290  12.427  23.915  0.00  0.00    +0.000 A 
ATOM      8  C   UNL     1      -2.581  12.887  22.810  0.00  0.00    +0.000 A 
ATOM      9  C   UNL     1      -1.401  12.138  22.152  0.00  0.00    +0.000 C 
ATOM     10  C   UNL     1      -1.736  12.146  20.607  0.00  0.00    +0.000 C 
ENDROOT
BRANCH  10  11
ATOM     11  C   UNL     1      -1.180  11.058  19.658  0.00  0.00    +0.000 C 
ATOM     12  O   UNL     1      -1.803  10.684  18.674  0.00  0.00    +0.000 OA
ATOM     13  N   UNL     1       0.108  10.634  20.063  0.00  0.00    +0.000 N 
ATOM     14  H   UNL     1       0.480  11.082  20.887  0.00  0.00    +0.000 HD
BRANCH  13  15
ATOM     15  C   UNL     1       0.945   9.622  19.499  0.00  0.00    +0.000 A 
ATOM     16  C   UNL     1       1.399   9.676  18.181  0.00  0.00    +0.000 A 
ATOM     17  C   UNL     1       2.236   8.672  17.636  0.00  0.00    +0.000 A 
ATOM     18  C   UNL     1       2.642   7.585  18.424  0.00  0.00    +0.000 A 
ATOM     19  C   UNL     1       3.595   6.546  17.902  0.00  0.00    +0.000 C 
ATOM     20  C   UNL     1       2.177   7.508  19.733  0.00  0.00    +0.000 A 
ATOM     21  C   UNL     1       1.323   8.505  20.283  0.00  0.00    +0.000 A 
ATOM     22  C   UNL     1       0.865   8.270  21.697  0.00  0.00    +0.000 C 
ENDBRANCH  13  15
ENDBRANCH  10  11
BRANCH   1  23
ATOM     23  S   UNL     1      -0.346  14.138  19.209  0.00  0.00    +0.000 S 
ATOM     24  O   UNL     1      -0.651  15.500  18.817  0.00  0.00    +0.000 OA
ATOM     25  O   UNL     1      -0.014  13.177  18.186  0.00  0.00    +0.000 OA
BRANCH  23  29
ATOM     26  C   UNL     1       3.342  14.718  21.823  0.00  0.00    +0.000 A 
ATOM     27  C   UNL     1       3.349  13.777  20.780  0.00  0.00    +0.000 A 
ATOM     28  C   UNL     1       2.203  13.541  20.023  0.00  0.00    +0.000 A 
ATOM     29  C   UNL     1       1.018  14.187  20.354  0.00  0.00    +0.000 A 
ATOM     30  C   UNL     1       0.975  15.045  21.459  0.00  0.00    +0.000 A 
ATOM     31  C   UNL     1       2.132  15.312  22.213  0.00  0.00    +0.000 A 
BRANCH  26  33
ATOM     32  C   UNL     1       5.381  13.941  22.697  0.00  0.00    +0.000 C 
ATOM     33  O   UNL     1       4.519  15.056  22.433  0.00  0.00    +0.000 OA
ENDBRANCH  26  33
BRANCH  31  34
ATOM     34  O   UNL     1       1.889  16.208  23.217  0.00  0.00    +0.000 OA
ATOM     35  C   UNL     1       1.556  17.551  22.909  0.00  0.00    +0.000 C 
ENDBRANCH  31  34
ENDBRANCH  23  29
ENDBRANCH   1  23
TORSDOF 6
ENDMDL
MODEL 6
REMARK VINA RESULT:      -7.1      2.835      5.969
REMARK  Name = 
REMARK  10 active torsions:
REMARK  status: ('A' for Active; 'I' for Inactive)
REMARK    1  A    between atoms: C_1  and  O_2
REMARK    2  A    between atoms: O_2  and  C_3
REMARK    3  A    between atoms: C_6  and  S_7
REMARK    4  A    between atoms: S_7  and  N_10
REMARK    5  A    between atoms: C_19  and  C_20
REMARK    6  A    between atoms: N_22  and  C_23
REMARK    7  A    between atoms: C_26  and  C_27
REMARK    8  A    between atoms: C_29  and  C_30
REMARK    9  A    between atoms: C_32  and  O_33
REMARK   10  A    between atoms: O_33  and  C_34
REMARK                            x       y       z     vdW  Elec       q    Type
REMARK                         _______ _______ _______ _____ _____    ______ ____
ROOT
ATOM      1  N   UNL     1      -0.343  12.921  20.608  0.00  0.00    +0.000 NA
ATOM      2  C   UNL     1      -0.804  14.011  21.493  0.00  0.00    +0.000 C 
ATOM      3  C   UNL     1      -2.121  13.664  22.112  0.00  0.00    +0.000 A 
ATOM      4  C   UNL     1      -3.320  14.258  21.743  0.00  0.00    +0.000 A 
ATOM      5  C   UNL     1      -4.484  13.888  22.406  0.00  0.00    +0.000 A 
ATOM      6  C   UNL     1      -4.417  13.000  23.484  0.00  0.00    +0.000 A 
ATOM      7  C   UNL     1      -3.242  12.284  23.740  0.00  0.00    +0.000 A 
ATOM      8  C   UNL     1      -2.145  12.511  22.916  0.00  0.00    +0.000 A 
ATOM      9  C   UNL     1      -1.129  11.428  22.491  0.00  0.00    +0.000 C 
ATOM     10  C   UNL     1      -0.997  11.596  20.926  0.00  0.00    +0.000 C 
ENDROOT
BRANCH  10  11
ATOM     11  C   UNL     1      -0.572  10.414  20.022  0.00  0.00    +0.000 C 
ATOM     12  O   UNL     1      -1.190  10.127  19.007  0.00  0.00    +0.000 OA
ATOM     13  N   UNL     1       0.604   9.796  20.508  0.00  0.00    +0.000 N 
ATOM     14  H   UNL     1       0.997  10.194  21.347  0.00  0.00    +0.000 HD
BRANCH  13  15
ATOM     15  C   UNL     1       1.297   8.650  20.004  0.00  0.00    +0.000 A 
ATOM     16  C   UNL     1       1.399   7.462  20.727  0.00  0.00    +0.000 A 
ATOM     17  C   UNL     1       2.080   6.331  20.214  0.00  0.00    +0.000 A 
ATOM     18  C   UNL     1       2.670   6.377  18.943  0.00  0.00    +0.000 A 
ATOM     19  C   UNL     1       3.329   5.169  18.336  0.00  0.00    +0.000 C 
ATOM     20  C   UNL     1       2.595   7.564  18.222  0.00  0.00    +0.000 A 
ATOM     21  C   UNL     1       1.926   8.710  18.737  0.00  0.00    +0.000 A 
ATOM     22  C   UNL     1       1.959   9.937  17.867  0.00  0.00    +0.000 C 
ENDBRANCH  13  15
ENDBRANCH  10  11
BRANCH   1  23
ATOM     23  S   UNL     1       1.286  13.043  20.181  0.00  0.00    +0.000 S 
ATOM     24  O   UNL     1       1.386  12.708  18.774  0.00  0.00    +0.000 OA
ATOM     25  O   UNL     1       2.067  12.291  21.133  0.00  0.00    +0.000 OA
BRANCH  23  29
ATOM     26  C   UNL     1       2.941  17.278  20.478  0.00  0.00    +0.000 A 
ATOM     27  C   UNL     1       2.914  16.443  21.608  0.00  0.00    +0.000 A 
ATOM     28  C   UNL     1       2.344  15.173  21.544  0.00  0.00    +0.000 A 
ATOM     29  C   UNL     1       1.724  14.759  20.371  0.00  0.00    +0.000 A 
ATOM     30  C   UNL     1       1.651  15.626  19.275  0.00  0.00    +0.000 A 
ATOM     31  C   UNL     1       2.247  16.899  19.319  0.00  0.00    +0.000 A 
BRANCH  26  33
ATOM     32  C   UNL     1       5.058  18.259  20.765  0.00  0.00    +0.000 C 
ATOM     33  O   UNL     1       3.657  18.443  20.519  0.00  0.00    +0.000 OA
ENDBRANCH  26  33
BRANCH  31  34
ATOM     34  O   UNL     1       2.104  17.569  18.135  0.00  0.00    +0.000 OA
ATOM     35  C   UNL     1       0.893  18.245  17.840  0.00  0.00    +0.000 C 
ENDBRANCH  31  34
ENDBRANCH  23  29
ENDBRANCH   1  23
TORSDOF 6
ENDMDL
MODEL 7
REMARK VINA RESULT:      -6.9      2.947      6.301
REMARK  Name = 
REMARK  10 active torsions:
REMARK  status: ('A' for Active; 'I' for Inactive)
REMARK    1  A    between atoms: C_1  and  O_2
REMARK    2  A    between atoms: O_2  and  C_3
REMARK    3  A    between atoms: C_6  and  S_7
REMARK    4  A    between atoms: S_7  and  N_10
REMARK    5  A    between atoms: C_19  and  C_20
REMARK    6  A    between atoms: N_22  and  C_23
REMARK    7  A    between atoms: C_26  and  C_27
REMARK    8  A    between atoms: C_29  and  C_30
REMARK    9  A    between atoms: C_32  and  O_33
REMARK   10  A    between atoms: O_33  and  C_34
REMARK                            x       y       z     vdW  Elec       q    Type
REMARK                         _______ _______ _______ _____ _____    ______ ____
ROOT
ATOM      1  N   UNL     1       0.056  13.424  20.212  0.00  0.00    +0.000 NA
ATOM      2  C   UNL     1      -0.405  14.515  21.097  0.00  0.00    +0.000 C 
ATOM      3  C   UNL     1      -1.860  14.359  21.410  0.00  0.00    +0.000 A 
ATOM      4  C   UNL     1      -2.848  15.176  20.877  0.00  0.00    +0.000 A 
ATOM      5  C   UNL     1      -4.167  14.969  21.260  0.00  0.00    +0.000 A 
ATOM      6  C   UNL     1      -4.466  14.010  22.234  0.00  0.00    +0.000 A 
ATOM      7  C   UNL     1      -3.496  13.087  22.639  0.00  0.00    +0.000 A 
ATOM      8  C   UNL     1      -2.229  13.176  22.071  0.00  0.00    +0.000 A 
ATOM      9  C   UNL     1      -1.328  11.965  21.744  0.00  0.00    +0.000 C 
ATOM     10  C   UNL     1      -0.848  12.214  20.260  0.00  0.00    +0.000 C 
ENDROOT
BRANCH  10  11
ATOM     11  C   UNL     1      -0.433  11.041  19.340  0.00  0.00    +0.000 C 
ATOM     12  O   UNL     1      -1.046  10.780  18.315  0.00  0.00    +0.000 OA
ATOM     13  N   UNL     1       0.730  10.397  19.825  0.00  0.00    +0.000 N 
ATOM     14  H   UNL     1       1.120  10.775  20.675  0.00  0.00    +0.000 HD
BRANCH  13  15
ATOM     15  C   UNL     1       1.409   9.250  19.309  0.00  0.00    +0.000 A 
ATOM     16  C   UNL     1       1.913   9.202  18.010  0.00  0.00    +0.000 A 
ATOM     17  C   UNL     1       2.593   8.063  17.513  0.00  0.00    +0.000 A 
ATOM     18  C   UNL     1       2.786   6.941  18.331  0.00  0.00    +0.000 A 
ATOM     19  C   UNL     1       3.573   5.749  17.862  0.00  0.00    +0.000 C 
ATOM     20  C   UNL     1       2.268   6.968  19.622  0.00  0.00    +0.000 A 
ATOM     21  C   UNL     1       1.570   8.102  20.123  0.00  0.00    +0.000 A 
ATOM     22  C   UNL     1       1.028   7.976  21.521  0.00  0.00    +0.000 C 
ENDBRANCH  13  15
ENDBRANCH  10  11
BRANCH   1  23
ATOM     23  S   UNL     1       1.737  13.292  20.124  0.00  0.00    +0.000 S 
ATOM     24  O   UNL     1       2.055  12.735  18.824  0.00  0.00    +0.000 OA
ATOM     25  O   UNL     1       2.205  12.612  21.306  0.00  0.00    +0.000 OA
BRANCH  23  29
ATOM     26  C   UNL     1       3.867  17.321  20.077  0.00  0.00    +0.000 A 
ATOM     27  C   UNL     1       3.789  16.569  21.261  0.00  0.00    +0.000 A 
ATOM     28  C   UNL     1       3.078  15.372  21.303  0.00  0.00    +0.000 A 
ATOM     29  C   UNL     1       2.372  14.956  20.181  0.00  0.00    +0.000 A 
ATOM     30  C   UNL     1       2.354  15.752  19.031  0.00  0.00    +0.000 A 
ATOM     31  C   UNL     1       3.091  16.949  18.968  0.00  0.00    +0.000 A 
BRANCH  26  33
ATOM     32  C   UNL     1       5.851  18.294  20.878  0.00  0.00    +0.000 C 
ATOM     33  O   UNL     1       4.710  18.395  20.015  0.00  0.00    +0.000 OA
ENDBRANCH  26  33
BRANCH  31  34
ATOM     34  O   UNL     1       2.979  17.552  17.746  0.00  0.00    +0.000 OA
ATOM     35  C   UNL     1       1.705  17.721  17.148  0.00  0.00    +0.000 C 
ENDBRANCH  31  34
ENDBRANCH  23  29
ENDBRANCH   1  23
TORSDOF 6
ENDMDL
MODEL 8
REMARK VINA RESULT:      -6.8      0.465      1.209
REMARK  Name = 
REMARK  10 active torsions:
REMARK  status: ('A' for Active; 'I' for Inactive)
REMARK    1  A    between atoms: C_1  and  O_2
REMARK    2  A    between atoms: O_2  and  C_3
REMARK    3  A    between atoms: C_6  and  S_7
REMARK    4  A    between atoms: S_7  and  N_10
REMARK    5  A    between atoms: C_19  and  C_20
REMARK    6  A    between atoms: N_22  and  C_23
REMARK    7  A    between atoms: C_26  and  C_27
REMARK    8  A    between atoms: C_29  and  C_30
REMARK    9  A    between atoms: C_32  and  O_33
REMARK   10  A    between atoms: O_33  and  C_34
REMARK                            x       y       z     vdW  Elec       q    Type
REMARK                         _______ _______ _______ _____ _____    ______ ____
ROOT
ATOM      1  N   UNL     1       0.917  11.685  20.762  0.00  0.00    +0.000 NA
ATOM      2  C   UNL     1       1.092  13.073  21.240  0.00  0.00    +0.000 C 
ATOM      3  C   UNL     1       2.007  13.831  20.331  0.00  0.00    +0.000 A 
ATOM      4  C   UNL     1       3.306  14.181  20.671  0.00  0.00    +0.000 A 
ATOM      5  C   UNL     1       4.061  14.917  19.767  0.00  0.00    +0.000 A 
ATOM      6  C   UNL     1       3.477  15.367  18.578  0.00  0.00    +0.000 A 
ATOM      7  C   UNL     1       2.233  14.874  18.170  0.00  0.00    +0.000 A 
ATOM      8  C   UNL     1       1.589  13.958  18.995  0.00  0.00    +0.000 A 
ATOM      9  C   UNL     1       0.725  12.781  18.492  0.00  0.00    +0.000 C 
ATOM     10  C   UNL     1       1.251  11.527  19.296  0.00  0.00    +0.000 C 
ENDROOT
BRANCH  10  11
ATOM     11  C   UNL     1       1.108  10.092  18.735  0.00  0.00    +0.000 C 
ATOM     12  O   UNL     1       0.276   9.815  17.884  0.00  0.00    +0.000 OA
ATOM     13  N   UNL     1       2.073   9.224  19.299  0.00  0.00    +0.000 N 
ATOM     14  H   UNL     1       2.705   9.641  19.966  0.00  0.00    +0.000 HD
BRANCH  13  15
ATOM     15  C   UNL     1       2.255   7.821  19.094  0.00  0.00    +0.000 A 
ATOM     16  C   UNL     1       2.780   7.300  17.911  0.00  0.00    +0.000 A 
ATOM     17  C   UNL     1       2.964   5.908  17.724  0.00  0.00    +0.000 A 
ATOM     18  C   UNL     1       2.625   5.006  18.742  0.00  0.00    +0.000 A 
ATOM     19  C   UNL     1       2.883   3.532  18.607  0.00  0.00    +0.000 C 
ATOM     20  C   UNL     1       2.079   5.512  19.917  0.00  0.00    +0.000 A 
ATOM     21  C   UNL     1       1.876   6.908  20.108  0.00  0.00    +0.000 A 
ATOM     22  C   UNL     1       1.238   7.308  21.410  0.00  0.00    +0.000 C 
ENDBRANCH  13  15
ENDBRANCH  10  11
BRANCH   1  23
ATOM     23  S   UNL     1      -0.381  10.882  21.482  0.00  0.00    +0.000 S 
ATOM     24  O   UNL     1      -0.089  10.780  22.899  0.00  0.00    +0.000 OA
ATOM     25  O   UNL     1      -0.643   9.675  20.738  0.00  0.00    +0.000 OA
BRANCH  23  29
ATOM     26  C   UNL     1      -4.326  13.116  21.024  0.00  0.00    +0.000 A 
ATOM     27  C   UNL     1      -3.591  12.729  19.891  0.00  0.00    +0.000 A 
ATOM     28  C   UNL     1      -2.350  12.110  20.023  0.00  0.00    +0.000 A 
ATOM     29  C   UNL     1      -1.796  11.946  21.287  0.00  0.00    +0.000 A 
ATOM     30  C   UNL     1      -2.473  12.427  22.414  0.00  0.00    +0.000 A 
ATOM     31  C   UNL     1      -3.739  13.028  22.295  0.00  0.00    +0.000 A 
BRANCH  26  33
ATOM     32  C   UNL     1      -6.607  12.551  21.091  0.00  0.00    +0.000 C 
ATOM     33  O   UNL     1      -5.611  13.560  20.874  0.00  0.00    +0.000 OA
ENDBRANCH  26  33
BRANCH  31  34
ATOM     34  O   UNL     1      -4.248  13.385  23.513  0.00  0.00    +0.000 OA
ATOM     35  C   UNL     1      -4.192  12.480  24.603  0.00  0.00    +0.000 C 
ENDBRANCH  31  34
ENDBRANCH  23  29
ENDBRANCH   1  23
TORSDOF 6
ENDMDL
MODEL 9
REMARK VINA RESULT:      -6.8      3.889      6.907
REMARK  Name = 
REMARK  10 active torsions:
REMARK  status: ('A' for Active; 'I' for Inactive)
REMARK    1  A    between atoms: C_1  and  O_2
REMARK    2  A    between atoms: O_2  and  C_3
REMARK    3  A    between atoms: C_6  and  S_7
REMARK    4  A    between atoms: S_7  and  N_10
REMARK    5  A    between atoms: C_19  and  C_20
REMARK    6  A    between atoms: N_22  and  C_23
REMARK    7  A    between atoms: C_26  and  C_27
REMARK    8  A    between atoms: C_29  and  C_30
REMARK    9  A    between atoms: C_32  and  O_33
REMARK   10  A    between atoms: O_33  and  C_34
REMARK                            x       y       z     vdW  Elec       q    Type
REMARK                         _______ _______ _______ _____ _____    ______ ____
ROOT
ATOM      1  N   UNL     1      -6.122  13.769  19.856  0.00  0.00    +0.000 NA
ATOM      2  C   UNL     1      -7.073  14.896  19.748  0.00  0.00    +0.000 C 
ATOM      3  C   UNL     1      -7.139  15.395  18.338  0.00  0.00    +0.000 A 
ATOM      4  C   UNL     1      -6.585  16.600  17.927  0.00  0.00    +0.000 A 
ATOM      5  C   UNL     1      -6.733  16.987  16.601  0.00  0.00    +0.000 A 
ATOM      6  C   UNL     1      -7.506  16.210  15.732  0.00  0.00    +0.000 A 
ATOM      7  C   UNL     1      -7.917  14.926  16.106  0.00  0.00    +0.000 A 
ATOM      8  C   UNL     1      -7.564  14.468  17.371  0.00  0.00    +0.000 A 
ATOM      9  C   UNL     1      -7.208  13.003  17.705  0.00  0.00    +0.000 C 
ATOM     10  C   UNL     1      -5.862  13.096  18.528  0.00  0.00    +0.000 C 
ENDROOT
BRANCH  10  11
ATOM     11  C   UNL     1      -4.859  11.919  18.567  0.00  0.00    +0.000 C 
ATOM     12  O   UNL     1      -5.223  10.760  18.430  0.00  0.00    +0.000 OA
ATOM     13  N   UNL     1      -3.531  12.383  18.725  0.00  0.00    +0.000 N 
ATOM     14  H   UNL     1      -3.419  13.384  18.788  0.00  0.00    +0.000 HD
BRANCH  13  15
ATOM     15  C   UNL     1      -2.322  11.632  18.858  0.00  0.00    +0.000 A 
ATOM     16  C   UNL     1      -1.581  11.612  20.040  0.00  0.00    +0.000 A 
ATOM     17  C   UNL     1      -0.389  10.857  20.163  0.00  0.00    +0.000 A 
ATOM     18  C   UNL     1       0.079  10.093  19.084  0.00  0.00    +0.000 A 
ATOM     19  C   UNL     1       1.294   9.217  19.207  0.00  0.00    +0.000 C 
ATOM     20  C   UNL     1      -0.639  10.123  17.893  0.00  0.00    +0.000 A 
ATOM     21  C   UNL     1      -1.829  10.892  17.756  0.00  0.00    +0.000 A 
ATOM     22  C   UNL     1      -2.478  10.864  16.399  0.00  0.00    +0.000 C 
ENDBRANCH  13  15
ENDBRANCH  10  11
BRANCH   1  23
ATOM     23  S   UNL     1      -6.269  12.899  21.295  0.00  0.00    +0.000 S 
ATOM     24  O   UNL     1      -5.914  11.524  21.002  0.00  0.00    +0.000 OA
ATOM     25  O   UNL     1      -7.563  13.176  21.868  0.00  0.00    +0.000 OA
BRANCH  23  29
ATOM     26  C   UNL     1      -2.850  14.774  23.654  0.00  0.00    +0.000 A 
ATOM     27  C   UNL     1      -2.833  13.404  23.341  0.00  0.00    +0.000 A 
ATOM     28  C   UNL     1      -3.907  12.808  22.684  0.00  0.00    +0.000 A 
ATOM     29  C   UNL     1      -5.042  13.559  22.405  0.00  0.00    +0.000 A 
ATOM     30  C   UNL     1      -5.112  14.897  22.810  0.00  0.00    +0.000 A 
ATOM     31  C   UNL     1      -4.022  15.517  23.448  0.00  0.00    +0.000 A 
BRANCH  26  33
ATOM     32  C   UNL     1      -1.611  15.344  25.569  0.00  0.00    +0.000 C 
ATOM     33  O   UNL     1      -1.718  15.368  24.139  0.00  0.00    +0.000 OA
ENDBRANCH  26  33
BRANCH  31  34
ATOM     34  O   UNL     1      -4.273  16.834  23.718  0.00  0.00    +0.000 OA
ATOM     35  C   UNL     1      -4.814  17.215  24.973  0.00  0.00    +0.000 C 
ENDBRANCH  31  34
ENDBRANCH  23  29
ENDBRANCH   1  23
TORSDOF 6
ENDMDL
