MODEL 1
REMARK VINA RESULT:      -7.0      0.000      0.000
REMARK  Name = 
REMARK  1 active torsions:
REMARK  status: ('A' for Active; 'I' for Inactive)
REMARK    1  A    between atoms: C_2  and  C_3
REMARK                            x       y       z     vdW  Elec       q    Type
REMARK                         _______ _______ _______ _____ _____    ______ ____
ROOT
ATOM      1  O   UNL     1       2.235  10.019  17.714  0.00  0.00    +0.000 OA
ATOM      2  C   UNL     1       1.740   9.376  18.652  0.00  0.00    +0.000 C 
ATOM      3  N   UNL     1       1.976   8.003  18.826  0.00  0.00    +0.000 N 
ATOM      4  C   UNL     1       1.872   7.263  20.071  0.00  0.00    +0.000 C 
ATOM      5  C   UNL     1       2.811   6.048  20.043  0.00  0.00    +0.000 C 
ATOM      6  C   UNL     1       2.167   5.013  19.108  0.00  0.00    +0.000 C 
ATOM      7  C   UNL     1       1.679   5.765  17.814  0.00  0.00    +0.000 C 
ATOM      8  C   UNL     1       2.320   7.171  17.665  0.00  0.00    +0.000 C 
ATOM      9  O   UNL     1       0.984   4.481  19.795  0.00  0.00    +0.000 OA
ATOM     10  C   UNL     1       1.267   3.747  21.009  0.00  0.00    +0.000 C 
ATOM     11  C   UNL     1       2.135   2.502  20.793  0.00  0.00    +0.000 C 
ATOM     12  C   UNL     1       2.972   2.615  19.568  0.00  0.00    +0.000 A 
ATOM     13  C   UNL     1       3.685   1.539  18.953  0.00  0.00    +0.000 A 
ATOM     14  C   UNL     1       4.209   1.908  17.739  0.00  0.00    +0.000 A 
ATOM     15  S   UNL     1       4.004   3.578  17.432  0.00  0.00    +0.000 S 
ATOM     16  C   UNL     1       3.011   3.779  18.812  0.00  0.00    +0.000 A 
ENDROOT
BRANCH   2  17
ATOM     17  C   UNL     1       0.617  10.020  19.409  0.00  0.00    +0.000 A 
ATOM     18  C   UNL     1       0.884  10.235  20.778  0.00  0.00    +0.000 A 
ATOM     19  C   UNL     1       0.044  11.042  21.559  0.00  0.00    +0.000 A 
ATOM     20  C   UNL     1      -1.036  11.674  20.965  0.00  0.00    +0.000 A 
ATOM     21 CL   UNL     1      -1.991  12.780  21.874  0.00  0.00    +0.000 Cl
ATOM     22  C   UNL     1      -1.373  11.391  19.645  0.00  0.00    +0.000 A 
ATOM     23  C   UNL     1      -0.593  10.488  18.902  0.00  0.00    +0.000 A 
ATOM     24 CL   UNL     1      -1.352   9.841  17.488  0.00  0.00    +0.000 Cl
ENDBRANCH   2  17
TORSDOF 1
ENDMDL
MODEL 2
REMARK VINA RESULT:      -6.9      5.483     10.015
REMARK  Name = 
REMARK  1 active torsions:
REMARK  status: ('A' for Active; 'I' for Inactive)
REMARK    1  A    between atoms: C_2  and  C_3
REMARK                            x       y       z     vdW  Elec       q    Type
REMARK                         _______ _______ _______ _____ _____    ______ ____
ROOT
ATOM      1  O   UNL     1       1.654  12.955  21.475  0.00  0.00    +0.000 OA
ATOM      2  C   UNL     1       0.623  12.412  21.053  0.00  0.00    +0.000 C 
ATOM      3  N   UNL     1      -0.659  12.854  21.416  0.00  0.00    +0.000 N 
ATOM      4  C   UNL     1      -1.885  12.646  20.667  0.00  0.00    +0.000 C 
ATOM      5  C   UNL     1      -2.883  13.777  20.961  0.00  0.00    +0.000 C 
ATOM      6  C   UNL     1      -3.432  13.524  22.373  0.00  0.00    +0.000 C 
ATOM      7  C   UNL     1      -2.219  13.169  23.311  0.00  0.00    +0.000 C 
ATOM      8  C   UNL     1      -0.852  13.562  22.689  0.00  0.00    +0.000 C 
ATOM      9  O   UNL     1      -4.305  12.346  22.298  0.00  0.00    +0.000 OA
ATOM     10  C   UNL     1      -5.483  12.516  21.476  0.00  0.00    +0.000 C 
ATOM     11  C   UNL     1      -6.427  13.620  21.964  0.00  0.00    +0.000 C 
ATOM     12  C   UNL     1      -5.712  14.645  22.772  0.00  0.00    +0.000 A 
ATOM     13  C   UNL     1      -6.339  15.647  23.577  0.00  0.00    +0.000 A 
ATOM     14  C   UNL     1      -5.424  16.320  24.348  0.00  0.00    +0.000 A 
ATOM     15  S   UNL     1      -3.816  15.880  23.968  0.00  0.00    +0.000 S 
ATOM     16  C   UNL     1      -4.333  14.619  22.933  0.00  0.00    +0.000 A 
ENDROOT
BRANCH   2  17
ATOM     17  C   UNL     1       0.770  11.065  20.409  0.00  0.00    +0.000 A 
ATOM     18  C   UNL     1       1.053  11.107  19.027  0.00  0.00    +0.000 A 
ATOM     19  C   UNL     1       1.461   9.955  18.339  0.00  0.00    +0.000 A 
ATOM     20  C   UNL     1       1.631   8.771  19.036  0.00  0.00    +0.000 A 
ATOM     21 CL   UNL     1       2.267   7.386  18.237  0.00  0.00    +0.000 Cl
ATOM     22  C   UNL     1       1.258   8.687  20.374  0.00  0.00    +0.000 A 
ATOM     23  C   UNL     1       0.739   9.818  21.028  0.00  0.00    +0.000 A 
ATOM     24 CL   UNL     1      -0.133   9.497  22.487  0.00  0.00    +0.000 Cl
ENDBRANCH   2  17
TORSDOF 1
ENDMDL
MODEL 3
REMARK VINA RESULT:      -6.8      1.478      1.724
REMARK  Name = 
REMARK  1 active torsions:
REMARK  status: ('A' for Active; 'I' for Inactive)
REMARK    1  A    between atoms: C_2  and  C_3
REMARK                            x       y       z     vdW  Elec       q    Type
REMARK                         _______ _______ _______ _____ _____    ______ ____
ROOT
ATOM      1  O   UNL     1       1.781  11.535  18.298  0.00  0.00    +0.000 OA
ATOM      2  C   UNL     1       1.146  10.676  18.927  0.00  0.00    +0.000 C 
ATOM      3  N   UNL     1       1.614   9.360  19.077  0.00  0.00    +0.000 N 
ATOM      4  C   UNL     1       1.246   8.431  20.131  0.00  0.00    +0.000 C 
ATOM      5  C   UNL     1       2.386   7.430  20.374  0.00  0.00    +0.000 C 
ATOM      6  C   UNL     1       2.373   6.450  19.191  0.00  0.00    +0.000 C 
ATOM      7  C   UNL     1       2.219   7.288  17.867  0.00  0.00    +0.000 C 
ATOM      8  C   UNL     1       2.530   8.794  18.077  0.00  0.00    +0.000 C 
ATOM      9  O   UNL     1       1.178   5.608  19.335  0.00  0.00    +0.000 OA
ATOM     10  C   UNL     1       1.171   4.762  20.507  0.00  0.00    +0.000 C 
ATOM     11  C   UNL     1       2.320   3.748  20.548  0.00  0.00    +0.000 C 
ATOM     12  C   UNL     1       3.489   4.201  19.746  0.00  0.00    +0.000 A 
ATOM     13  C   UNL     1       4.601   3.384  19.373  0.00  0.00    +0.000 A 
ATOM     14  C   UNL     1       5.422   4.025  18.479  0.00  0.00    +0.000 A 
ATOM     15  S   UNL     1       4.962   5.656  18.241  0.00  0.00    +0.000 S 
ATOM     16  C   UNL     1       3.526   5.455  19.149  0.00  0.00    +0.000 A 
ENDROOT
BRANCH   2  17
ATOM     17  C   UNL     1      -0.288  10.976  19.243  0.00  0.00    +0.000 A 
ATOM     18  C   UNL     1      -0.499  11.534  20.522  0.00  0.00    +0.000 A 
ATOM     19  C   UNL     1      -1.736  12.095  20.870  0.00  0.00    +0.000 A 
ATOM     20  C   UNL     1      -2.751  12.141  19.928  0.00  0.00    +0.000 A 
ATOM     21 CL   UNL     1      -4.224  12.952  20.290  0.00  0.00    +0.000 Cl
ATOM     22  C   UNL     1      -2.596  11.504  18.701  0.00  0.00    +0.000 A 
ATOM     23  C   UNL     1      -1.392  10.841  18.404  0.00  0.00    +0.000 A 
ATOM     24 CL   UNL     1      -1.475   9.696  17.110  0.00  0.00    +0.000 Cl
ENDBRANCH   2  17
TORSDOF 1
ENDMDL
MODEL 4
REMARK VINA RESULT:      -6.5      3.984      8.155
REMARK  Name = 
REMARK  1 active torsions:
REMARK  status: ('A' for Active; 'I' for Inactive)
REMARK    1  A    between atoms: C_2  and  C_3
REMARK                            x       y       z     vdW  Elec       q    Type
REMARK                         _______ _______ _______ _____ _____    ______ ____
ROOT
ATOM      1  O   UNL     1       2.327   9.228  17.220  0.00  0.00    +0.000 OA
ATOM      2  C   UNL     1       1.808   8.914  18.301  0.00  0.00    +0.000 C 
ATOM      3  N   UNL     1       1.094   9.834  19.085  0.00  0.00    +0.000 N 
ATOM      4  C   UNL     1       0.076   9.518  20.071  0.00  0.00    +0.000 C 
ATOM      5  C   UNL     1      -0.911  10.687  20.204  0.00  0.00    +0.000 C 
ATOM      6  C   UNL     1      -0.181  11.796  20.977  0.00  0.00    +0.000 C 
ATOM      7  C   UNL     1       1.263  11.943  20.369  0.00  0.00    +0.000 C 
ATOM      8  C   UNL     1       1.393  11.269  18.976  0.00  0.00    +0.000 C 
ATOM      9  O   UNL     1      -0.042  11.341  22.367  0.00  0.00    +0.000 OA
ATOM     10  C   UNL     1      -1.291  11.167  23.075  0.00  0.00    +0.000 C 
ATOM     11  C   UNL     1      -2.114  12.454  23.208  0.00  0.00    +0.000 C 
ATOM     12  C   UNL     1      -1.792  13.433  22.135  0.00  0.00    +0.000 A 
ATOM     13  C   UNL     1      -2.187  14.807  22.125  0.00  0.00    +0.000 A 
ATOM     14  C   UNL     1      -1.584  15.498  21.103  0.00  0.00    +0.000 A 
ATOM     15  S   UNL     1      -0.705  14.465  20.060  0.00  0.00    +0.000 S 
ATOM     16  C   UNL     1      -0.929  13.119  21.092  0.00  0.00    +0.000 A 
ENDROOT
BRANCH   2  17
ATOM     17  C   UNL     1       2.236   7.616  18.918  0.00  0.00    +0.000 A 
ATOM     18  C   UNL     1       1.731   7.393  20.217  0.00  0.00    +0.000 A 
ATOM     19  C   UNL     1       1.834   6.133  20.824  0.00  0.00    +0.000 A 
ATOM     20  C   UNL     1       2.398   5.082  20.120  0.00  0.00    +0.000 A 
ATOM     21 CL   UNL     1       2.401   3.499  20.793  0.00  0.00    +0.000 Cl
ATOM     22  C   UNL     1       2.992   5.308  18.882  0.00  0.00    +0.000 A 
ATOM     23  C   UNL     1       2.989   6.601  18.330  0.00  0.00    +0.000 A 
ATOM     24 CL   UNL     1       4.146   6.875  17.074  0.00  0.00    +0.000 Cl
ENDBRANCH   2  17
TORSDOF 1
ENDMDL
MODEL 5
REMARK VINA RESULT:      -6.4      1.536      2.140
REMARK  Name = 
REMARK  1 active torsions:
REMARK  status: ('A' for Active; 'I' for Inactive)
REMARK    1  A    between atoms: C_2  and  C_3
REMARK                            x       y       z     vdW  Elec       q    Type
REMARK                         _______ _______ _______ _____ _____    ______ ____
ROOT
ATOM      1  O   UNL     1       2.544  10.469  17.666  0.00  0.00    +0.000 OA
ATOM      2  C   UNL     1       1.702   9.777  18.256  0.00  0.00    +0.000 C 
ATOM      3  N   UNL     1       1.968   8.460  18.664  0.00  0.00    +0.000 N 
ATOM      4  C   UNL     1       1.297   7.737  19.730  0.00  0.00    +0.000 C 
ATOM      5  C   UNL     1       2.239   6.679  20.325  0.00  0.00    +0.000 C 
ATOM      6  C   UNL     1       2.329   5.541  19.298  0.00  0.00    +0.000 C 
ATOM      7  C   UNL     1       2.531   6.183  17.875  0.00  0.00    +0.000 C 
ATOM      8  C   UNL     1       2.979   7.667  17.951  0.00  0.00    +0.000 C 
ATOM      9  O   UNL     1       1.034   4.847  19.301  0.00  0.00    +0.000 OA
ATOM     10  C   UNL     1       0.703   4.188  20.546  0.00  0.00    +0.000 C 
ATOM     11  C   UNL     1       1.691   3.088  20.948  0.00  0.00    +0.000 C 
ATOM     12  C   UNL     1       3.036   3.303  20.349  0.00  0.00    +0.000 A 
ATOM     13  C   UNL     1       4.090   2.337  20.317  0.00  0.00    +0.000 A 
ATOM     14  C   UNL     1       5.137   2.758  19.536  0.00  0.00    +0.000 A 
ATOM     15  S   UNL     1       4.934   4.371  19.004  0.00  0.00    +0.000 S 
ATOM     16  C   UNL     1       3.338   4.445  19.619  0.00  0.00    +0.000 A 
ENDROOT
BRANCH   2  17
ATOM     17  C   UNL     1       0.281  10.256  18.233  0.00  0.00    +0.000 A 
ATOM     18  C   UNL     1      -0.520   9.658  17.236  0.00  0.00    +0.000 A 
ATOM     19  C   UNL     1      -1.914   9.811  17.243  0.00  0.00    +0.000 A 
ATOM     20  C   UNL     1      -2.515  10.521  18.269  0.00  0.00    +0.000 A 
ATOM     21 CL   UNL     1      -4.231  10.597  18.372  0.00  0.00    +0.000 Cl
ATOM     22  C   UNL     1      -1.736  11.201  19.200  0.00  0.00    +0.000 A 
ATOM     23  C   UNL     1      -0.334  11.139  19.117  0.00  0.00    +0.000 A 
ATOM     24 CL   UNL     1       0.516  12.376  19.977  0.00  0.00    +0.000 Cl
ENDBRANCH   2  17
TORSDOF 1
ENDMDL
MODEL 6
REMARK VINA RESULT:      -6.4      1.226      1.284
REMARK  Name = 
REMARK  1 active torsions:
REMARK  status: ('A' for Active; 'I' for Inactive)
REMARK    1  A    between atoms: C_2  and  C_3
REMARK                            x       y       z     vdW  Elec       q    Type
REMARK                         _______ _______ _______ _____ _____    ______ ____
ROOT
ATOM      1  O   UNL     1       2.189   9.836  17.374  0.00  0.00    +0.000 OA
ATOM      2  C   UNL     1       1.926   9.311  18.467  0.00  0.00    +0.000 C 
ATOM      3  N   UNL     1       2.159   7.949  18.718  0.00  0.00    +0.000 N 
ATOM      4  C   UNL     1       2.349   7.335  20.020  0.00  0.00    +0.000 C 
ATOM      5  C   UNL     1       3.215   6.073  19.887  0.00  0.00    +0.000 C 
ATOM      6  C   UNL     1       2.326   4.992  19.252  0.00  0.00    +0.000 C 
ATOM      7  C   UNL     1       1.550   5.646  18.049  0.00  0.00    +0.000 C 
ATOM      8  C   UNL     1       2.175   6.995  17.601  0.00  0.00    +0.000 C 
ATOM      9  O   UNL     1       1.338   4.592  20.263  0.00  0.00    +0.000 OA
ATOM     10  C   UNL     1       1.895   3.959  21.438  0.00  0.00    +0.000 C 
ATOM     11  C   UNL     1       2.645   2.654  21.144  0.00  0.00    +0.000 C 
ATOM     12  C   UNL     1       3.150   2.607  19.745  0.00  0.00    +0.000 A 
ATOM     13  C   UNL     1       3.654   1.441  19.088  0.00  0.00    +0.000 A 
ATOM     14  C   UNL     1       3.865   1.667  17.751  0.00  0.00    +0.000 A 
ATOM     15  S   UNL     1       3.639   3.310  17.333  0.00  0.00    +0.000 S 
ATOM     16  C   UNL     1       3.032   3.692  18.887  0.00  0.00    +0.000 A 
ENDROOT
BRANCH   2  17
ATOM     17  C   UNL     1       1.049  10.082  19.407  0.00  0.00    +0.000 A 
ATOM     18  C   UNL     1       0.112   9.294  20.109  0.00  0.00    +0.000 A 
ATOM     19  C   UNL     1      -0.603   9.820  21.195  0.00  0.00    +0.000 A 
ATOM     20  C   UNL     1      -0.352  11.117  21.610  0.00  0.00    +0.000 A 
ATOM     21 CL   UNL     1      -1.114  11.729  23.026  0.00  0.00    +0.000 Cl
ATOM     22  C   UNL     1       0.490  11.939  20.868  0.00  0.00    +0.000 A 
ATOM     23  C   UNL     1       1.114  11.440  19.711  0.00  0.00    +0.000 A 
ATOM     24 CL   UNL     1       1.718  12.637  18.619  0.00  0.00    +0.000 Cl
ENDBRANCH   2  17
TORSDOF 1
ENDMDL
MODEL 7
REMARK VINA RESULT:      -6.4      5.206      8.359
REMARK  Name = 
REMARK  1 active torsions:
REMARK  status: ('A' for Active; 'I' for Inactive)
REMARK    1  A    between atoms: C_2  and  C_3
REMARK                            x       y       z     vdW  Elec       q    Type
REMARK                         _______ _______ _______ _____ _____    ______ ____
ROOT
ATOM      1  O   UNL     1      -4.252  12.169  24.405  0.00  0.00    +0.000 OA
ATOM      2  C   UNL     1      -3.744  13.014  23.653  0.00  0.00    +0.000 C 
ATOM      3  N   UNL     1      -2.777  12.675  22.692  0.00  0.00    +0.000 N 
ATOM      4  C   UNL     1      -2.468  13.419  21.484  0.00  0.00    +0.000 C 
ATOM      5  C   UNL     1      -1.918  12.472  20.407  0.00  0.00    +0.000 C 
ATOM      6  C   UNL     1      -0.486  12.110  20.826  0.00  0.00    +0.000 C 
ATOM      7  C   UNL     1      -0.500  11.765  22.361  0.00  0.00    +0.000 C 
ATOM      8  C   UNL     1      -1.932  11.491  22.896  0.00  0.00    +0.000 C 
ATOM      9  O   UNL     1       0.340  13.310  20.640  0.00  0.00    +0.000 OA
ATOM     10  C   UNL     1       0.464  13.754  19.269  0.00  0.00    +0.000 C 
ATOM     11  C   UNL     1       1.125  12.728  18.342  0.00  0.00    +0.000 C 
ATOM     12  C   UNL     1       0.967  11.338  18.849  0.00  0.00    +0.000 A 
ATOM     13  C   UNL     1       1.678  10.196  18.364  0.00  0.00    +0.000 A 
ATOM     14  C   UNL     1       1.460   9.093  19.152  0.00  0.00    +0.000 A 
ATOM     15  S   UNL     1       0.270   9.382  20.346  0.00  0.00    +0.000 S 
ATOM     16  C   UNL     1       0.201  11.051  19.972  0.00  0.00    +0.000 A 
ENDROOT
BRANCH   2  17
ATOM     17  C   UNL     1      -3.937  14.457  24.010  0.00  0.00    +0.000 A 
ATOM     18  C   UNL     1      -5.202  14.979  23.663  0.00  0.00    +0.000 A 
ATOM     19  C   UNL     1      -5.625  16.226  24.146  0.00  0.00    +0.000 A 
ATOM     20  C   UNL     1      -4.808  16.932  25.013  0.00  0.00    +0.000 A 
ATOM     21 CL   UNL     1      -5.370  18.393  25.728  0.00  0.00    +0.000 Cl
ATOM     22  C   UNL     1      -3.519  16.482  25.283  0.00  0.00    +0.000 A 
ATOM     23  C   UNL     1      -3.058  15.289  24.700  0.00  0.00    +0.000 A 
ATOM     24 CL   UNL     1      -1.341  15.081  24.692  0.00  0.00    +0.000 Cl
ENDBRANCH   2  17
TORSDOF 1
ENDMDL
MODEL 8
REMARK VINA RESULT:      -6.3      8.292     11.273
REMARK  Name = 
REMARK  1 active torsions:
REMARK  status: ('A' for Active; 'I' for Inactive)
REMARK    1  A    between atoms: C_2  and  C_3
REMARK                            x       y       z     vdW  Elec       q    Type
REMARK                         _______ _______ _______ _____ _____    ______ ____
ROOT
ATOM      1  O   UNL     1       8.226  16.945  18.277  0.00  0.00    +0.000 OA
ATOM      2  C   UNL     1       7.668  15.853  18.455  0.00  0.00    +0.000 C 
ATOM      3  N   UNL     1       6.271  15.731  18.539  0.00  0.00    +0.000 N 
ATOM      4  C   UNL     1       5.494  14.533  18.272  0.00  0.00    +0.000 C 
ATOM      5  C   UNL     1       4.082  14.914  17.803  0.00  0.00    +0.000 C 
ATOM      6  C   UNL     1       3.323  15.407  19.045  0.00  0.00    +0.000 C 
ATOM      7  C   UNL     1       4.268  16.383  19.838  0.00  0.00    +0.000 C 
ATOM      8  C   UNL     1       5.466  16.877  18.982  0.00  0.00    +0.000 C 
ATOM      9  O   UNL     1       3.068  14.235  19.893  0.00  0.00    +0.000 OA
ATOM     10  C   UNL     1       2.198  13.240  19.307  0.00  0.00    +0.000 C 
ATOM     11  C   UNL     1       0.789  13.756  18.990  0.00  0.00    +0.000 C 
ATOM     12  C   UNL     1       0.770  15.230  18.788  0.00  0.00    +0.000 A 
ATOM     13  C   UNL     1      -0.406  16.041  18.736  0.00  0.00    +0.000 A 
ATOM     14  C   UNL     1      -0.098  17.379  18.730  0.00  0.00    +0.000 A 
ATOM     15  S   UNL     1       1.586  17.649  18.598  0.00  0.00    +0.000 S 
ATOM     16  C   UNL     1       1.937  15.984  18.781  0.00  0.00    +0.000 A 
ENDROOT
BRANCH   2  17
ATOM     17  C   UNL     1       8.524  14.709  18.909  0.00  0.00    +0.000 A 
ATOM     18  C   UNL     1       9.278  14.101  17.882  0.00  0.00    +0.000 A 
ATOM     19  C   UNL     1      10.302  13.191  18.180  0.00  0.00    +0.000 A 
ATOM     20  C   UNL     1      10.608  12.922  19.504  0.00  0.00    +0.000 A 
ATOM     21 CL   UNL     1      11.954  11.922  19.889  0.00  0.00    +0.000 Cl
ATOM     22  C   UNL     1       9.811  13.431  20.524  0.00  0.00    +0.000 A 
ATOM     23  C   UNL     1       8.711  14.249  20.210  0.00  0.00    +0.000 A 
ATOM     24 CL   UNL     1       7.528  14.415  21.462  0.00  0.00    +0.000 Cl
ENDBRANCH   2  17
TORSDOF 1
ENDMDL
MODEL 9
REMARK VINA RESULT:      -6.2      5.429     10.157
REMARK  Name = 
REMARK  1 active torsions:
REMARK  status: ('A' for Active; 'I' for Inactive)
REMARK    1  A    between atoms: C_2  and  C_3
REMARK                            x       y       z     vdW  Elec       q    Type
REMARK                         _______ _______ _______ _____ _____    ______ ____
ROOT
ATOM      1  O   UNL     1       1.756  12.913  20.787  0.00  0.00    +0.000 OA
ATOM      2  C   UNL     1       0.698  12.287  20.944  0.00  0.00    +0.000 C 
ATOM      3  N   UNL     1      -0.440  12.872  21.523  0.00  0.00    +0.000 N 
ATOM      4  C   UNL     1      -1.816  12.445  21.338  0.00  0.00    +0.000 C 
ATOM      5  C   UNL     1      -2.768  13.636  21.520  0.00  0.00    +0.000 C 
ATOM      6  C   UNL     1      -2.821  13.933  23.027  0.00  0.00    +0.000 C 
ATOM      7  C   UNL     1      -1.348  13.904  23.581  0.00  0.00    +0.000 C 
ATOM      8  C   UNL     1      -0.286  14.000  22.452  0.00  0.00    +0.000 C 
ATOM      9  O   UNL     1      -3.564  12.836  23.661  0.00  0.00    +0.000 OA
ATOM     10  C   UNL     1      -4.951  12.733  23.262  0.00  0.00    +0.000 C 
ATOM     11  C   UNL     1      -5.789  13.969  23.607  0.00  0.00    +0.000 C 
ATOM     12  C   UNL     1      -4.952  15.194  23.721  0.00  0.00    +0.000 A 
ATOM     13  C   UNL     1      -5.382  16.439  24.276  0.00  0.00    +0.000 A 
ATOM     14  C   UNL     1      -4.336  17.317  24.417  0.00  0.00    +0.000 A 
ATOM     15  S   UNL     1      -2.895  16.718  23.717  0.00  0.00    +0.000 S 
ATOM     16  C   UNL     1      -3.595  15.184  23.424  0.00  0.00    +0.000 A 
ENDROOT
BRANCH   2  17
ATOM     17  C   UNL     1       0.755  10.795  20.808  0.00  0.00    +0.000 A 
ATOM     18  C   UNL     1       1.087  10.339  19.514  0.00  0.00    +0.000 A 
ATOM     19  C   UNL     1       1.421   8.997  19.284  0.00  0.00    +0.000 A 
ATOM     20  C   UNL     1       1.471   8.117  20.353  0.00  0.00    +0.000 A 
ATOM     21 CL   UNL     1       2.019   6.503  20.112  0.00  0.00    +0.000 Cl
ATOM     22  C   UNL     1       1.049   8.523  21.615  0.00  0.00    +0.000 A 
ATOM     23  C   UNL     1       0.602   9.841  21.812  0.00  0.00    +0.000 A 
ATOM     24 CL   UNL     1      -0.341  10.100  23.239  0.00  0.00    +0.000 Cl
ENDBRANCH   2  17
TORSDOF 1
ENDMDL
