MODEL 1
REMARK VINA RESULT:      -7.0      0.000      0.000
REMARK  Name = 
REMARK  4 active torsions:
REMARK  status: ('A' for Active; 'I' for Inactive)
REMARK    1  A    between atoms: C_1  and  C_2
REMARK    2  A    between atoms: C_2  and  N_3
REMARK    3  A    between atoms: C_8  and  C_9
REMARK    4  A    between atoms: N_15  and  C_16
REMARK                            x       y       z     vdW  Elec       q    Type
REMARK                         _______ _______ _______ _____ _____    ______ ____
ROOT
ATOM      1  N   UNL     1       1.874   3.838  19.617  0.00  0.00    +0.000 N 
ATOM      2  C   UNL     1       2.503   3.320  18.507  0.00  0.00    +0.000 A 
ATOM      3  O   UNL     1       2.395   2.155  18.125  0.00  0.00    +0.000 OA
ATOM      4  C   UNL     1       3.367   4.223  17.761  0.00  0.00    +0.000 A 
ATOM      5  C   UNL     1       4.148   3.715  16.720  0.00  0.00    +0.000 A 
ATOM      6  C   UNL     1       4.945   4.580  15.983  0.00  0.00    +0.000 A 
ATOM      7  C   UNL     1       4.947   5.931  16.330  0.00  0.00    +0.000 A 
ATOM      8  N   UNL     1       5.601   6.876  15.544  0.00  0.00    +0.000 N 
ATOM      9  N   UNL     1       4.204   6.417  17.361  0.00  0.00    +0.000 NA
ATOM     10  C   UNL     1       3.412   5.567  18.078  0.00  0.00    +0.000 A 
ATOM     11  N   UNL     1       2.607   6.064  19.143  0.00  0.00    +0.000 N 
ATOM     12  C   UNL     1       1.862   5.191  19.962  0.00  0.00    +0.000 A 
ATOM     13  O   UNL     1       1.216   5.574  20.943  0.00  0.00    +0.000 OA
ATOM     14  H   UNL     1       6.498   6.602  15.153  0.00  0.00    +0.000 HD
ATOM     15  H   UNL     1       5.608   7.785  15.993  0.00  0.00    +0.000 HD
ENDROOT
BRANCH  11  16
ATOM     16  C   UNL     1       2.641   7.499  19.438  0.00  0.00    +0.000 C 
ATOM     17  C   UNL     1       1.836   8.554  18.703  0.00  0.00    +0.000 C 
ATOM     18  C   UNL     1       1.464   8.185  20.102  0.00  0.00    +0.000 C 
ENDBRANCH  11  16
BRANCH   1  20
ATOM     19  C   UNL     1       1.887   2.493  21.691  0.00  0.00    +0.000 C 
ATOM     20  C   UNL     1       1.115   2.901  20.447  0.00  0.00    +0.000 C 
ENDBRANCH   1  20
BRANCH   6  21
ATOM     21  C   UNL     1       5.746   4.067  14.922  0.00  0.00    +0.000 C 
ATOM     22  N   UNL     1       6.397   3.675  14.033  0.00  0.00    +0.000 NA
ENDBRANCH   6  21
TORSDOF 3
ENDMDL
MODEL 2
REMARK VINA RESULT:      -6.8      2.957      3.941
REMARK  Name = 
REMARK  4 active torsions:
REMARK  status: ('A' for Active; 'I' for Inactive)
REMARK    1  A    between atoms: C_1  and  C_2
REMARK    2  A    between atoms: C_2  and  N_3
REMARK    3  A    between atoms: C_8  and  C_9
REMARK    4  A    between atoms: N_15  and  C_16
REMARK                            x       y       z     vdW  Elec       q    Type
REMARK                         _______ _______ _______ _____ _____    ______ ____
ROOT
ATOM      1  N   UNL     1       4.893   4.346  18.356  0.00  0.00    +0.000 N 
ATOM      2  C   UNL     1       4.503   3.898  17.114  0.00  0.00    +0.000 A 
ATOM      3  O   UNL     1       3.475   3.257  16.895  0.00  0.00    +0.000 OA
ATOM      4  C   UNL     1       5.391   4.195  16.001  0.00  0.00    +0.000 A 
ATOM      5  C   UNL     1       5.125   3.636  14.748  0.00  0.00    +0.000 A 
ATOM      6  C   UNL     1       5.950   3.946  13.675  0.00  0.00    +0.000 A 
ATOM      7  C   UNL     1       7.031   4.798  13.901  0.00  0.00    +0.000 A 
ATOM      8  N   UNL     1       7.808   5.271  12.847  0.00  0.00    +0.000 N 
ATOM      9  N   UNL     1       7.302   5.320  15.128  0.00  0.00    +0.000 NA
ATOM     10  C   UNL     1       6.483   5.022  16.180  0.00  0.00    +0.000 A 
ATOM     11  N   UNL     1       6.735   5.582  17.465  0.00  0.00    +0.000 N 
ATOM     12  C   UNL     1       5.967   5.208  18.586  0.00  0.00    +0.000 A 
ATOM     13  O   UNL     1       6.204   5.610  19.730  0.00  0.00    +0.000 OA
ATOM     14  H   UNL     1       8.015   4.613  12.101  0.00  0.00    +0.000 HD
ATOM     15  H   UNL     1       8.618   5.778  13.186  0.00  0.00    +0.000 HD
ENDROOT
BRANCH  11  16
ATOM     16  C   UNL     1       7.877   6.487  17.624  0.00  0.00    +0.000 C 
ATOM     17  C   UNL     1       7.788   8.002  17.633  0.00  0.00    +0.000 C 
ATOM     18  C   UNL     1       8.074   7.273  18.906  0.00  0.00    +0.000 C 
ENDBRANCH  11  16
BRANCH   1  20
ATOM     19  C   UNL     1       4.406   2.519  19.949  0.00  0.00    +0.000 C 
ATOM     20  C   UNL     1       4.075   3.933  19.498  0.00  0.00    +0.000 C 
ENDBRANCH   1  20
BRANCH   6  21
ATOM     21  C   UNL     1       5.685   3.377  12.396  0.00  0.00    +0.000 C 
ATOM     22  N   UNL     1       5.485   2.880  11.356  0.00  0.00    +0.000 NA
ENDBRANCH   6  21
TORSDOF 3
ENDMDL
MODEL 3
REMARK VINA RESULT:      -6.6      2.344      5.419
REMARK  Name = 
REMARK  4 active torsions:
REMARK  status: ('A' for Active; 'I' for Inactive)
REMARK    1  A    between atoms: C_1  and  C_2
REMARK    2  A    between atoms: C_2  and  N_3
REMARK    3  A    between atoms: C_8  and  C_9
REMARK    4  A    between atoms: N_15  and  C_16
REMARK                            x       y       z     vdW  Elec       q    Type
REMARK                         _______ _______ _______ _____ _____    ______ ____
ROOT
ATOM      1  N   UNL     1       4.602   4.947  17.944  0.00  0.00    +0.000 N 
ATOM      2  C   UNL     1       4.108   6.161  17.524  0.00  0.00    +0.000 A 
ATOM      3  O   UNL     1       4.405   6.704  16.460  0.00  0.00    +0.000 OA
ATOM      4  C   UNL     1       3.190   6.842  18.424  0.00  0.00    +0.000 A 
ATOM      5  C   UNL     1       2.778   8.143  18.121  0.00  0.00    +0.000 A 
ATOM      6  C   UNL     1       1.874   8.783  18.958  0.00  0.00    +0.000 A 
ATOM      7  C   UNL     1       1.425   8.098  20.088  0.00  0.00    +0.000 A 
ATOM      8  N   UNL     1       0.408   8.615  20.887  0.00  0.00    +0.000 N 
ATOM      9  N   UNL     1       1.849   6.842  20.393  0.00  0.00    +0.000 NA
ATOM     10  C   UNL     1       2.729   6.210  19.563  0.00  0.00    +0.000 A 
ATOM     11  N   UNL     1       3.162   4.884  19.851  0.00  0.00    +0.000 N 
ATOM     12  C   UNL     1       4.148   4.252  19.067  0.00  0.00    +0.000 A 
ATOM     13  O   UNL     1       4.606   3.135  19.331  0.00  0.00    +0.000 OA
ATOM     14  H   UNL     1       0.423   9.617  21.053  0.00  0.00    +0.000 HD
ATOM     15  H   UNL     1       0.283   8.061  21.726  0.00  0.00    +0.000 HD
ENDROOT
BRANCH  11  16
ATOM     16  C   UNL     1       2.631   4.217  21.044  0.00  0.00    +0.000 C 
ATOM     17  C   UNL     1       1.325   3.449  21.099  0.00  0.00    +0.000 C 
ATOM     18  C   UNL     1       2.620   2.705  21.149  0.00  0.00    +0.000 C 
ENDBRANCH  11  16
BRANCH   1  20
ATOM     19  C   UNL     1       7.030   4.732  17.532  0.00  0.00    +0.000 C 
ATOM     20  C   UNL     1       5.629   4.322  17.108  0.00  0.00    +0.000 C 
ENDBRANCH   1  20
BRANCH   6  21
ATOM     21  C   UNL     1       1.453  10.110  18.656  0.00  0.00    +0.000 C 
ATOM     22  N   UNL     1       1.113  11.208  18.441  0.00  0.00    +0.000 NA
ENDBRANCH   6  21
TORSDOF 3
ENDMDL
MODEL 4
REMARK VINA RESULT:      -6.2      2.036      5.086
REMARK  Name = 
REMARK  4 active torsions:
REMARK  status: ('A' for Active; 'I' for Inactive)
REMARK    1  A    between atoms: C_1  and  C_2
REMARK    2  A    between atoms: C_2  and  N_3
REMARK    3  A    between atoms: C_8  and  C_9
REMARK    4  A    between atoms: N_15  and  C_16
REMARK                            x       y       z     vdW  Elec       q    Type
REMARK                         _______ _______ _______ _____ _____    ______ ____
ROOT
ATOM      1  N   UNL     1       3.265   4.318  19.484  0.00  0.00    +0.000 N 
ATOM      2  C   UNL     1       2.539   5.261  20.176  0.00  0.00    +0.000 A 
ATOM      3  O   UNL     1       2.015   5.070  21.273  0.00  0.00    +0.000 OA
ATOM      4  C   UNL     1       2.375   6.559  19.539  0.00  0.00    +0.000 A 
ATOM      5  C   UNL     1       1.524   7.502  20.122  0.00  0.00    +0.000 A 
ATOM      6  C   UNL     1       1.393   8.754  19.537  0.00  0.00    +0.000 A 
ATOM      7  C   UNL     1       2.111   9.014  18.370  0.00  0.00    +0.000 A 
ATOM      8  N   UNL     1       2.147  10.290  17.815  0.00  0.00    +0.000 N 
ATOM      9  N   UNL     1       2.919   8.085  17.792  0.00  0.00    +0.000 NA
ATOM     10  C   UNL     1       3.055   6.857  18.374  0.00  0.00    +0.000 A 
ATOM     11  N   UNL     1       3.919   5.882  17.798  0.00  0.00    +0.000 N 
ATOM     12  C   UNL     1       3.995   4.575  18.322  0.00  0.00    +0.000 A 
ATOM     13  O   UNL     1       4.671   3.680  17.804  0.00  0.00    +0.000 OA
ATOM     14  H   UNL     1       1.280  10.819  17.832  0.00  0.00    +0.000 HD
ATOM     15  H   UNL     1       2.609  10.286  16.913  0.00  0.00    +0.000 HD
ENDROOT
BRANCH  11  16
ATOM     16  C   UNL     1       4.660   6.232  16.583  0.00  0.00    +0.000 C 
ATOM     17  C   UNL     1       6.068   6.797  16.558  0.00  0.00    +0.000 C 
ATOM     18  C   UNL     1       5.831   5.390  16.116  0.00  0.00    +0.000 C 
ENDBRANCH  11  16
BRANCH   1  20
ATOM     19  C   UNL     1       2.150   2.114  19.591  0.00  0.00    +0.000 C 
ATOM     20  C   UNL     1       3.317   2.971  20.054  0.00  0.00    +0.000 C 
ENDBRANCH   1  20
BRANCH   6  21
ATOM     21  C   UNL     1       0.524   9.718  20.125  0.00  0.00    +0.000 C 
ATOM     22  N   UNL     1      -0.166  10.514  20.632  0.00  0.00    +0.000 NA
ENDBRANCH   6  21
TORSDOF 3
ENDMDL
MODEL 5
REMARK VINA RESULT:      -6.1      3.084      6.195
REMARK  Name = 
REMARK  4 active torsions:
REMARK  status: ('A' for Active; 'I' for Inactive)
REMARK    1  A    between atoms: C_1  and  C_2
REMARK    2  A    between atoms: C_2  and  N_3
REMARK    3  A    between atoms: C_8  and  C_9
REMARK    4  A    between atoms: N_15  and  C_16
REMARK                            x       y       z     vdW  Elec       q    Type
REMARK                         _______ _______ _______ _____ _____    ______ ____
ROOT
ATOM      1  N   UNL     1       6.913   5.668  17.822  0.00  0.00    +0.000 N 
ATOM      2  C   UNL     1       6.000   5.442  18.827  0.00  0.00    +0.000 A 
ATOM      3  O   UNL     1       5.983   6.042  19.901  0.00  0.00    +0.000 OA
ATOM      4  C   UNL     1       5.009   4.403  18.591  0.00  0.00    +0.000 A 
ATOM      5  C   UNL     1       4.157   4.025  19.631  0.00  0.00    +0.000 A 
ATOM      6  C   UNL     1       3.186   3.059  19.400  0.00  0.00    +0.000 A 
ATOM      7  C   UNL     1       3.115   2.489  18.129  0.00  0.00    +0.000 A 
ATOM      8  N   UNL     1       2.076   1.630  17.781  0.00  0.00    +0.000 N 
ATOM      9  N   UNL     1       3.964   2.842  17.126  0.00  0.00    +0.000 NA
ATOM     10  C   UNL     1       4.911   3.799  17.352  0.00  0.00    +0.000 A 
ATOM     11  N   UNL     1       5.790   4.200  16.305  0.00  0.00    +0.000 N 
ATOM     12  C   UNL     1       6.840   5.110  16.544  0.00  0.00    +0.000 A 
ATOM     13  O   UNL     1       7.670   5.422  15.683  0.00  0.00    +0.000 OA
ATOM     14  H   UNL     1       1.774   0.969  18.491  0.00  0.00    +0.000 HD
ATOM     15  H   UNL     1       2.234   1.212  16.871  0.00  0.00    +0.000 HD
ENDROOT
BRANCH  11  16
ATOM     16  C   UNL     1       5.643   3.575  14.988  0.00  0.00    +0.000 C 
ATOM     17  C   UNL     1       5.017   4.240  13.776  0.00  0.00    +0.000 C 
ATOM     18  C   UNL     1       6.495   4.021  13.816  0.00  0.00    +0.000 C 
ENDBRANCH  11  16
BRANCH   1  20
ATOM     19  C   UNL     1       7.669   8.012  17.607  0.00  0.00    +0.000 C 
ATOM     20  C   UNL     1       7.993   6.614  18.107  0.00  0.00    +0.000 C 
ENDBRANCH   1  20
BRANCH   6  21
ATOM     21  C   UNL     1       2.316   2.668  20.458  0.00  0.00    +0.000 C 
ATOM     22  N   UNL     1       1.586   2.377  21.324  0.00  0.00    +0.000 NA
ENDBRANCH   6  21
TORSDOF 3
ENDMDL
MODEL 6
REMARK VINA RESULT:      -6.1      2.673      6.350
REMARK  Name = 
REMARK  4 active torsions:
REMARK  status: ('A' for Active; 'I' for Inactive)
REMARK    1  A    between atoms: C_1  and  C_2
REMARK    2  A    between atoms: C_2  and  N_3
REMARK    3  A    between atoms: C_8  and  C_9
REMARK    4  A    between atoms: N_15  and  C_16
REMARK                            x       y       z     vdW  Elec       q    Type
REMARK                         _______ _______ _______ _____ _____    ______ ____
ROOT
ATOM      1  N   UNL     1       3.636   6.556  17.926  0.00  0.00    +0.000 N 
ATOM      2  C   UNL     1       2.925   7.734  17.906  0.00  0.00    +0.000 A 
ATOM      3  O   UNL     1       2.968   8.559  16.994  0.00  0.00    +0.000 OA
ATOM      4  C   UNL     1       2.087   8.014  19.063  0.00  0.00    +0.000 A 
ATOM      5  C   UNL     1       1.464   9.260  19.168  0.00  0.00    +0.000 A 
ATOM      6  C   UNL     1       0.636   9.517  20.252  0.00  0.00    +0.000 A 
ATOM      7  C   UNL     1       0.474   8.516  21.210  0.00  0.00    +0.000 A 
ATOM      8  N   UNL     1      -0.455   8.646  22.239  0.00  0.00    +0.000 N 
ATOM      9  N   UNL     1       1.103   7.313  21.117  0.00  0.00    +0.000 NA
ATOM     10  C   UNL     1       1.909   7.058  20.045  0.00  0.00    +0.000 A 
ATOM     11  N   UNL     1       2.554   5.794  19.917  0.00  0.00    +0.000 N 
ATOM     12  C   UNL     1       3.470   5.545  18.875  0.00  0.00    +0.000 A 
ATOM     13  O   UNL     1       4.108   4.491  18.776  0.00  0.00    +0.000 OA
ATOM     14  H   UNL     1      -0.544   9.567  22.659  0.00  0.00    +0.000 HD
ATOM     15  H   UNL     1      -0.365   7.893  22.911  0.00  0.00    +0.000 HD
ENDROOT
BRANCH  11  16
ATOM     16  C   UNL     1       2.320   4.780  20.950  0.00  0.00    +0.000 C 
ATOM     17  C   UNL     1       1.225   3.732  20.904  0.00  0.00    +0.000 C 
ATOM     18  C   UNL     1       2.647   3.322  20.696  0.00  0.00    +0.000 C 
ENDBRANCH  11  16
BRANCH   1  20
ATOM     19  C   UNL     1       5.962   6.886  17.155  0.00  0.00    +0.000 C 
ATOM     20  C   UNL     1       4.583   6.333  16.832  0.00  0.00    +0.000 C 
ENDBRANCH   1  20
BRANCH   6  21
ATOM     21  C   UNL     1       0.000  10.787  20.366  0.00  0.00    +0.000 C 
ATOM     22  N   UNL     1      -0.542  11.817  20.484  0.00  0.00    +0.000 NA
ENDBRANCH   6  21
TORSDOF 3
ENDMDL
MODEL 7
REMARK VINA RESULT:      -6.1      2.267      3.219
REMARK  Name = 
REMARK  4 active torsions:
REMARK  status: ('A' for Active; 'I' for Inactive)
REMARK    1  A    between atoms: C_1  and  C_2
REMARK    2  A    between atoms: C_2  and  N_3
REMARK    3  A    between atoms: C_8  and  C_9
REMARK    4  A    between atoms: N_15  and  C_16
REMARK                            x       y       z     vdW  Elec       q    Type
REMARK                         _______ _______ _______ _____ _____    ______ ____
ROOT
ATOM      1  N   UNL     1       3.451   4.116  18.374  0.00  0.00    +0.000 N 
ATOM      2  C   UNL     1       3.496   3.773  17.042  0.00  0.00    +0.000 A 
ATOM      3  O   UNL     1       2.604   3.169  16.447  0.00  0.00    +0.000 OA
ATOM      4  C   UNL     1       4.698   4.141  16.310  0.00  0.00    +0.000 A 
ATOM      5  C   UNL     1       4.865   3.686  14.999  0.00  0.00    +0.000 A 
ATOM      6  C   UNL     1       5.993   4.065  14.285  0.00  0.00    +0.000 A 
ATOM      7  C   UNL     1       6.932   4.878  14.920  0.00  0.00    +0.000 A 
ATOM      8  N   UNL     1       8.008   5.418  14.222  0.00  0.00    +0.000 N 
ATOM      9  N   UNL     1       6.779   5.297  16.206  0.00  0.00    +0.000 NA
ATOM     10  C   UNL     1       5.663   4.933  16.903  0.00  0.00    +0.000 A 
ATOM     11  N   UNL     1       5.473   5.386  18.240  0.00  0.00    +0.000 N 
ATOM     12  C   UNL     1       4.382   4.939  19.013  0.00  0.00    +0.000 A 
ATOM     13  O   UNL     1       4.226   5.246  20.199  0.00  0.00    +0.000 OA
ATOM     14  H   UNL     1       8.455   4.817  13.536  0.00  0.00    +0.000 HD
ATOM     15  H   UNL     1       8.657   5.882  14.847  0.00  0.00    +0.000 HD
ENDROOT
BRANCH  11  16
ATOM     16  C   UNL     1       6.490   6.256  18.837  0.00  0.00    +0.000 C 
ATOM     17  C   UNL     1       7.787   5.775  19.458  0.00  0.00    +0.000 C 
ATOM     18  C   UNL     1       7.819   6.487  18.146  0.00  0.00    +0.000 C 
ENDBRANCH  11  16
BRANCH   1  20
ATOM     19  C   UNL     1       2.537   2.223  19.674  0.00  0.00    +0.000 C 
ATOM     20  C   UNL     1       2.308   3.629  19.147  0.00  0.00    +0.000 C 
ENDBRANCH   1  20
BRANCH   6  21
ATOM     21  C   UNL     1       6.170   3.601  12.949  0.00  0.00    +0.000 C 
ATOM     22  N   UNL     1       6.294   3.194  11.860  0.00  0.00    +0.000 NA
ENDBRANCH   6  21
TORSDOF 3
ENDMDL
MODEL 8
REMARK VINA RESULT:      -6.1      1.138      1.181
REMARK  Name = 
REMARK  4 active torsions:
REMARK  status: ('A' for Active; 'I' for Inactive)
REMARK    1  A    between atoms: C_1  and  C_2
REMARK    2  A    between atoms: C_2  and  N_3
REMARK    3  A    between atoms: C_8  and  C_9
REMARK    4  A    between atoms: N_15  and  C_16
REMARK                            x       y       z     vdW  Elec       q    Type
REMARK                         _______ _______ _______ _____ _____    ______ ____
ROOT
ATOM      1  N   UNL     1       1.788   3.674  18.588  0.00  0.00    +0.000 N 
ATOM      2  C   UNL     1       2.649   3.527  17.524  0.00  0.00    +0.000 A 
ATOM      3  O   UNL     1       2.619   2.588  16.729  0.00  0.00    +0.000 OA
ATOM      4  C   UNL     1       3.670   4.550  17.359  0.00  0.00    +0.000 A 
ATOM      5  C   UNL     1       4.663   4.373  16.393  0.00  0.00    +0.000 A 
ATOM      6  C   UNL     1       5.618   5.364  16.209  0.00  0.00    +0.000 A 
ATOM      7  C   UNL     1       5.554   6.499  17.017  0.00  0.00    +0.000 A 
ATOM      8  N   UNL     1       6.381   7.595  16.788  0.00  0.00    +0.000 N 
ATOM      9  N   UNL     1       4.599   6.656  17.975  0.00  0.00    +0.000 NA
ATOM     10  C   UNL     1       3.655   5.685  18.148  0.00  0.00    +0.000 A 
ATOM     11  N   UNL     1       2.632   5.845  19.126  0.00  0.00    +0.000 N 
ATOM     12  C   UNL     1       1.710   4.813  19.393  0.00  0.00    +0.000 A 
ATOM     13  O   UNL     1       0.860   4.883  20.287  0.00  0.00    +0.000 OA
ATOM     14  H   UNL     1       7.340   7.395  16.522  0.00  0.00    +0.000 HD
ATOM     15  H   UNL     1       6.294   8.282  17.529  0.00  0.00    +0.000 HD
ENDROOT
BRANCH  11  16
ATOM     16  C   UNL     1       2.612   7.074  19.925  0.00  0.00    +0.000 C 
ATOM     17  C   UNL     1       1.812   8.317  19.585  0.00  0.00    +0.000 C 
ATOM     18  C   UNL     1       1.388   7.458  20.731  0.00  0.00    +0.000 C 
ENDBRANCH  11  16
BRANCH   1  20
ATOM     19  C   UNL     1       1.448   1.515  19.743  0.00  0.00    +0.000 C 
ATOM     20  C   UNL     1       0.849   2.580  18.839  0.00  0.00    +0.000 C 
ENDBRANCH   1  20
BRANCH   6  21
ATOM     21  C   UNL     1       6.635   5.187  15.227  0.00  0.00    +0.000 C 
ATOM     22  N   UNL     1       7.490   5.025  14.445  0.00  0.00    +0.000 NA
ENDBRANCH   6  21
TORSDOF 3
ENDMDL
MODEL 9
REMARK VINA RESULT:      -6.0      1.233      1.371
REMARK  Name = 
REMARK  4 active torsions:
REMARK  status: ('A' for Active; 'I' for Inactive)
REMARK    1  A    between atoms: C_1  and  C_2
REMARK    2  A    between atoms: C_2  and  N_3
REMARK    3  A    between atoms: C_8  and  C_9
REMARK    4  A    between atoms: N_15  and  C_16
REMARK                            x       y       z     vdW  Elec       q    Type
REMARK                         _______ _______ _______ _____ _____    ______ ____
ROOT
ATOM      1  N   UNL     1       2.812   4.409  20.407  0.00  0.00    +0.000 N 
ATOM      2  C   UNL     1       3.807   3.920  19.591  0.00  0.00    +0.000 A 
ATOM      3  O   UNL     1       4.366   2.835  19.747  0.00  0.00    +0.000 OA
ATOM      4  C   UNL     1       4.226   4.771  18.487  0.00  0.00    +0.000 A 
ATOM      5  C   UNL     1       5.332   4.397  17.720  0.00  0.00    +0.000 A 
ATOM      6  C   UNL     1       5.713   5.186  16.644  0.00  0.00    +0.000 A 
ATOM      7  C   UNL     1       4.977   6.342  16.383  0.00  0.00    +0.000 A 
ATOM      8  N   UNL     1       5.206   7.099  15.236  0.00  0.00    +0.000 N 
ATOM      9  N   UNL     1       3.916   6.717  17.148  0.00  0.00    +0.000 NA
ATOM     10  C   UNL     1       3.536   5.933  18.199  0.00  0.00    +0.000 A 
ATOM     11  N   UNL     1       2.411   6.295  18.994  0.00  0.00    +0.000 N 
ATOM     12  C   UNL     1       2.063   5.558  20.145  0.00  0.00    +0.000 A 
ATOM     13  O   UNL     1       1.144   5.886  20.902  0.00  0.00    +0.000 OA
ATOM     14  H   UNL     1       6.174   7.214  14.952  0.00  0.00    +0.000 HD
ATOM     15  H   UNL     1       4.676   7.963  15.255  0.00  0.00    +0.000 HD
ENDROOT
BRANCH  11  16
ATOM     16  C   UNL     1       1.670   7.511  18.648  0.00  0.00    +0.000 C 
ATOM     17  C   UNL     1       1.813   8.845  19.356  0.00  0.00    +0.000 C 
ATOM     18  C   UNL     1       2.364   8.680  17.977  0.00  0.00    +0.000 C 
ENDBRANCH  11  16
BRANCH   1  20
ATOM     19  C   UNL     1       1.417   2.576  21.306  0.00  0.00    +0.000 C 
ATOM     20  C   UNL     1       2.482   3.621  21.596  0.00  0.00    +0.000 C 
ENDBRANCH   1  20
BRANCH   6  21
ATOM     21  C   UNL     1       6.843   4.812  15.861  0.00  0.00    +0.000 C 
ATOM     22  N   UNL     1       7.786   4.533  15.228  0.00  0.00    +0.000 NA
ENDBRANCH   6  21
TORSDOF 3
ENDMDL
