MODEL 1
REMARK VINA RESULT:      -8.3      0.000      0.000
REMARK  Name = 
REMARK  3 active torsions:
REMARK  status: ('A' for Active; 'I' for Inactive)
REMARK    1  A    between atoms: C_8  and  C_9
REMARK    2  A    between atoms: C_19  and  S_20
REMARK    3  A    between atoms: S_20  and  C_21
REMARK                            x       y       z     vdW  Elec       q    Type
REMARK                         _______ _______ _______ _____ _____    ______ ____
ROOT
ATOM      1  N   UNL     1      -2.356   9.534  15.612  0.00  0.00    +0.000 N 
ATOM      2  C   UNL     1      -2.826  10.352  16.621  0.00  0.00    +0.000 A 
ATOM      3  N   UNL     1      -2.005  10.578  17.626  0.00  0.00    +0.000 NA
ATOM      4  C   UNL     1      -2.455  11.328  18.623  0.00  0.00    +0.000 A 
ATOM      5  N   UNL     1      -1.680  11.552  19.760  0.00  0.00    +0.000 N 
ATOM      6  C   UNL     1      -0.629  10.786  20.122  0.00  0.00    +0.000 A 
ATOM      7  N   UNL     1       0.056   9.983  19.340  0.00  0.00    +0.000 NA
ATOM      8  C   UNL     1       0.994   9.260  20.043  0.00  0.00    +0.000 A 
ATOM      9  C   UNL     1       1.056   9.559  21.387  0.00  0.00    +0.000 A 
ATOM     10  S   UNL     1      -0.087  10.783  21.764  0.00  0.00    +0.000 S 
ATOM     11  N   UNL     1      -3.664  11.873  18.629  0.00  0.00    +0.000 NA
ATOM     12  C   UNL     1      -4.414  11.580  17.565  0.00  0.00    +0.000 A 
ATOM     13  N   UNL     1      -4.057  10.805  16.545  0.00  0.00    +0.000 NA
ATOM     14  H   UNL     1      -1.593   8.971  15.971  0.00  0.00    +0.000 HD
ATOM     15  H   UNL     1      -3.115   9.043  15.160  0.00  0.00    +0.000 HD
ATOM     16  H   UNL     1      -2.201  12.059  20.457  0.00  0.00    +0.000 HD
ENDROOT
BRANCH   8  17
ATOM     17  C   UNL     1       1.834   8.291  19.354  0.00  0.00    +0.000 A 
ATOM     18  C   UNL     1       2.142   7.080  19.996  0.00  0.00    +0.000 A 
ATOM     19  C   UNL     1       2.942   6.122  19.368  0.00  0.00    +0.000 A 
ATOM     20  C   UNL     1       3.452   6.378  18.099  0.00  0.00    +0.000 A 
ATOM     21 CL   UNL     1       4.432   5.200  17.317  0.00  0.00    +0.000 Cl
ATOM     22  C   UNL     1       3.176   7.584  17.457  0.00  0.00    +0.000 A 
ATOM     23  C   UNL     1       2.368   8.541  18.084  0.00  0.00    +0.000 A 
ENDBRANCH   8  17
BRANCH  12  24
ATOM     24  S   UNL     1      -6.060  12.257  17.531  0.00  0.00    +0.000 S 
BRANCH  24  25
ATOM     25  C   UNL     1      -6.769  11.401  18.925  0.00  0.00    +0.000 A 
ATOM     26  C   UNL     1      -6.806  10.003  18.967  0.00  0.00    +0.000 A 
ATOM     27  C   UNL     1      -7.385   9.345  20.053  0.00  0.00    +0.000 A 
ATOM     28  C   UNL     1      -7.917  10.080  21.110  0.00  0.00    +0.000 A 
ATOM     29  C   UNL     1      -7.861  11.473  21.088  0.00  0.00    +0.000 A 
ATOM     30  C   UNL     1      -7.285  12.132  20.000  0.00  0.00    +0.000 A 
ENDBRANCH  24  25
ENDBRANCH  12  24
TORSDOF 3
ENDMDL
MODEL 2
REMARK VINA RESULT:      -8.3      0.176      1.326
REMARK  Name = 
REMARK  3 active torsions:
REMARK  status: ('A' for Active; 'I' for Inactive)
REMARK    1  A    between atoms: C_8  and  C_9
REMARK    2  A    between atoms: C_19  and  S_20
REMARK    3  A    between atoms: S_20  and  C_21
REMARK                            x       y       z     vdW  Elec       q    Type
REMARK                         _______ _______ _______ _____ _____    ______ ____
ROOT
ATOM      1  N   UNL     1      -2.403   9.673  15.597  0.00  0.00    +0.000 N 
ATOM      2  C   UNL     1      -2.887  10.479  16.609  0.00  0.00    +0.000 A 
ATOM      3  N   UNL     1      -2.078  10.698  17.626  0.00  0.00    +0.000 NA
ATOM      4  C   UNL     1      -2.543  11.436  18.625  0.00  0.00    +0.000 A 
ATOM      5  N   UNL     1      -1.782  11.650  19.774  0.00  0.00    +0.000 N 
ATOM      6  C   UNL     1      -0.733  10.884  20.140  0.00  0.00    +0.000 A 
ATOM      7  N   UNL     1      -0.036  10.092  19.358  0.00  0.00    +0.000 NA
ATOM      8  C   UNL     1       0.896   9.365  20.064  0.00  0.00    +0.000 A 
ATOM      9  C   UNL     1       0.942   9.650  21.412  0.00  0.00    +0.000 A 
ATOM     10  S   UNL     1      -0.211  10.866  21.788  0.00  0.00    +0.000 S 
ATOM     11  N   UNL     1      -3.754  11.976  18.622  0.00  0.00    +0.000 NA
ATOM     12  C   UNL     1      -4.490  11.692  17.547  0.00  0.00    +0.000 A 
ATOM     13  N   UNL     1      -4.118  10.929  16.523  0.00  0.00    +0.000 NA
ATOM     14  H   UNL     1      -1.642   9.109  15.960  0.00  0.00    +0.000 HD
ATOM     15  H   UNL     1      -3.154   9.185  15.131  0.00  0.00    +0.000 HD
ATOM     16  H   UNL     1      -2.313  12.148  20.469  0.00  0.00    +0.000 HD
ENDROOT
BRANCH   8  17
ATOM     17  C   UNL     1       1.748   8.406  19.375  0.00  0.00    +0.000 A 
ATOM     18  C   UNL     1       2.192   8.700  18.076  0.00  0.00    +0.000 A 
ATOM     19  C   UNL     1       3.014   7.808  17.382  0.00  0.00    +0.000 A 
ATOM     20  C   UNL     1       3.384   6.608  17.981  0.00  0.00    +0.000 A 
ATOM     21 CL   UNL     1       4.401   5.508  17.136  0.00  0.00    +0.000 Cl
ATOM     22  C   UNL     1       2.933   6.289  19.261  0.00  0.00    +0.000 A 
ATOM     23  C   UNL     1       2.115   7.187  19.958  0.00  0.00    +0.000 A 
ENDBRANCH   8  17
BRANCH  12  24
ATOM     24  S   UNL     1      -6.138  12.363  17.500  0.00  0.00    +0.000 S 
BRANCH  24  25
ATOM     25  C   UNL     1      -6.843  11.537  18.914  0.00  0.00    +0.000 A 
ATOM     26  C   UNL     1      -7.383  12.268  19.977  0.00  0.00    +0.000 A 
ATOM     27  C   UNL     1      -7.911  11.611  21.089  0.00  0.00    +0.000 A 
ATOM     28  C   UNL     1      -7.917  10.218  21.138  0.00  0.00    +0.000 A 
ATOM     29  C   UNL     1      -7.403   9.482  20.070  0.00  0.00    +0.000 A 
ATOM     30  C   UNL     1      -6.871  10.140  18.959  0.00  0.00    +0.000 A 
ENDBRANCH  24  25
ENDBRANCH  12  24
TORSDOF 3
ENDMDL
MODEL 3
REMARK VINA RESULT:      -8.2      3.596      8.710
REMARK  Name = 
REMARK  3 active torsions:
REMARK  status: ('A' for Active; 'I' for Inactive)
REMARK    1  A    between atoms: C_8  and  C_9
REMARK    2  A    between atoms: C_19  and  S_20
REMARK    3  A    between atoms: S_20  and  C_21
REMARK                            x       y       z     vdW  Elec       q    Type
REMARK                         _______ _______ _______ _____ _____    ______ ____
ROOT
ATOM      1  N   UNL     1      -0.265   9.850  21.708  0.00  0.00    +0.000 N 
ATOM      2  C   UNL     1       0.117   9.671  20.393  0.00  0.00    +0.000 A 
ATOM      3  N   UNL     1      -0.638  10.242  19.477  0.00  0.00    +0.000 NA
ATOM      4  C   UNL     1      -0.308  10.045  18.207  0.00  0.00    +0.000 A 
ATOM      5  N   UNL     1      -1.098  10.548  17.174  0.00  0.00    +0.000 N 
ATOM      6  C   UNL     1      -2.384  10.928  17.322  0.00  0.00    +0.000 A 
ATOM      7  N   UNL     1      -2.978  11.242  18.449  0.00  0.00    +0.000 NA
ATOM      8  C   UNL     1      -4.323  11.478  18.272  0.00  0.00    +0.000 A 
ATOM      9  C   UNL     1      -4.752  11.388  16.964  0.00  0.00    +0.000 A 
ATOM     10  S   UNL     1      -3.425  11.008  15.943  0.00  0.00    +0.000 S 
ATOM     11  N   UNL     1       0.750   9.336  17.836  0.00  0.00    +0.000 NA
ATOM     12  C   UNL     1       1.445   8.802  18.842  0.00  0.00    +0.000 A 
ATOM     13  N   UNL     1       1.161   8.914  20.136  0.00  0.00    +0.000 NA
ATOM     14  H   UNL     1      -1.247  10.101  21.735  0.00  0.00    +0.000 HD
ATOM     15  H   UNL     1       0.024   9.069  22.279  0.00  0.00    +0.000 HD
ATOM     16  H   UNL     1      -0.762  10.232  16.278  0.00  0.00    +0.000 HD
ENDROOT
BRANCH   8  17
ATOM     17  C   UNL     1      -5.163  11.811  19.413  0.00  0.00    +0.000 A 
ATOM     18  C   UNL     1      -6.461  11.278  19.482  0.00  0.00    +0.000 A 
ATOM     19  C   UNL     1      -7.298  11.571  20.562  0.00  0.00    +0.000 A 
ATOM     20  C   UNL     1      -6.844  12.413  21.573  0.00  0.00    +0.000 A 
ATOM     21 CL   UNL     1      -7.866  12.772  22.910  0.00  0.00    +0.000 Cl
ATOM     22  C   UNL     1      -5.568  12.970  21.509  0.00  0.00    +0.000 A 
ATOM     23  C   UNL     1      -4.728  12.670  20.430  0.00  0.00    +0.000 A 
ENDBRANCH   8  17
BRANCH  12  24
ATOM     24  S   UNL     1       2.859   7.813  18.406  0.00  0.00    +0.000 S 
BRANCH  24  25
ATOM     25  C   UNL     1       2.256   6.201  18.870  0.00  0.00    +0.000 A 
ATOM     26  C   UNL     1       1.981   5.230  17.901  0.00  0.00    +0.000 A 
ATOM     27  C   UNL     1       1.488   3.979  18.275  0.00  0.00    +0.000 A 
ATOM     28  C   UNL     1       1.282   3.686  19.621  0.00  0.00    +0.000 A 
ATOM     29  C   UNL     1       1.577   4.639  20.595  0.00  0.00    +0.000 A 
ATOM     30  C   UNL     1       2.068   5.892  20.221  0.00  0.00    +0.000 A 
ENDBRANCH  24  25
ENDBRANCH  12  24
TORSDOF 3
ENDMDL
MODEL 4
REMARK VINA RESULT:      -8.1      0.660      1.175
REMARK  Name = 
REMARK  3 active torsions:
REMARK  status: ('A' for Active; 'I' for Inactive)
REMARK    1  A    between atoms: C_8  and  C_9
REMARK    2  A    between atoms: C_19  and  S_20
REMARK    3  A    between atoms: S_20  and  C_21
REMARK                            x       y       z     vdW  Elec       q    Type
REMARK                         _______ _______ _______ _____ _____    ______ ____
ROOT
ATOM      1  N   UNL     1      -2.703   9.863  15.613  0.00  0.00    +0.000 N 
ATOM      2  C   UNL     1      -3.205  10.686  16.603  0.00  0.00    +0.000 A 
ATOM      3  N   UNL     1      -2.405  10.943  17.618  0.00  0.00    +0.000 NA
ATOM      4  C   UNL     1      -2.886  11.697  18.596  0.00  0.00    +0.000 A 
ATOM      5  N   UNL     1      -2.134  11.953  19.742  0.00  0.00    +0.000 N 
ATOM      6  C   UNL     1      -1.075  11.214  20.132  0.00  0.00    +0.000 A 
ATOM      7  N   UNL     1      -0.361  10.414  19.373  0.00  0.00    +0.000 NA
ATOM      8  C   UNL     1       0.580   9.721  20.100  0.00  0.00    +0.000 A 
ATOM      9  C   UNL     1       0.615  10.039  21.441  0.00  0.00    +0.000 A 
ATOM     10  S   UNL     1      -0.559  11.245  21.782  0.00  0.00    +0.000 S 
ATOM     11  N   UNL     1      -4.106  12.217  18.575  0.00  0.00    +0.000 NA
ATOM     12  C   UNL     1      -4.833  11.895  17.504  0.00  0.00    +0.000 A 
ATOM     13  N   UNL     1      -4.444  11.112  16.501  0.00  0.00    +0.000 NA
ATOM     14  H   UNL     1      -1.935   9.321  15.993  0.00  0.00    +0.000 HD
ATOM     15  H   UNL     1      -3.444   9.351  15.157  0.00  0.00    +0.000 HD
ATOM     16  H   UNL     1      -2.676  12.459  20.423  0.00  0.00    +0.000 HD
ENDROOT
BRANCH   8  17
ATOM     17  C   UNL     1       1.450   8.759  19.440  0.00  0.00    +0.000 A 
ATOM     18  C   UNL     1       1.816   7.588  20.125  0.00  0.00    +0.000 A 
ATOM     19  C   UNL     1       2.646   6.638  19.525  0.00  0.00    +0.000 A 
ATOM     20  C   UNL     1       3.129   6.863  18.239  0.00  0.00    +0.000 A 
ATOM     21 CL   UNL     1       4.147   5.695  17.491  0.00  0.00    +0.000 Cl
ATOM     22  C   UNL     1       2.796   8.031  17.553  0.00  0.00    +0.000 A 
ATOM     23  C   UNL     1       1.958   8.978  18.153  0.00  0.00    +0.000 A 
ENDBRANCH   8  17
BRANCH  12  24
ATOM     24  S   UNL     1      -6.491  12.537  17.434  0.00  0.00    +0.000 S 
BRANCH  24  25
ATOM     25  C   UNL     1      -7.058  12.094  19.065  0.00  0.00    +0.000 A 
ATOM     26  C   UNL     1      -7.374  13.079  20.007  0.00  0.00    +0.000 A 
ATOM     27  C   UNL     1      -7.795  12.719  21.289  0.00  0.00    +0.000 A 
ATOM     28  C   UNL     1      -7.917  11.374  21.631  0.00  0.00    +0.000 A 
ATOM     29  C   UNL     1      -7.627  10.387  20.689  0.00  0.00    +0.000 A 
ATOM     30  C   UNL     1      -7.203  10.746  19.408  0.00  0.00    +0.000 A 
ENDBRANCH  24  25
ENDBRANCH  12  24
TORSDOF 3
ENDMDL
MODEL 5
REMARK VINA RESULT:      -8.1      3.632      8.721
REMARK  Name = 
REMARK  3 active torsions:
REMARK  status: ('A' for Active; 'I' for Inactive)
REMARK    1  A    between atoms: C_8  and  C_9
REMARK    2  A    between atoms: C_19  and  S_20
REMARK    3  A    between atoms: S_20  and  C_21
REMARK                            x       y       z     vdW  Elec       q    Type
REMARK                         _______ _______ _______ _____ _____    ______ ____
ROOT
ATOM      1  N   UNL     1      -0.059  10.004  21.679  0.00  0.00    +0.000 N 
ATOM      2  C   UNL     1       0.252   9.768  20.354  0.00  0.00    +0.000 A 
ATOM      3  N   UNL     1      -0.538  10.320  19.456  0.00  0.00    +0.000 NA
ATOM      4  C   UNL     1      -0.277  10.070  18.180  0.00  0.00    +0.000 A 
ATOM      5  N   UNL     1      -1.109  10.550  17.169  0.00  0.00    +0.000 N 
ATOM      6  C   UNL     1      -2.378  10.963  17.367  0.00  0.00    +0.000 A 
ATOM      7  N   UNL     1      -2.908  11.332  18.510  0.00  0.00    +0.000 NA
ATOM      8  C   UNL     1      -4.256  11.589  18.392  0.00  0.00    +0.000 A 
ATOM      9  C   UNL     1      -4.752  11.460  17.112  0.00  0.00    +0.000 A 
ATOM     10  S   UNL     1      -3.487  11.014  16.041  0.00  0.00    +0.000 S 
ATOM     11  N   UNL     1       0.746   9.325  17.783  0.00  0.00    +0.000 NA
ATOM     12  C   UNL     1       1.482   8.814  18.772  0.00  0.00    +0.000 A 
ATOM     13  N   UNL     1       1.266   8.980  20.074  0.00  0.00    +0.000 NA
ATOM     14  H   UNL     1      -1.034  10.277  21.745  0.00  0.00    +0.000 HD
ATOM     15  H   UNL     1       0.244   9.239  22.264  0.00  0.00    +0.000 HD
ATOM     16  H   UNL     1      -0.827  10.194  16.270  0.00  0.00    +0.000 HD
ENDROOT
BRANCH   8  17
ATOM     17  C   UNL     1      -5.030  11.982  19.560  0.00  0.00    +0.000 A 
ATOM     18  C   UNL     1      -4.403  12.727  20.573  0.00  0.00    +0.000 A 
ATOM     19  C   UNL     1      -5.111  13.128  21.709  0.00  0.00    +0.000 A 
ATOM     20  C   UNL     1      -6.449  12.771  21.844  0.00  0.00    +0.000 A 
ATOM     21 CL   UNL     1      -7.330  13.267  23.237  0.00  0.00    +0.000 Cl
ATOM     22  C   UNL     1      -7.081  12.012  20.860  0.00  0.00    +0.000 A 
ATOM     23  C   UNL     1      -6.372  11.617  19.720  0.00  0.00    +0.000 A 
ENDBRANCH   8  17
BRANCH  12  24
ATOM     24  S   UNL     1       2.851   7.780  18.303  0.00  0.00    +0.000 S 
BRANCH  24  25
ATOM     25  C   UNL     1       2.240   6.198  18.852  0.00  0.00    +0.000 A 
ATOM     26  C   UNL     1       2.052   5.933  20.213  0.00  0.00    +0.000 A 
ATOM     27  C   UNL     1       1.594   4.683  20.632  0.00  0.00    +0.000 A 
ATOM     28  C   UNL     1       1.307   3.695  19.692  0.00  0.00    +0.000 A 
ATOM     29  C   UNL     1       1.468   3.959  18.333  0.00  0.00    +0.000 A 
ATOM     30  C   UNL     1       1.929   5.209  17.913  0.00  0.00    +0.000 A 
ENDBRANCH  24  25
ENDBRANCH  12  24
TORSDOF 3
ENDMDL
MODEL 6
REMARK VINA RESULT:      -7.9      3.828      8.648
REMARK  Name = 
REMARK  3 active torsions:
REMARK  status: ('A' for Active; 'I' for Inactive)
REMARK    1  A    between atoms: C_8  and  C_9
REMARK    2  A    between atoms: C_19  and  S_20
REMARK    3  A    between atoms: S_20  and  C_21
REMARK                            x       y       z     vdW  Elec       q    Type
REMARK                         _______ _______ _______ _____ _____    ______ ____
ROOT
ATOM      1  N   UNL     1       0.732   9.593  21.926  0.00  0.00    +0.000 N 
ATOM      2  C   UNL     1       0.946   9.289  20.596  0.00  0.00    +0.000 A 
ATOM      3  N   UNL     1       0.204   9.932  19.717  0.00  0.00    +0.000 NA
ATOM      4  C   UNL     1       0.369   9.621  18.439  0.00  0.00    +0.000 A 
ATOM      5  N   UNL     1      -0.430  10.196  17.451  0.00  0.00    +0.000 N 
ATOM      6  C   UNL     1      -1.617  10.792  17.691  0.00  0.00    +0.000 A 
ATOM      7  N   UNL     1      -2.037  11.256  18.845  0.00  0.00    +0.000 NA
ATOM      8  C   UNL     1      -3.337  11.703  18.776  0.00  0.00    +0.000 A 
ATOM      9  C   UNL     1      -3.904  11.622  17.522  0.00  0.00    +0.000 A 
ATOM     10  S   UNL     1      -2.765  10.977  16.411  0.00  0.00    +0.000 S 
ATOM     11  N   UNL     1       1.256   8.729  18.019  0.00  0.00    +0.000 NA
ATOM     12  C   UNL     1       1.954   8.136  18.989  0.00  0.00    +0.000 A 
ATOM     13  N   UNL     1       1.823   8.357  20.295  0.00  0.00    +0.000 NA
ATOM     14  H   UNL     1      -0.189  10.006  22.026  0.00  0.00    +0.000 HD
ATOM     15  H   UNL     1       0.948   8.804  22.518  0.00  0.00    +0.000 HD
ATOM     16  H   UNL     1      -0.242   9.786  16.551  0.00  0.00    +0.000 HD
ENDROOT
BRANCH   8  17
ATOM     17  C   UNL     1      -3.993  12.227  19.965  0.00  0.00    +0.000 A 
ATOM     18  C   UNL     1      -3.203  12.670  21.039  0.00  0.00    +0.000 A 
ATOM     19  C   UNL     1      -3.794  13.184  22.197  0.00  0.00    +0.000 A 
ATOM     20  C   UNL     1      -5.181  13.243  22.291  0.00  0.00    +0.000 A 
ATOM     21 CL   UNL     1      -5.915  13.880  23.711  0.00  0.00    +0.000 Cl
ATOM     22  C   UNL     1      -5.981  12.785  21.245  0.00  0.00    +0.000 A 
ATOM     23  C   UNL     1      -5.388  12.277  20.083  0.00  0.00    +0.000 A 
ENDBRANCH   8  17
BRANCH  12  24
ATOM     24  S   UNL     1       3.139   6.906  18.492  0.00  0.00    +0.000 S 
BRANCH  24  25
ATOM     25  C   UNL     1       2.256   5.428  18.955  0.00  0.00    +0.000 A 
ATOM     26  C   UNL     1       1.913   5.185  20.290  0.00  0.00    +0.000 A 
ATOM     27  C   UNL     1       1.242   4.014  20.644  0.00  0.00    +0.000 A 
ATOM     28  C   UNL     1       0.896   3.086  19.664  0.00  0.00    +0.000 A 
ATOM     29  C   UNL     1       1.212   3.332  18.328  0.00  0.00    +0.000 A 
ATOM     30  C   UNL     1       1.886   4.503  17.974  0.00  0.00    +0.000 A 
ENDBRANCH  24  25
ENDBRANCH  12  24
TORSDOF 3
ENDMDL
MODEL 7
REMARK VINA RESULT:      -7.8      2.900      4.719
REMARK  Name = 
REMARK  3 active torsions:
REMARK  status: ('A' for Active; 'I' for Inactive)
REMARK    1  A    between atoms: C_8  and  C_9
REMARK    2  A    between atoms: C_19  and  S_20
REMARK    3  A    between atoms: S_20  and  C_21
REMARK                            x       y       z     vdW  Elec       q    Type
REMARK                         _______ _______ _______ _____ _____    ______ ____
ROOT
ATOM      1  N   UNL     1       2.262  10.816  17.448  0.00  0.00    +0.000 N 
ATOM      2  C   UNL     1       1.532  10.465  18.567  0.00  0.00    +0.000 A 
ATOM      3  N   UNL     1       1.843   9.319  19.138  0.00  0.00    +0.000 NA
ATOM      4  C   UNL     1       1.125   8.948  20.189  0.00  0.00    +0.000 A 
ATOM      5  N   UNL     1       1.336   7.714  20.804  0.00  0.00    +0.000 N 
ATOM      6  C   UNL     1       1.974   6.679  20.221  0.00  0.00    +0.000 A 
ATOM      7  N   UNL     1       2.795   6.745  19.198  0.00  0.00    +0.000 NA
ATOM      8  C   UNL     1       3.189   5.496  18.775  0.00  0.00    +0.000 A 
ATOM      9  C   UNL     1       2.694   4.453  19.529  0.00  0.00    +0.000 A 
ATOM     10  S   UNL     1       1.718   5.070  20.801  0.00  0.00    +0.000 S 
ATOM     11  N   UNL     1       0.146   9.687  20.694  0.00  0.00    +0.000 NA
ATOM     12  C   UNL     1      -0.087  10.827  20.041  0.00  0.00    +0.000 A 
ATOM     13  N   UNL     1       0.556  11.254  18.957  0.00  0.00    +0.000 NA
ATOM     14  H   UNL     1       2.681   9.982  17.053  0.00  0.00    +0.000 HD
ATOM     15  H   UNL     1       1.715  11.394  16.826  0.00  0.00    +0.000 HD
ATOM     16  H   UNL     1       0.649   7.547  21.522  0.00  0.00    +0.000 HD
ENDROOT
BRANCH   8  17
ATOM     17  C   UNL     1       4.078   5.360  17.630  0.00  0.00    +0.000 A 
ATOM     18  C   UNL     1       4.506   4.077  17.250  0.00  0.00    +0.000 A 
ATOM     19  C   UNL     1       5.356   3.902  16.154  0.00  0.00    +0.000 A 
ATOM     20  C   UNL     1       5.795   5.015  15.442  0.00  0.00    +0.000 A 
ATOM     21 CL   UNL     1       6.836   4.807  14.088  0.00  0.00    +0.000 Cl
ATOM     22  C   UNL     1       5.399   6.297  15.820  0.00  0.00    +0.000 A 
ATOM     23  C   UNL     1       4.542   6.470  16.913  0.00  0.00    +0.000 A 
ENDBRANCH   8  17
BRANCH  12  24
ATOM     24  S   UNL     1      -1.410  11.848  20.652  0.00  0.00    +0.000 S 
BRANCH  24  25
ATOM     25  C   UNL     1      -2.631  11.553  19.388  0.00  0.00    +0.000 A 
ATOM     26  C   UNL     1      -3.856  12.229  19.401  0.00  0.00    +0.000 A 
ATOM     27  C   UNL     1      -4.814  11.972  18.418  0.00  0.00    +0.000 A 
ATOM     28  C   UNL     1      -4.546  11.050  17.408  0.00  0.00    +0.000 A 
ATOM     29  C   UNL     1      -3.317  10.391  17.374  0.00  0.00    +0.000 A 
ATOM     30  C   UNL     1      -2.361  10.645  18.359  0.00  0.00    +0.000 A 
ENDBRANCH  24  25
ENDBRANCH  12  24
TORSDOF 3
ENDMDL
MODEL 8
REMARK VINA RESULT:      -7.5      4.046      8.671
REMARK  Name = 
REMARK  3 active torsions:
REMARK  status: ('A' for Active; 'I' for Inactive)
REMARK    1  A    between atoms: C_8  and  C_9
REMARK    2  A    between atoms: C_19  and  S_20
REMARK    3  A    between atoms: S_20  and  C_21
REMARK                            x       y       z     vdW  Elec       q    Type
REMARK                         _______ _______ _______ _____ _____    ______ ____
ROOT
ATOM      1  N   UNL     1       1.651   8.425  21.874  0.00  0.00    +0.000 N 
ATOM      2  C   UNL     1       1.721   8.344  20.497  0.00  0.00    +0.000 A 
ATOM      3  N   UNL     1       1.046   9.249  19.819  0.00  0.00    +0.000 NA
ATOM      4  C   UNL     1       1.070   9.161  18.496  0.00  0.00    +0.000 A 
ATOM      5  N   UNL     1       0.320  10.031  17.704  0.00  0.00    +0.000 N 
ATOM      6  C   UNL     1      -0.726  10.753  18.157  0.00  0.00    +0.000 A 
ATOM      7  N   UNL     1      -0.982  11.054  19.409  0.00  0.00    +0.000 NA
ATOM      8  C   UNL     1      -2.186  11.707  19.544  0.00  0.00    +0.000 A 
ATOM      9  C   UNL     1      -2.839  11.953  18.355  0.00  0.00    +0.000 A 
ATOM     10  S   UNL     1      -1.906  11.354  17.045  0.00  0.00    +0.000 S 
ATOM     11  N   UNL     1       1.758   8.233  17.845  0.00  0.00    +0.000 NA
ATOM     12  C   UNL     1       2.405   7.366  18.626  0.00  0.00    +0.000 A 
ATOM     13  N   UNL     1       2.400   7.357  19.956  0.00  0.00    +0.000 NA
ATOM     14  H   UNL     1       0.824   8.953  22.132  0.00  0.00    +0.000 HD
ATOM     15  H   UNL     1       1.764   7.515  22.297  0.00  0.00    +0.000 HD
ATOM     16  H   UNL     1       0.374   9.771  16.733  0.00  0.00    +0.000 HD
ENDROOT
BRANCH   8  17
ATOM     17  C   UNL     1      -2.661  12.098  20.863  0.00  0.00    +0.000 A 
ATOM     18  C   UNL     1      -1.827  11.894  21.975  0.00  0.00    +0.000 A 
ATOM     19  C   UNL     1      -2.244  12.259  23.258  0.00  0.00    +0.000 A 
ATOM     20  C   UNL     1      -3.507  12.816  23.437  0.00  0.00    +0.000 A 
ATOM     21 CL   UNL     1      -4.024  13.274  25.013  0.00  0.00    +0.000 Cl
ATOM     22  C   UNL     1      -4.357  13.003  22.348  0.00  0.00    +0.000 A 
ATOM     23  C   UNL     1      -3.935  12.644  21.062  0.00  0.00    +0.000 A 
ENDBRANCH   8  17
BRANCH  12  24
ATOM     24  S   UNL     1       3.322   6.077  17.811  0.00  0.00    +0.000 S 
BRANCH  24  25
ATOM     25  C   UNL     1       2.649   4.652  18.644  0.00  0.00    +0.000 A 
ATOM     26  C   UNL     1       1.472   4.045  18.192  0.00  0.00    +0.000 A 
ATOM     27  C   UNL     1       0.942   2.944  18.866  0.00  0.00    +0.000 A 
ATOM     28  C   UNL     1       1.594   2.433  19.986  0.00  0.00    +0.000 A 
ATOM     29  C   UNL     1       2.781   3.017  20.428  0.00  0.00    +0.000 A 
ATOM     30  C   UNL     1       3.309   4.121  19.756  0.00  0.00    +0.000 A 
ENDBRANCH  24  25
ENDBRANCH  12  24
TORSDOF 3
ENDMDL
MODEL 9
REMARK VINA RESULT:      -7.5      4.313      5.837
REMARK  Name = 
REMARK  3 active torsions:
REMARK  status: ('A' for Active; 'I' for Inactive)
REMARK    1  A    between atoms: C_8  and  C_9
REMARK    2  A    between atoms: C_19  and  S_20
REMARK    3  A    between atoms: S_20  and  C_21
REMARK                            x       y       z     vdW  Elec       q    Type
REMARK                         _______ _______ _______ _____ _____    ______ ____
ROOT
ATOM      1  N   UNL     1       2.114  10.578  17.541  0.00  0.00    +0.000 N 
ATOM      2  C   UNL     1       1.452  10.204  18.694  0.00  0.00    +0.000 A 
ATOM      3  N   UNL     1       1.829   9.070  19.249  0.00  0.00    +0.000 NA
ATOM      4  C   UNL     1       1.175   8.677  20.333  0.00  0.00    +0.000 A 
ATOM      5  N   UNL     1       1.457   7.452  20.937  0.00  0.00    +0.000 N 
ATOM      6  C   UNL     1       2.101   6.437  20.323  0.00  0.00    +0.000 A 
ATOM      7  N   UNL     1       2.868   6.530  19.262  0.00  0.00    +0.000 NA
ATOM      8  C   UNL     1       3.283   5.294  18.819  0.00  0.00    +0.000 A 
ATOM      9  C   UNL     1       2.860   4.236  19.597  0.00  0.00    +0.000 A 
ATOM     10  S   UNL     1       1.928   4.821  20.914  0.00  0.00    +0.000 S 
ATOM     11  N   UNL     1       0.198   9.383  20.886  0.00  0.00    +0.000 NA
ATOM     12  C   UNL     1      -0.105  10.514  20.245  0.00  0.00    +0.000 A 
ATOM     13  N   UNL     1       0.470  10.960  19.132  0.00  0.00    +0.000 NA
ATOM     14  H   UNL     1       2.541   9.758  17.125  0.00  0.00    +0.000 HD
ATOM     15  H   UNL     1       1.518  11.136  16.946  0.00  0.00    +0.000 HD
ATOM     16  H   UNL     1       0.813   7.263  21.687  0.00  0.00    +0.000 HD
ENDROOT
BRANCH   8  17
ATOM     17  C   UNL     1       4.119   5.186  17.632  0.00  0.00    +0.000 A 
ATOM     18  C   UNL     1       4.554   3.916  17.220  0.00  0.00    +0.000 A 
ATOM     19  C   UNL     1       5.355   3.768  16.084  0.00  0.00    +0.000 A 
ATOM     20  C   UNL     1       5.737   4.896  15.362  0.00  0.00    +0.000 A 
ATOM     21 CL   UNL     1       6.716   4.721  13.958  0.00  0.00    +0.000 Cl
ATOM     22  C   UNL     1       5.333   6.166  15.771  0.00  0.00    +0.000 A 
ATOM     23  C   UNL     1       4.526   6.311  16.905  0.00  0.00    +0.000 A 
ENDBRANCH   8  17
BRANCH  12  24
ATOM     24  S   UNL     1      -1.430  11.491  20.921  0.00  0.00    +0.000 S 
BRANCH  24  25
ATOM     25  C   UNL     1      -0.688  13.109  20.835  0.00  0.00    +0.000 A 
ATOM     26  C   UNL     1      -1.078  14.027  19.854  0.00  0.00    +0.000 A 
ATOM     27  C   UNL     1      -0.474  15.284  19.783  0.00  0.00    +0.000 A 
ATOM     28  C   UNL     1       0.513  15.635  20.702  0.00  0.00    +0.000 A 
ATOM     29  C   UNL     1       0.890  14.734  21.698  0.00  0.00    +0.000 A 
ATOM     30  C   UNL     1       0.288  13.477  21.767  0.00  0.00    +0.000 A 
ENDBRANCH  24  25
ENDBRANCH  12  24
TORSDOF 3
ENDMDL
