MODEL 1
REMARK VINA RESULT:      -7.2      0.000      0.000
REMARK  Name = 
REMARK  16 active torsions:
REMARK  status: ('A' for Active; 'I' for Inactive)
REMARK    1  A    between atoms: C_1  and  C_2
REMARK    2  A    between atoms: C_2  and  O_3
REMARK    3  A    between atoms: O_3  and  C_4
REMARK    4  A    between atoms: C_4  and  C_6
REMARK    5  A    between atoms: C_6  and  C_7
REMARK    6  A    between atoms: C_7  and  N_8
REMARK    7  A    between atoms: C_9  and  C_11
REMARK    8  A    between atoms: N_13  and  C_14
REMARK    9  A    between atoms: C_18  and  C_19
REMARK   10  A    between atoms: C_20  and  C_21
REMARK   11  A    between atoms: C_23  and  O_24
REMARK   12  A    between atoms: O_24  and  C_25
REMARK   13  A    between atoms: C_26  and  O_27
REMARK   14  A    between atoms: O_27  and  C_28
REMARK   15  A    between atoms: C_29  and  O_30
REMARK   16  A    between atoms: O_30  and  C_31
REMARK                            x       y       z     vdW  Elec       q    Type
REMARK                         _______ _______ _______ _____ _____    ______ ____
ROOT
ATOM      1  C   UNL     1       2.943   4.247  18.346  0.00  0.00    +0.000 A 
ATOM      2  C   UNL     1       2.674   3.446  19.450  0.00  0.00    +0.000 A 
ATOM      3  N   UNL     1       2.224   4.245  20.466  0.00  0.00    +0.000 N 
ATOM      4  C   UNL     1       1.968   3.794  21.817  0.00  0.00    +0.000 C 
ATOM      5  C   UNL     1       2.112   5.548  20.039  0.00  0.00    +0.000 A 
ATOM      6  C   UNL     1       1.624   6.688  20.694  0.00  0.00    +0.000 A 
ATOM      7  C   UNL     1       1.716   7.917  20.034  0.00  0.00    +0.000 A 
ATOM      8  C   UNL     1       2.294   8.011  18.769  0.00  0.00    +0.000 A 
ATOM      9  C   UNL     1       2.727   6.854  18.105  0.00  0.00    +0.000 A 
ATOM     10  C   UNL     1       2.624   5.593  18.739  0.00  0.00    +0.000 A 
ENDROOT
BRANCH   1  12
ATOM     11  N   UNL     1       4.670   4.316  16.671  0.00  0.00    +0.000 N 
ATOM     12  C   UNL     1       3.437   3.809  17.036  0.00  0.00    +0.000 C 
ATOM     13  O   UNL     1       2.821   3.026  16.323  0.00  0.00    +0.000 OA
ATOM     14  H   UNL     1       5.163   4.926  17.303  0.00  0.00    +0.000 HD
BRANCH  11  15
ATOM     15  C   UNL     1       5.349   3.882  15.464  0.00  0.00    +0.000 C 
BRANCH  15  16
ATOM     16  C   UNL     1       6.837   4.180  15.511  0.00  0.00    +0.000 C 
BRANCH  16  17
ATOM     17  C   UNL     1       7.192   4.872  16.798  0.00  0.00    +0.000 C 
ATOM     18  O   UNL     1       7.206   4.335  17.896  0.00  0.00    +0.000 OA
BRANCH  17  19
ATOM     19  O   UNL     1       7.354   6.205  16.568  0.00  0.00    +0.000 OA
BRANCH  19  21
ATOM     20  C   UNL     1       7.902   8.264  17.638  0.00  0.00    +0.000 C 
ATOM     21  C   UNL     1       6.966   7.069  17.645  0.00  0.00    +0.000 C 
ENDBRANCH  19  21
ENDBRANCH  17  19
ENDBRANCH  16  17
ENDBRANCH  15  16
ENDBRANCH  11  15
ENDBRANCH   1  12
BRANCH   8  22
ATOM     22  C   UNL     1       2.555   9.334  18.200  0.00  0.00    +0.000 C 
ATOM     23  C   UNL     1       1.687  10.333  17.998  0.00  0.00    +0.000 C 
BRANCH  23  24
ATOM     24  C   UNL     1       0.256  10.373  18.299  0.00  0.00    +0.000 A 
ATOM     25  C   UNL     1      -0.206  11.061  19.418  0.00  0.00    +0.000 A 
ATOM     26  C   UNL     1      -1.578  11.284  19.591  0.00  0.00    +0.000 A 
ATOM     27  C   UNL     1      -2.505  10.780  18.647  0.00  0.00    +0.000 A 
ATOM     28  C   UNL     1      -2.039  10.030  17.547  0.00  0.00    +0.000 A 
ATOM     29  C   UNL     1      -0.658   9.838  17.388  0.00  0.00    +0.000 A 
BRANCH  26  30
ATOM     30  O   UNL     1      -2.091  12.005  20.646  0.00  0.00    +0.000 OA
ATOM     31  C   UNL     1      -1.324  11.991  21.846  0.00  0.00    +0.000 C 
ENDBRANCH  26  30
BRANCH  27  32
ATOM     32  O   UNL     1      -3.832  11.021  18.927  0.00  0.00    +0.000 OA
ATOM     33  C   UNL     1      -4.496  11.951  18.079  0.00  0.00    +0.000 C 
ENDBRANCH  27  32
BRANCH  28  34
ATOM     34  O   UNL     1      -2.963   9.519  16.674  0.00  0.00    +0.000 OA
ATOM     35  C   UNL     1      -2.892   9.920  15.311  0.00  0.00    +0.000 C 
ENDBRANCH  28  34
ENDBRANCH  23  24
ENDBRANCH   8  22
TORSDOF 11
ENDMDL
MODEL 2
REMARK VINA RESULT:      -7.0      0.981      1.209
REMARK  Name = 
REMARK  16 active torsions:
REMARK  status: ('A' for Active; 'I' for Inactive)
REMARK    1  A    between atoms: C_1  and  C_2
REMARK    2  A    between atoms: C_2  and  O_3
REMARK    3  A    between atoms: O_3  and  C_4
REMARK    4  A    between atoms: C_4  and  C_6
REMARK    5  A    between atoms: C_6  and  C_7
REMARK    6  A    between atoms: C_7  and  N_8
REMARK    7  A    between atoms: C_9  and  C_11
REMARK    8  A    between atoms: N_13  and  C_14
REMARK    9  A    between atoms: C_18  and  C_19
REMARK   10  A    between atoms: C_20  and  C_21
REMARK   11  A    between atoms: C_23  and  O_24
REMARK   12  A    between atoms: O_24  and  C_25
REMARK   13  A    between atoms: C_26  and  O_27
REMARK   14  A    between atoms: O_27  and  C_28
REMARK   15  A    between atoms: C_29  and  O_30
REMARK   16  A    between atoms: O_30  and  C_31
REMARK                            x       y       z     vdW  Elec       q    Type
REMARK                         _______ _______ _______ _____ _____    ______ ____
ROOT
ATOM      1  C   UNL     1       3.017   4.115  18.324  0.00  0.00    +0.000 A 
ATOM      2  C   UNL     1       2.741   3.354  19.453  0.00  0.00    +0.000 A 
ATOM      3  N   UNL     1       2.292   4.188  20.440  0.00  0.00    +0.000 N 
ATOM      4  C   UNL     1       2.029   3.785  21.805  0.00  0.00    +0.000 C 
ATOM      5  C   UNL     1       2.188   5.477  19.969  0.00  0.00    +0.000 A 
ATOM      6  C   UNL     1       1.706   6.641  20.585  0.00  0.00    +0.000 A 
ATOM      7  C   UNL     1       1.806   7.847  19.884  0.00  0.00    +0.000 A 
ATOM      8  C   UNL     1       2.389   7.896  18.619  0.00  0.00    +0.000 A 
ATOM      9  C   UNL     1       2.817   6.715  17.995  0.00  0.00    +0.000 A 
ATOM     10  C   UNL     1       2.705   5.475  18.670  0.00  0.00    +0.000 A 
ENDROOT
BRANCH   1  12
ATOM     11  N   UNL     1       4.822   3.965  16.738  0.00  0.00    +0.000 N 
ATOM     12  C   UNL     1       3.513   3.631  17.030  0.00  0.00    +0.000 C 
ATOM     13  O   UNL     1       2.832   2.953  16.271  0.00  0.00    +0.000 OA
ATOM     14  H   UNL     1       5.362   4.490  17.407  0.00  0.00    +0.000 HD
BRANCH  11  15
ATOM     15  C   UNL     1       5.496   3.457  15.557  0.00  0.00    +0.000 C 
BRANCH  15  16
ATOM     16  C   UNL     1       6.153   4.567  14.756  0.00  0.00    +0.000 C 
BRANCH  16  17
ATOM     17  C   UNL     1       6.160   5.847  15.545  0.00  0.00    +0.000 C 
ATOM     18  O   UNL     1       5.270   6.686  15.519  0.00  0.00    +0.000 OA
BRANCH  17  19
ATOM     19  O   UNL     1       7.360   5.988  16.174  0.00  0.00    +0.000 OA
BRANCH  19  21
ATOM     20  C   UNL     1       7.419   5.791  18.549  0.00  0.00    +0.000 C 
ATOM     21  C   UNL     1       7.336   6.759  17.383  0.00  0.00    +0.000 C 
ENDBRANCH  19  21
ENDBRANCH  17  19
ENDBRANCH  16  17
ENDBRANCH  15  16
ENDBRANCH  11  15
ENDBRANCH   1  12
BRANCH   8  22
ATOM     22  C   UNL     1       2.659   9.197  18.007  0.00  0.00    +0.000 C 
ATOM     23  C   UNL     1       1.886  10.290  18.013  0.00  0.00    +0.000 C 
BRANCH  23  24
ATOM     24  C   UNL     1       0.576  10.478  18.639  0.00  0.00    +0.000 A 
ATOM     25  C   UNL     1       0.477  11.087  19.888  0.00  0.00    +0.000 A 
ATOM     26  C   UNL     1      -0.775  11.462  20.390  0.00  0.00    +0.000 A 
ATOM     27  C   UNL     1      -1.949  11.192  19.648  0.00  0.00    +0.000 A 
ATOM     28  C   UNL     1      -1.851  10.520  18.411  0.00  0.00    +0.000 A 
ATOM     29  C   UNL     1      -0.583  10.172  17.922  0.00  0.00    +0.000 A 
BRANCH  26  30
ATOM     30  O   UNL     1      -0.933  12.118  21.591  0.00  0.00    +0.000 OA
ATOM     31  C   UNL     1      -0.808  11.317  22.763  0.00  0.00    +0.000 C 
ENDBRANCH  26  30
BRANCH  27  32
ATOM     32  O   UNL     1      -3.133  11.567  20.245  0.00  0.00    +0.000 OA
ATOM     33  C   UNL     1      -3.613  12.869  19.929  0.00  0.00    +0.000 C 
ENDBRANCH  27  32
BRANCH  28  34
ATOM     34  O   UNL     1      -3.009  10.234  17.736  0.00  0.00    +0.000 OA
ATOM     35  C   UNL     1      -3.386  11.085  16.661  0.00  0.00    +0.000 C 
ENDBRANCH  28  34
ENDBRANCH  23  24
ENDBRANCH   8  22
TORSDOF 11
ENDMDL
MODEL 3
REMARK VINA RESULT:      -6.7      2.859      5.620
REMARK  Name = 
REMARK  16 active torsions:
REMARK  status: ('A' for Active; 'I' for Inactive)
REMARK    1  A    between atoms: C_1  and  C_2
REMARK    2  A    between atoms: C_2  and  O_3
REMARK    3  A    between atoms: O_3  and  C_4
REMARK    4  A    between atoms: C_4  and  C_6
REMARK    5  A    between atoms: C_6  and  C_7
REMARK    6  A    between atoms: C_7  and  N_8
REMARK    7  A    between atoms: C_9  and  C_11
REMARK    8  A    between atoms: N_13  and  C_14
REMARK    9  A    between atoms: C_18  and  C_19
REMARK   10  A    between atoms: C_20  and  C_21
REMARK   11  A    between atoms: C_23  and  O_24
REMARK   12  A    between atoms: O_24  and  C_25
REMARK   13  A    between atoms: C_26  and  O_27
REMARK   14  A    between atoms: O_27  and  C_28
REMARK   15  A    between atoms: C_29  and  O_30
REMARK   16  A    between atoms: O_30  and  C_31
REMARK                            x       y       z     vdW  Elec       q    Type
REMARK                         _______ _______ _______ _____ _____    ______ ____
ROOT
ATOM      1  C   UNL     1       6.811   5.514  17.599  0.00  0.00    +0.000 A 
ATOM      2  C   UNL     1       7.050   5.091  16.297  0.00  0.00    +0.000 A 
ATOM      3  N   UNL     1       5.964   4.378  15.866  0.00  0.00    +0.000 N 
ATOM      4  C   UNL     1       5.893   3.663  14.610  0.00  0.00    +0.000 C 
ATOM      5  C   UNL     1       4.976   4.383  16.824  0.00  0.00    +0.000 A 
ATOM      6  C   UNL     1       3.675   3.860  16.799  0.00  0.00    +0.000 A 
ATOM      7  C   UNL     1       2.913   3.936  17.969  0.00  0.00    +0.000 A 
ATOM      8  C   UNL     1       3.437   4.496  19.133  0.00  0.00    +0.000 A 
ATOM      9  C   UNL     1       4.720   5.063  19.125  0.00  0.00    +0.000 A 
ATOM     10  C   UNL     1       5.506   5.023  17.948  0.00  0.00    +0.000 A 
ENDROOT
BRANCH   1  12
ATOM     11  N   UNL     1       7.950   7.597  17.997  0.00  0.00    +0.000 N 
ATOM     12  C   UNL     1       7.704   6.313  18.447  0.00  0.00    +0.000 C 
ATOM     13  O   UNL     1       8.176   5.892  19.495  0.00  0.00    +0.000 OA
ATOM     14  H   UNL     1       7.510   7.919  17.150  0.00  0.00    +0.000 HD
BRANCH  11  15
ATOM     15  C   UNL     1       8.709   8.551  18.784  0.00  0.00    +0.000 C 
BRANCH  15  16
ATOM     16  C   UNL     1       8.663   9.946  18.186  0.00  0.00    +0.000 C 
BRANCH  16  17
ATOM     17  C   UNL     1       9.218  10.950  19.158  0.00  0.00    +0.000 C 
ATOM     18  O   UNL     1       9.580  10.691  20.297  0.00  0.00    +0.000 OA
BRANCH  17  19
ATOM     19  O   UNL     1       9.124  12.200  18.625  0.00  0.00    +0.000 OA
BRANCH  19  21
ATOM     20  C   UNL     1      11.402  11.968  17.959  0.00  0.00    +0.000 C 
ATOM     21  C   UNL     1      10.359  12.920  18.517  0.00  0.00    +0.000 C 
ENDBRANCH  19  21
ENDBRANCH  17  19
ENDBRANCH  16  17
ENDBRANCH  15  16
ENDBRANCH  11  15
ENDBRANCH   1  12
BRANCH   8  22
ATOM     22  C   UNL     1       2.689   4.374  20.384  0.00  0.00    +0.000 C 
ATOM     23  C   UNL     1       1.988   5.319  21.024  0.00  0.00    +0.000 C 
BRANCH  23  24
ATOM     24  C   UNL     1       1.776   6.715  20.639  0.00  0.00    +0.000 A 
ATOM     25  C   UNL     1       2.284   7.195  19.435  0.00  0.00    +0.000 A 
ATOM     26  C   UNL     1       1.903   8.458  18.963  0.00  0.00    +0.000 A 
ATOM     27  C   UNL     1       1.030   9.268  19.728  0.00  0.00    +0.000 A 
ATOM     28  C   UNL     1       0.566   8.805  20.977  0.00  0.00    +0.000 A 
ATOM     29  C   UNL     1       0.947   7.529  21.416  0.00  0.00    +0.000 A 
BRANCH  26  30
ATOM     30  O   UNL     1       2.326   8.963  17.754  0.00  0.00    +0.000 OA
ATOM     31  C   UNL     1       3.337   8.217  17.083  0.00  0.00    +0.000 C 
ENDBRANCH  26  30
BRANCH  27  32
ATOM     32  O   UNL     1       0.746  10.507  19.195  0.00  0.00    +0.000 OA
ATOM     33  C   UNL     1      -0.496  10.629  18.511  0.00  0.00    +0.000 C 
ENDBRANCH  27  32
BRANCH  28  34
ATOM     34  O   UNL     1      -0.244   9.630  21.713  0.00  0.00    +0.000 OA
ATOM     35  C   UNL     1      -0.135   9.588  23.130  0.00  0.00    +0.000 C 
ENDBRANCH  28  34
ENDBRANCH  23  24
ENDBRANCH   8  22
TORSDOF 11
ENDMDL
MODEL 4
REMARK VINA RESULT:      -6.6      1.290      1.799
REMARK  Name = 
REMARK  16 active torsions:
REMARK  status: ('A' for Active; 'I' for Inactive)
REMARK    1  A    between atoms: C_1  and  C_2
REMARK    2  A    between atoms: C_2  and  O_3
REMARK    3  A    between atoms: O_3  and  C_4
REMARK    4  A    between atoms: C_4  and  C_6
REMARK    5  A    between atoms: C_6  and  C_7
REMARK    6  A    between atoms: C_7  and  N_8
REMARK    7  A    between atoms: C_9  and  C_11
REMARK    8  A    between atoms: N_13  and  C_14
REMARK    9  A    between atoms: C_18  and  C_19
REMARK   10  A    between atoms: C_20  and  C_21
REMARK   11  A    between atoms: C_23  and  O_24
REMARK   12  A    between atoms: O_24  and  C_25
REMARK   13  A    between atoms: C_26  and  O_27
REMARK   14  A    between atoms: O_27  and  C_28
REMARK   15  A    between atoms: C_29  and  O_30
REMARK   16  A    between atoms: O_30  and  C_31
REMARK                            x       y       z     vdW  Elec       q    Type
REMARK                         _______ _______ _______ _____ _____    ______ ____
ROOT
ATOM      1  C   UNL     1       3.333   3.561  18.697  0.00  0.00    +0.000 A 
ATOM      2  C   UNL     1       2.983   2.900  19.869  0.00  0.00    +0.000 A 
ATOM      3  N   UNL     1       2.407   3.802  20.721  0.00  0.00    +0.000 N 
ATOM      4  C   UNL     1       2.033   3.521  22.090  0.00  0.00    +0.000 C 
ATOM      5  C   UNL     1       2.294   5.032  20.114  0.00  0.00    +0.000 A 
ATOM      6  C   UNL     1       1.706   6.224  20.562  0.00  0.00    +0.000 A 
ATOM      7  C   UNL     1       1.821   7.359  19.754  0.00  0.00    +0.000 A 
ATOM      8  C   UNL     1       2.519   7.315  18.548  0.00  0.00    +0.000 A 
ATOM      9  C   UNL     1       3.055   6.102  18.089  0.00  0.00    +0.000 A 
ATOM     10  C   UNL     1       2.932   4.931  18.874  0.00  0.00    +0.000 A 
ENDROOT
BRANCH   1  12
ATOM     11  N   UNL     1       4.741   3.854  16.766  0.00  0.00    +0.000 N 
ATOM     12  C   UNL     1       3.969   2.980  17.510  0.00  0.00    +0.000 C 
ATOM     13  O   UNL     1       3.856   1.798  17.209  0.00  0.00    +0.000 OA
ATOM     14  H   UNL     1       4.841   4.809  17.071  0.00  0.00    +0.000 HD
BRANCH  11  15
ATOM     15  C   UNL     1       5.533   3.403  15.637  0.00  0.00    +0.000 C 
BRANCH  15  16
ATOM     16  C   UNL     1       6.377   4.523  15.053  0.00  0.00    +0.000 C 
BRANCH  16  17
ATOM     17  C   UNL     1       7.103   5.256  16.148  0.00  0.00    +0.000 C 
ATOM     18  O   UNL     1       7.596   6.369  16.033  0.00  0.00    +0.000 OA
BRANCH  17  19
ATOM     19  O   UNL     1       7.244   4.437  17.227  0.00  0.00    +0.000 OA
BRANCH  19  21
ATOM     20  C   UNL     1       6.590   5.231  19.379  0.00  0.00    +0.000 C 
ATOM     21  C   UNL     1       7.750   5.063  18.414  0.00  0.00    +0.000 C 
ENDBRANCH  19  21
ENDBRANCH  17  19
ENDBRANCH  16  17
ENDBRANCH  15  16
ENDBRANCH  11  15
ENDBRANCH   1  12
BRANCH   8  22
ATOM     22  C   UNL     1       2.790   8.562  17.833  0.00  0.00    +0.000 C 
ATOM     23  C   UNL     1       2.127   9.723  17.915  0.00  0.00    +0.000 C 
BRANCH  23  24
ATOM     24  C   UNL     1       0.967  10.055  18.742  0.00  0.00    +0.000 A 
ATOM     25  C   UNL     1       1.110  10.213  20.118  0.00  0.00    +0.000 A 
ATOM     26  C   UNL     1       0.058  10.739  20.879  0.00  0.00    +0.000 A 
ATOM     27  C   UNL     1      -1.168  11.077  20.259  0.00  0.00    +0.000 A 
ATOM     28  C   UNL     1      -1.332  10.858  18.875  0.00  0.00    +0.000 A 
ATOM     29  C   UNL     1      -0.256  10.348  18.133  0.00  0.00    +0.000 A 
BRANCH  26  30
ATOM     30  O   UNL     1       0.158  10.972  22.233  0.00  0.00    +0.000 OA
ATOM     31  C   UNL     1      -0.059   9.847  23.080  0.00  0.00    +0.000 C 
ENDBRANCH  26  30
BRANCH  27  32
ATOM     32  O   UNL     1      -2.152  11.551  21.100  0.00  0.00    +0.000 OA
ATOM     33  C   UNL     1      -2.343  12.961  21.113  0.00  0.00    +0.000 C 
ENDBRANCH  27  32
BRANCH  28  34
ATOM     34  O   UNL     1      -2.545  11.155  18.311  0.00  0.00    +0.000 OA
ATOM     35  C   UNL     1      -3.298  10.092  17.740  0.00  0.00    +0.000 C 
ENDBRANCH  28  34
ENDBRANCH  23  24
ENDBRANCH   8  22
TORSDOF 11
ENDMDL
MODEL 5
REMARK VINA RESULT:      -6.5      2.896      5.613
REMARK  Name = 
REMARK  16 active torsions:
REMARK  status: ('A' for Active; 'I' for Inactive)
REMARK    1  A    between atoms: C_1  and  C_2
REMARK    2  A    between atoms: C_2  and  O_3
REMARK    3  A    between atoms: O_3  and  C_4
REMARK    4  A    between atoms: C_4  and  C_6
REMARK    5  A    between atoms: C_6  and  C_7
REMARK    6  A    between atoms: C_7  and  N_8
REMARK    7  A    between atoms: C_9  and  C_11
REMARK    8  A    between atoms: N_13  and  C_14
REMARK    9  A    between atoms: C_18  and  C_19
REMARK   10  A    between atoms: C_20  and  C_21
REMARK   11  A    between atoms: C_23  and  O_24
REMARK   12  A    between atoms: O_24  and  C_25
REMARK   13  A    between atoms: C_26  and  O_27
REMARK   14  A    between atoms: O_27  and  C_28
REMARK   15  A    between atoms: C_29  and  O_30
REMARK   16  A    between atoms: O_30  and  C_31
REMARK                            x       y       z     vdW  Elec       q    Type
REMARK                         _______ _______ _______ _____ _____    ______ ____
ROOT
ATOM      1  C   UNL     1       6.795   5.678  17.625  0.00  0.00    +0.000 A 
ATOM      2  C   UNL     1       7.028   5.199  16.341  0.00  0.00    +0.000 A 
ATOM      3  N   UNL     1       5.937   4.475  15.943  0.00  0.00    +0.000 N 
ATOM      4  C   UNL     1       5.859   3.708  14.719  0.00  0.00    +0.000 C 
ATOM      5  C   UNL     1       4.951   4.527  16.902  0.00  0.00    +0.000 A 
ATOM      6  C   UNL     1       3.647   4.011  16.902  0.00  0.00    +0.000 A 
ATOM      7  C   UNL     1       2.888   4.140  18.069  0.00  0.00    +0.000 A 
ATOM      8  C   UNL     1       3.418   4.746  19.208  0.00  0.00    +0.000 A 
ATOM      9  C   UNL     1       4.704   5.305  19.173  0.00  0.00    +0.000 A 
ATOM     10  C   UNL     1       5.487   5.210  17.997  0.00  0.00    +0.000 A 
ENDROOT
BRANCH   1  12
ATOM     11  N   UNL     1       7.920   7.781  17.950  0.00  0.00    +0.000 N 
ATOM     12  C   UNL     1       7.694   6.507  18.437  0.00  0.00    +0.000 C 
ATOM     13  O   UNL     1       8.188   6.117  19.487  0.00  0.00    +0.000 OA
ATOM     14  H   UNL     1       7.462   8.078  17.103  0.00  0.00    +0.000 HD
BRANCH  11  15
ATOM     15  C   UNL     1       8.683   8.762  18.700  0.00  0.00    +0.000 C 
BRANCH  15  16
ATOM     16  C   UNL     1       8.575  10.150  18.094  0.00  0.00    +0.000 C 
BRANCH  16  17
ATOM     17  C   UNL     1       9.782  10.972  18.452  0.00  0.00    +0.000 C 
ATOM     18  O   UNL     1      10.570  11.443  17.643  0.00  0.00    +0.000 OA
BRANCH  17  19
ATOM     19  O   UNL     1       9.935  10.990  19.805  0.00  0.00    +0.000 OA
BRANCH  19  21
ATOM     20  C   UNL     1      10.073  12.820  21.328  0.00  0.00    +0.000 C 
ATOM     21  C   UNL     1       9.137  11.955  20.504  0.00  0.00    +0.000 C 
ENDBRANCH  19  21
ENDBRANCH  17  19
ENDBRANCH  16  17
ENDBRANCH  15  16
ENDBRANCH  11  15
ENDBRANCH   1  12
BRANCH   8  22
ATOM     22  C   UNL     1       2.672   4.682  20.464  0.00  0.00    +0.000 C 
ATOM     23  C   UNL     1       1.960   5.651  21.053  0.00  0.00    +0.000 C 
BRANCH  23  24
ATOM     24  C   UNL     1       1.732   7.022  20.596  0.00  0.00    +0.000 A 
ATOM     25  C   UNL     1       2.183   7.427  19.342  0.00  0.00    +0.000 A 
ATOM     26  C   UNL     1       1.781   8.661  18.814  0.00  0.00    +0.000 A 
ATOM     27  C   UNL     1       0.946   9.519  19.568  0.00  0.00    +0.000 A 
ATOM     28  C   UNL     1       0.541   9.133  20.864  0.00  0.00    +0.000 A 
ATOM     29  C   UNL     1       0.941   7.884  21.360  0.00  0.00    +0.000 A 
BRANCH  26  30
ATOM     30  O   UNL     1       2.148   9.091  17.558  0.00  0.00    +0.000 OA
ATOM     31  C   UNL     1       3.255   8.420  16.964  0.00  0.00    +0.000 C 
ENDBRANCH  26  30
BRANCH  27  32
ATOM     32  O   UNL     1       0.639  10.725  18.976  0.00  0.00    +0.000 OA
ATOM     33  C   UNL     1       1.144  11.889  19.620  0.00  0.00    +0.000 C 
ENDBRANCH  27  32
BRANCH  28  34
ATOM     34  O   UNL     1      -0.233  10.004  21.585  0.00  0.00    +0.000 OA
ATOM     35  C   UNL     1      -0.343   9.799  22.988  0.00  0.00    +0.000 C 
ENDBRANCH  28  34
ENDBRANCH  23  24
ENDBRANCH   8  22
TORSDOF 11
ENDMDL
MODEL 6
REMARK VINA RESULT:      -6.3      4.606      9.338
REMARK  Name = 
REMARK  16 active torsions:
REMARK  status: ('A' for Active; 'I' for Inactive)
REMARK    1  A    between atoms: C_1  and  C_2
REMARK    2  A    between atoms: C_2  and  O_3
REMARK    3  A    between atoms: O_3  and  C_4
REMARK    4  A    between atoms: C_4  and  C_6
REMARK    5  A    between atoms: C_6  and  C_7
REMARK    6  A    between atoms: C_7  and  N_8
REMARK    7  A    between atoms: C_9  and  C_11
REMARK    8  A    between atoms: N_13  and  C_14
REMARK    9  A    between atoms: C_18  and  C_19
REMARK   10  A    between atoms: C_20  and  C_21
REMARK   11  A    between atoms: C_23  and  O_24
REMARK   12  A    between atoms: O_24  and  C_25
REMARK   13  A    between atoms: C_26  and  O_27
REMARK   14  A    between atoms: O_27  and  C_28
REMARK   15  A    between atoms: C_29  and  O_30
REMARK   16  A    between atoms: O_30  and  C_31
REMARK                            x       y       z     vdW  Elec       q    Type
REMARK                         _______ _______ _______ _____ _____    ______ ____
ROOT
ATOM      1  C   UNL     1      -5.152  12.275  18.030  0.00  0.00    +0.000 A 
ATOM      2  C   UNL     1      -5.892  12.819  16.987  0.00  0.00    +0.000 A 
ATOM      3  N   UNL     1      -6.851  13.639  17.516  0.00  0.00    +0.000 N 
ATOM      4  C   UNL     1      -7.900  14.281  16.753  0.00  0.00    +0.000 C 
ATOM      5  C   UNL     1      -6.716  13.716  18.883  0.00  0.00    +0.000 A 
ATOM      6  C   UNL     1      -7.410  14.483  19.831  0.00  0.00    +0.000 A 
ATOM      7  C   UNL     1      -7.113  14.285  21.182  0.00  0.00    +0.000 A 
ATOM      8  C   UNL     1      -6.171  13.338  21.580  0.00  0.00    +0.000 A 
ATOM      9  C   UNL     1      -5.447  12.618  20.619  0.00  0.00    +0.000 A 
ATOM     10  C   UNL     1      -5.708  12.815  19.241  0.00  0.00    +0.000 A 
ENDROOT
BRANCH   1  12
ATOM     11  N   UNL     1      -2.773  11.943  17.881  0.00  0.00    +0.000 N 
ATOM     12  C   UNL     1      -4.020  11.348  17.921  0.00  0.00    +0.000 C 
ATOM     13  O   UNL     1      -4.159  10.132  17.898  0.00  0.00    +0.000 OA
ATOM     14  H   UNL     1      -2.699  12.945  17.943  0.00  0.00    +0.000 HD
BRANCH  11  15
ATOM     15  C   UNL     1      -1.551  11.160  17.900  0.00  0.00    +0.000 C 
BRANCH  15  16
ATOM     16  C   UNL     1      -1.134  10.792  19.314  0.00  0.00    +0.000 C 
BRANCH  16  17
ATOM     17  C   UNL     1       0.295  10.324  19.332  0.00  0.00    +0.000 C 
ATOM     18  O   UNL     1       1.108  10.602  20.203  0.00  0.00    +0.000 OA
BRANCH  17  19
ATOM     19  O   UNL     1       0.575   9.669  18.171  0.00  0.00    +0.000 OA
BRANCH  19  21
ATOM     20  C   UNL     1       2.388   8.145  17.901  0.00  0.00    +0.000 C 
ATOM     21  C   UNL     1       1.964   9.600  17.820  0.00  0.00    +0.000 C 
ENDBRANCH  19  21
ENDBRANCH  17  19
ENDBRANCH  16  17
ENDBRANCH  15  16
ENDBRANCH  11  15
ENDBRANCH   1  12
BRANCH   8  22
ATOM     22  C   UNL     1      -6.035  13.019  23.001  0.00  0.00    +0.000 C 
ATOM     23  C   UNL     1      -4.916  12.973  23.736  0.00  0.00    +0.000 C 
BRANCH  23  24
ATOM     24  C   UNL     1      -3.539  13.237  23.318  0.00  0.00    +0.000 A 
ATOM     25  C   UNL     1      -3.102  14.546  23.134  0.00  0.00    +0.000 A 
ATOM     26  C   UNL     1      -1.740  14.814  22.948  0.00  0.00    +0.000 A 
ATOM     27  C   UNL     1      -0.806  13.752  22.908  0.00  0.00    +0.000 A 
ATOM     28  C   UNL     1      -1.259  12.421  23.034  0.00  0.00    +0.000 A 
ATOM     29  C   UNL     1      -2.626  12.183  23.239  0.00  0.00    +0.000 A 
BRANCH  26  30
ATOM     30  O   UNL     1      -1.240  16.091  22.817  0.00  0.00    +0.000 OA
ATOM     31  C   UNL     1      -1.318  16.916  23.976  0.00  0.00    +0.000 C 
ENDBRANCH  26  30
BRANCH  27  32
ATOM     32  O   UNL     1       0.504  14.117  22.683  0.00  0.00    +0.000 OA
ATOM     33  C   UNL     1       0.967  14.004  21.343  0.00  0.00    +0.000 C 
ENDBRANCH  27  32
BRANCH  28  34
ATOM     34  O   UNL     1      -0.335  11.413  22.949  0.00  0.00    +0.000 OA
ATOM     35  C   UNL     1      -0.782  10.077  23.144  0.00  0.00    +0.000 C 
ENDBRANCH  28  34
ENDBRANCH  23  24
ENDBRANCH   8  22
TORSDOF 11
ENDMDL
MODEL 7
REMARK VINA RESULT:      -6.3      1.145      1.778
REMARK  Name = 
REMARK  16 active torsions:
REMARK  status: ('A' for Active; 'I' for Inactive)
REMARK    1  A    between atoms: C_1  and  C_2
REMARK    2  A    between atoms: C_2  and  O_3
REMARK    3  A    between atoms: O_3  and  C_4
REMARK    4  A    between atoms: C_4  and  C_6
REMARK    5  A    between atoms: C_6  and  C_7
REMARK    6  A    between atoms: C_7  and  N_8
REMARK    7  A    between atoms: C_9  and  C_11
REMARK    8  A    between atoms: N_13  and  C_14
REMARK    9  A    between atoms: C_18  and  C_19
REMARK   10  A    between atoms: C_20  and  C_21
REMARK   11  A    between atoms: C_23  and  O_24
REMARK   12  A    between atoms: O_24  and  C_25
REMARK   13  A    between atoms: C_26  and  O_27
REMARK   14  A    between atoms: O_27  and  C_28
REMARK   15  A    between atoms: C_29  and  O_30
REMARK   16  A    between atoms: O_30  and  C_31
REMARK                            x       y       z     vdW  Elec       q    Type
REMARK                         _______ _______ _______ _____ _____    ______ ____
ROOT
ATOM      1  C   UNL     1       3.382   4.115  18.382  0.00  0.00    +0.000 A 
ATOM      2  C   UNL     1       3.130   3.353  19.517  0.00  0.00    +0.000 A 
ATOM      3  N   UNL     1       2.569   4.162  20.468  0.00  0.00    +0.000 N 
ATOM      4  C   UNL     1       2.289   3.762  21.830  0.00  0.00    +0.000 C 
ATOM      5  C   UNL     1       2.368   5.427  19.964  0.00  0.00    +0.000 A 
ATOM      6  C   UNL     1       1.757   6.553  20.534  0.00  0.00    +0.000 A 
ATOM      7  C   UNL     1       1.776   7.749  19.811  0.00  0.00    +0.000 A 
ATOM      8  C   UNL     1       2.402   7.827  18.567  0.00  0.00    +0.000 A 
ATOM      9  C   UNL     1       2.960   6.679  17.987  0.00  0.00    +0.000 A 
ATOM     10  C   UNL     1       2.934   5.448  18.686  0.00  0.00    +0.000 A 
ENDROOT
BRANCH   1  12
ATOM     11  N   UNL     1       4.632   4.623  16.389  0.00  0.00    +0.000 N 
ATOM     12  C   UNL     1       3.971   3.654  17.120  0.00  0.00    +0.000 C 
ATOM     13  O   UNL     1       3.911   2.489  16.748  0.00  0.00    +0.000 OA
ATOM     14  H   UNL     1       4.693   5.561  16.750  0.00  0.00    +0.000 HD
BRANCH  11  15
ATOM     15  C   UNL     1       5.372   4.299  15.183  0.00  0.00    +0.000 C 
BRANCH  15  16
ATOM     16  C   UNL     1       6.827   3.978  15.478  0.00  0.00    +0.000 C 
BRANCH  16  17
ATOM     17  C   UNL     1       7.294   4.734  16.691  0.00  0.00    +0.000 C 
ATOM     18  O   UNL     1       7.349   4.272  17.822  0.00  0.00    +0.000 OA
BRANCH  17  19
ATOM     19  O   UNL     1       7.508   6.038  16.359  0.00  0.00    +0.000 OA
BRANCH  19  21
ATOM     20  C   UNL     1       6.174   7.629  17.531  0.00  0.00    +0.000 C 
ATOM     21  C   UNL     1       7.534   6.959  17.458  0.00  0.00    +0.000 C 
ENDBRANCH  19  21
ENDBRANCH  17  19
ENDBRANCH  16  17
ENDBRANCH  15  16
ENDBRANCH  11  15
ENDBRANCH   1  12
BRANCH   8  22
ATOM     22  C   UNL     1       2.577   9.136  17.937  0.00  0.00    +0.000 C 
ATOM     23  C   UNL     1       1.874  10.256  18.147  0.00  0.00    +0.000 C 
BRANCH  23  24
ATOM     24  C   UNL     1       0.756  10.472  19.066  0.00  0.00    +0.000 A 
ATOM     25  C   UNL     1       0.940  10.334  20.439  0.00  0.00    +0.000 A 
ATOM     26  C   UNL     1      -0.060  10.747  21.329  0.00  0.00    +0.000 A 
ATOM     27  C   UNL     1      -1.277  11.273  20.835  0.00  0.00    +0.000 A 
ATOM     28  C   UNL     1      -1.486  11.356  19.442  0.00  0.00    +0.000 A 
ATOM     29  C   UNL     1      -0.460  10.953  18.574  0.00  0.00    +0.000 A 
BRANCH  26  30
ATOM     30  O   UNL     1       0.086  10.688  22.697  0.00  0.00    +0.000 OA
ATOM     31  C   UNL     1       0.671   9.497  23.213  0.00  0.00    +0.000 C 
ENDBRANCH  26  30
BRANCH  27  32
ATOM     32  O   UNL     1      -2.210  11.616  21.790  0.00  0.00    +0.000 OA
ATOM     33  C   UNL     1      -2.262  12.991  22.154  0.00  0.00    +0.000 C 
ENDBRANCH  27  32
BRANCH  28  34
ATOM     34  O   UNL     1      -2.691  11.830  18.995  0.00  0.00    +0.000 OA
ATOM     35  C   UNL     1      -3.161  11.382  17.729  0.00  0.00    +0.000 C 
ENDBRANCH  28  34
ENDBRANCH  23  24
ENDBRANCH   8  22
TORSDOF 11
ENDMDL
MODEL 8
REMARK VINA RESULT:      -6.3      1.043      1.706
REMARK  Name = 
REMARK  16 active torsions:
REMARK  status: ('A' for Active; 'I' for Inactive)
REMARK    1  A    between atoms: C_1  and  C_2
REMARK    2  A    between atoms: C_2  and  O_3
REMARK    3  A    between atoms: O_3  and  C_4
REMARK    4  A    between atoms: C_4  and  C_6
REMARK    5  A    between atoms: C_6  and  C_7
REMARK    6  A    between atoms: C_7  and  N_8
REMARK    7  A    between atoms: C_9  and  C_11
REMARK    8  A    between atoms: N_13  and  C_14
REMARK    9  A    between atoms: C_18  and  C_19
REMARK   10  A    between atoms: C_20  and  C_21
REMARK   11  A    between atoms: C_23  and  O_24
REMARK   12  A    between atoms: O_24  and  C_25
REMARK   13  A    between atoms: C_26  and  O_27
REMARK   14  A    between atoms: O_27  and  C_28
REMARK   15  A    between atoms: C_29  and  O_30
REMARK   16  A    between atoms: O_30  and  C_31
REMARK                            x       y       z     vdW  Elec       q    Type
REMARK                         _______ _______ _______ _____ _____    ______ ____
ROOT
ATOM      1  C   UNL     1       3.026   4.312  18.321  0.00  0.00    +0.000 A 
ATOM      2  C   UNL     1       2.807   3.617  19.505  0.00  0.00    +0.000 A 
ATOM      3  N   UNL     1       2.409   4.507  20.464  0.00  0.00    +0.000 N 
ATOM      4  C   UNL     1       2.215   4.182  21.861  0.00  0.00    +0.000 C 
ATOM      5  C   UNL     1       2.280   5.767  19.926  0.00  0.00    +0.000 A 
ATOM      6  C   UNL     1       1.828   6.965  20.498  0.00  0.00    +0.000 A 
ATOM      7  C   UNL     1       1.892   8.129  19.725  0.00  0.00    +0.000 A 
ATOM      8  C   UNL     1       2.410   8.104  18.431  0.00  0.00    +0.000 A 
ATOM      9  C   UNL     1       2.807   6.889  17.855  0.00  0.00    +0.000 A 
ATOM     10  C   UNL     1       2.730   5.690  18.605  0.00  0.00    +0.000 A 
ENDROOT
BRANCH   1  12
ATOM     11  N   UNL     1       4.722   4.125  16.623  0.00  0.00    +0.000 N 
ATOM     12  C   UNL     1       3.456   3.753  17.034  0.00  0.00    +0.000 C 
ATOM     13  O   UNL     1       2.761   2.988  16.379  0.00  0.00    +0.000 OA
ATOM     14  H   UNL     1       5.278   4.725  17.212  0.00  0.00    +0.000 HD
BRANCH  11  15
ATOM     15  C   UNL     1       5.339   3.560  15.437  0.00  0.00    +0.000 C 
BRANCH  15  16
ATOM     16  C   UNL     1       6.515   4.392  14.957  0.00  0.00    +0.000 C 
BRANCH  16  17
ATOM     17  C   UNL     1       7.309   4.900  16.129  0.00  0.00    +0.000 C 
ATOM     18  O   UNL     1       8.012   4.205  16.848  0.00  0.00    +0.000 OA
BRANCH  17  19
ATOM     19  O   UNL     1       7.015   6.213  16.343  0.00  0.00    +0.000 OA
BRANCH  19  21
ATOM     20  C   UNL     1       6.526   6.078  18.673  0.00  0.00    +0.000 C 
ATOM     21  C   UNL     1       7.404   6.732  17.622  0.00  0.00    +0.000 C 
ENDBRANCH  19  21
ENDBRANCH  17  19
ENDBRANCH  16  17
ENDBRANCH  15  16
ENDBRANCH  11  15
ENDBRANCH   1  12
BRANCH   8  22
ATOM     22  C   UNL     1       2.648   9.368  17.733  0.00  0.00    +0.000 C 
ATOM     23  C   UNL     1       2.019  10.538  17.903  0.00  0.00    +0.000 C 
BRANCH  23  24
ATOM     24  C   UNL     1       0.938  10.866  18.834  0.00  0.00    +0.000 A 
ATOM     25  C   UNL     1       1.211  11.572  20.003  0.00  0.00    +0.000 A 
ATOM     26  C   UNL     1       0.161  12.073  20.783  0.00  0.00    +0.000 A 
ATOM     27  C   UNL     1      -1.182  11.833  20.407  0.00  0.00    +0.000 A 
ATOM     28  C   UNL     1      -1.455  11.065  19.255  0.00  0.00    +0.000 A 
ATOM     29  C   UNL     1      -0.385  10.591  18.482  0.00  0.00    +0.000 A 
BRANCH  26  30
ATOM     30  O   UNL     1       0.367  12.827  21.918  0.00  0.00    +0.000 OA
ATOM     31  C   UNL     1       0.792  14.170  21.709  0.00  0.00    +0.000 C 
ENDBRANCH  26  30
BRANCH  27  32
ATOM     32  O   UNL     1      -2.140  12.337  21.260  0.00  0.00    +0.000 OA
ATOM     33  C   UNL     1      -2.193  11.758  22.559  0.00  0.00    +0.000 C 
ENDBRANCH  27  32
BRANCH  28  34
ATOM     34  O   UNL     1      -2.765  10.814  18.941  0.00  0.00    +0.000 OA
ATOM     35  C   UNL     1      -3.046  10.160  17.709  0.00  0.00    +0.000 C 
ENDBRANCH  28  34
ENDBRANCH  23  24
ENDBRANCH   8  22
TORSDOF 11
ENDMDL
MODEL 9
REMARK VINA RESULT:      -6.2      1.550      1.895
REMARK  Name = 
REMARK  16 active torsions:
REMARK  status: ('A' for Active; 'I' for Inactive)
REMARK    1  A    between atoms: C_1  and  C_2
REMARK    2  A    between atoms: C_2  and  O_3
REMARK    3  A    between atoms: O_3  and  C_4
REMARK    4  A    between atoms: C_4  and  C_6
REMARK    5  A    between atoms: C_6  and  C_7
REMARK    6  A    between atoms: C_7  and  N_8
REMARK    7  A    between atoms: C_9  and  C_11
REMARK    8  A    between atoms: N_13  and  C_14
REMARK    9  A    between atoms: C_18  and  C_19
REMARK   10  A    between atoms: C_20  and  C_21
REMARK   11  A    between atoms: C_23  and  O_24
REMARK   12  A    between atoms: O_24  and  C_25
REMARK   13  A    between atoms: C_26  and  O_27
REMARK   14  A    between atoms: O_27  and  C_28
REMARK   15  A    between atoms: C_29  and  O_30
REMARK   16  A    between atoms: O_30  and  C_31
REMARK                            x       y       z     vdW  Elec       q    Type
REMARK                         _______ _______ _______ _____ _____    ______ ____
ROOT
ATOM      1  C   UNL     1       3.278   6.223  18.196  0.00  0.00    +0.000 A 
ATOM      2  C   UNL     1       3.029   5.218  19.123  0.00  0.00    +0.000 A 
ATOM      3  N   UNL     1       2.239   5.730  20.116  0.00  0.00    +0.000 N 
ATOM      4  C   UNL     1       1.877   5.026  21.327  0.00  0.00    +0.000 C 
ATOM      5  C   UNL     1       1.891   7.030  19.830  0.00  0.00    +0.000 A 
ATOM      6  C   UNL     1       1.044   7.921  20.505  0.00  0.00    +0.000 A 
ATOM      7  C   UNL     1       0.948   9.231  20.025  0.00  0.00    +0.000 A 
ATOM      8  C   UNL     1       1.689   9.647  18.919  0.00  0.00    +0.000 A 
ATOM      9  C   UNL     1       2.490   8.729  18.223  0.00  0.00    +0.000 A 
ATOM     10  C   UNL     1       2.587   7.390  18.672  0.00  0.00    +0.000 A 
ENDROOT
BRANCH   1  12
ATOM     11  N   UNL     1       4.263   4.828  16.499  0.00  0.00    +0.000 N 
ATOM     12  C   UNL     1       4.074   6.115  16.967  0.00  0.00    +0.000 C 
ATOM     13  O   UNL     1       4.515   7.091  16.376  0.00  0.00    +0.000 OA
ATOM     14  H   UNL     1       3.849   4.054  16.993  0.00  0.00    +0.000 HD
BRANCH  11  15
ATOM     15  C   UNL     1       4.920   4.564  15.232  0.00  0.00    +0.000 C 
BRANCH  15  16
ATOM     16  C   UNL     1       6.326   4.024  15.422  0.00  0.00    +0.000 C 
BRANCH  16  17
ATOM     17  C   UNL     1       7.330   5.142  15.347  0.00  0.00    +0.000 C 
ATOM     18  O   UNL     1       7.980   5.428  14.351  0.00  0.00    +0.000 OA
BRANCH  17  19
ATOM     19  O   UNL     1       7.500   5.684  16.585  0.00  0.00    +0.000 OA
BRANCH  19  21
ATOM     20  C   UNL     1       7.079   5.429  18.918  0.00  0.00    +0.000 C 
ATOM     21  C   UNL     1       7.591   4.744  17.664  0.00  0.00    +0.000 C 
ENDBRANCH  19  21
ENDBRANCH  17  19
ENDBRANCH  16  17
ENDBRANCH  15  16
ENDBRANCH  11  15
ENDBRANCH   1  12
BRANCH   8  22
ATOM     22  C   UNL     1       1.717  11.067  18.572  0.00  0.00    +0.000 C 
ATOM     23  C   UNL     1       0.680  11.886  18.353  0.00  0.00    +0.000 C 
BRANCH  23  24
ATOM     24  C   UNL     1      -0.750  11.582  18.411  0.00  0.00    +0.000 A 
ATOM     25  C   UNL     1      -1.539  12.115  19.428  0.00  0.00    +0.000 A 
ATOM     26  C   UNL     1      -2.934  12.007  19.366  0.00  0.00    +0.000 A 
ATOM     27  C   UNL     1      -3.547  11.323  18.289  0.00  0.00    +0.000 A 
ATOM     28  C   UNL     1      -2.743  10.731  17.293  0.00  0.00    +0.000 A 
ATOM     29  C   UNL     1      -1.350  10.871  17.368  0.00  0.00    +0.000 A 
BRANCH  26  30
ATOM     30  O   UNL     1      -3.770  12.562  20.310  0.00  0.00    +0.000 OA
ATOM     31  C   UNL     1      -3.143  13.037  21.498  0.00  0.00    +0.000 C 
ENDBRANCH  26  30
BRANCH  27  32
ATOM     32  O   UNL     1      -4.922  11.240  18.341  0.00  0.00    +0.000 OA
ATOM     33  C   UNL     1      -5.462  10.007  18.803  0.00  0.00    +0.000 C 
ENDBRANCH  27  32
BRANCH  28  34
ATOM     34  O   UNL     1      -3.365  10.040  16.286  0.00  0.00    +0.000 OA
ATOM     35  C   UNL     1      -2.894  10.223  14.957  0.00  0.00    +0.000 C 
ENDBRANCH  28  34
ENDBRANCH  23  24
ENDBRANCH   8  22
TORSDOF 11
ENDMDL
