MODEL 1
REMARK VINA RESULT:      -8.5      0.000      0.000
REMARK  Name = 
REMARK  8 active torsions:
REMARK  status: ('A' for Active; 'I' for Inactive)
REMARK    1  A    between atoms: C_1  and  N_2
REMARK    2  A    between atoms: C_9  and  O_10
REMARK    3  A    between atoms: C_13  and  C_14
REMARK    4  A    between atoms: C_17  and  C_18
REMARK    5  A    between atoms: C_18  and  N_19
REMARK    6  A    between atoms: N_19  and  C_20
REMARK    7  A    between atoms: N_19  and  S_24
REMARK    8  A    between atoms: S_24  and  C_25
REMARK                            x       y       z     vdW  Elec       q    Type
REMARK                         _______ _______ _______ _____ _____    ______ ____
ROOT
ATOM      1  C   UNL     1       1.331   9.226  19.041  0.00  0.00    +0.000 A 
ATOM      2  C   UNL     1       1.378   8.191  19.984  0.00  0.00    +0.000 A 
ATOM      3  C   UNL     1       2.244   7.103  19.775  0.00  0.00    +0.000 A 
ATOM      4  C   UNL     1       3.009   6.993  18.609  0.00  0.00    +0.000 A 
ATOM      5  C   UNL     1       2.712   7.867  17.553  0.00  0.00    +0.000 A 
ATOM      6  C   UNL     1       1.911   8.989  17.784  0.00  0.00    +0.000 A 
ENDROOT
BRANCH   1  18
ATOM      7  C   UNL     1       2.806  13.994  19.293  0.00  0.00    +0.000 C 
ATOM      8  N   UNL     1       1.813  13.017  19.748  0.00  0.00    +0.000 NA
ATOM      9  C   UNL     1       0.517  13.702  19.922  0.00  0.00    +0.000 C 
ATOM     10  C   UNL     1      -0.536  12.878  20.670  0.00  0.00    +0.000 C 
ATOM     11  C   UNL     1      -1.281  11.985  19.711  0.00  0.00    +0.000 A 
ATOM     12  C   UNL     1      -2.630  12.276  19.426  0.00  0.00    +0.000 A 
ATOM     13  C   UNL     1      -3.329  11.527  18.488  0.00  0.00    +0.000 A 
ATOM     14 CL   UNL     1      -4.964  11.925  18.119  0.00  0.00    +0.000 Cl
ATOM     15  C   UNL     1      -2.691  10.473  17.842  0.00  0.00    +0.000 A 
ATOM     16  C   UNL     1      -1.358  10.170  18.121  0.00  0.00    +0.000 A 
ATOM     17  C   UNL     1      -0.618  10.921  19.056  0.00  0.00    +0.000 A 
ATOM     18  C   UNL     1       0.884  10.658  19.368  0.00  0.00    +0.000 C 
ATOM     19  C   UNL     1       1.770  11.833  18.838  0.00  0.00    +0.000 C 
BRANCH  15  20
ATOM     20  O   UNL     1      -3.328   9.704  16.906  0.00  0.00    +0.000 OA
ATOM     21  H   UNL     1      -3.543   8.854  17.331  0.00  0.00    +0.000 HD
ENDBRANCH  15  20
ENDBRANCH   1  18
BRANCH   4  22
ATOM     22  C   UNL     1       4.213   6.059  18.530  0.00  0.00    +0.000 C 
BRANCH  22  23
ATOM     23  N   UNL     1       4.011   4.730  17.874  0.00  0.00    +0.000 NA
BRANCH  23  24
ATOM     24  C   UNL     1       4.763   4.559  16.551  0.00  0.00    +0.000 C 
ATOM     25  C   UNL     1       5.136   5.833  15.759  0.00  0.00    +0.000 C 
ATOM     26  C   UNL     1       6.426   5.135  15.315  0.00  0.00    +0.000 C 
ATOM     27  C   UNL     1       6.263   4.177  16.514  0.00  0.00    +0.000 C 
ENDBRANCH  23  24
BRANCH  23  28
ATOM     28  S   UNL     1       3.823   3.429  19.003  0.00  0.00    +0.000 S 
ATOM     29  C   UNL     1       3.492   2.015  17.952  0.00  0.00    +0.000 C 
ATOM     30  O   UNL     1       5.125   3.197  19.625  0.00  0.00    +0.000 OA
ATOM     31  O   UNL     1       2.658   3.667  19.810  0.00  0.00    +0.000 OA
ENDBRANCH  23  28
ENDBRANCH  22  23
ENDBRANCH   4  22
TORSDOF 6
ENDMDL
MODEL 2
REMARK VINA RESULT:      -8.4      0.897      1.088
REMARK  Name = 
REMARK  8 active torsions:
REMARK  status: ('A' for Active; 'I' for Inactive)
REMARK    1  A    between atoms: C_1  and  N_2
REMARK    2  A    between atoms: C_9  and  O_10
REMARK    3  A    between atoms: C_13  and  C_14
REMARK    4  A    between atoms: C_17  and  C_18
REMARK    5  A    between atoms: C_18  and  N_19
REMARK    6  A    between atoms: N_19  and  C_20
REMARK    7  A    between atoms: N_19  and  S_24
REMARK    8  A    between atoms: S_24  and  C_25
REMARK                            x       y       z     vdW  Elec       q    Type
REMARK                         _______ _______ _______ _____ _____    ______ ____
ROOT
ATOM      1  C   UNL     1       1.401   9.140  19.052  0.00  0.00    +0.000 A 
ATOM      2  C   UNL     1       1.453   8.211  20.099  0.00  0.00    +0.000 A 
ATOM      3  C   UNL     1       2.231   7.049  19.956  0.00  0.00    +0.000 A 
ATOM      4  C   UNL     1       2.899   6.761  18.759  0.00  0.00    +0.000 A 
ATOM      5  C   UNL     1       2.578   7.535  17.635  0.00  0.00    +0.000 A 
ATOM      6  C   UNL     1       1.869   8.730  17.793  0.00  0.00    +0.000 A 
ENDROOT
BRANCH   1  18
ATOM      7  C   UNL     1       3.150  13.797  18.572  0.00  0.00    +0.000 C 
ATOM      8  N   UNL     1       2.161  12.947  19.240  0.00  0.00    +0.000 NA
ATOM      9  C   UNL     1       0.931  13.731  19.461  0.00  0.00    +0.000 C 
ATOM     10  C   UNL     1      -0.078  13.071  20.407  0.00  0.00    +0.000 C 
ATOM     11  C   UNL     1      -0.970  12.125  19.645  0.00  0.00    +0.000 A 
ATOM     12  C   UNL     1      -2.324  12.471  19.465  0.00  0.00    +0.000 A 
ATOM     13  C   UNL     1      -3.160  11.667  18.702  0.00  0.00    +0.000 A 
ATOM     14 CL   UNL     1      -4.802  12.128  18.455  0.00  0.00    +0.000 Cl
ATOM     15  C   UNL     1      -2.654  10.505  18.127  0.00  0.00    +0.000 A 
ATOM     16  C   UNL     1      -1.317  10.149  18.303  0.00  0.00    +0.000 A 
ATOM     17  C   UNL     1      -0.441  10.952  19.059  0.00  0.00    +0.000 A 
ATOM     18  C   UNL     1       1.070  10.627  19.247  0.00  0.00    +0.000 C 
ATOM     19  C   UNL     1       1.955  11.671  18.491  0.00  0.00    +0.000 C 
BRANCH  15  20
ATOM     20  O   UNL     1      -3.430   9.678  17.360  0.00  0.00    +0.000 OA
ATOM     21  H   UNL     1      -4.338   9.732  17.710  0.00  0.00    +0.000 HD
ENDBRANCH  15  20
ENDBRANCH   1  18
BRANCH   4  22
ATOM     22  C   UNL     1       4.032   5.741  18.705  0.00  0.00    +0.000 C 
BRANCH  22  23
ATOM     23  N   UNL     1       3.911   4.630  17.712  0.00  0.00    +0.000 NA
BRANCH  23  24
ATOM     24  C   UNL     1       5.134   4.456  16.807  0.00  0.00    +0.000 C 
ATOM     25  C   UNL     1       5.422   5.553  15.756  0.00  0.00    +0.000 C 
ATOM     26  C   UNL     1       6.919   5.317  15.974  0.00  0.00    +0.000 C 
ATOM     27  C   UNL     1       6.572   4.678  17.336  0.00  0.00    +0.000 C 
ENDBRANCH  23  24
BRANCH  23  28
ATOM     28  S   UNL     1       3.001   3.279  18.302  0.00  0.00    +0.000 S 
ATOM     29  C   UNL     1       3.291   3.327  20.071  0.00  0.00    +0.000 C 
ATOM     30  O   UNL     1       1.586   3.579  18.098  0.00  0.00    +0.000 OA
ATOM     31  O   UNL     1       3.573   2.063  17.791  0.00  0.00    +0.000 OA
ENDBRANCH  23  28
ENDBRANCH  22  23
ENDBRANCH   4  22
TORSDOF 6
ENDMDL
MODEL 3
REMARK VINA RESULT:      -8.3      1.372      1.531
REMARK  Name = 
REMARK  8 active torsions:
REMARK  status: ('A' for Active; 'I' for Inactive)
REMARK    1  A    between atoms: C_1  and  N_2
REMARK    2  A    between atoms: C_9  and  O_10
REMARK    3  A    between atoms: C_13  and  C_14
REMARK    4  A    between atoms: C_17  and  C_18
REMARK    5  A    between atoms: C_18  and  N_19
REMARK    6  A    between atoms: N_19  and  C_20
REMARK    7  A    between atoms: N_19  and  S_24
REMARK    8  A    between atoms: S_24  and  C_25
REMARK                            x       y       z     vdW  Elec       q    Type
REMARK                         _______ _______ _______ _____ _____    ______ ____
ROOT
ATOM      1  C   UNL     1       1.421   9.192  19.098  0.00  0.00    +0.000 A 
ATOM      2  C   UNL     1       1.330   8.291  20.167  0.00  0.00    +0.000 A 
ATOM      3  C   UNL     1       2.128   7.135  20.168  0.00  0.00    +0.000 A 
ATOM      4  C   UNL     1       2.962   6.823  19.088  0.00  0.00    +0.000 A 
ATOM      5  C   UNL     1       2.799   7.563  17.908  0.00  0.00    +0.000 A 
ATOM      6  C   UNL     1       2.066   8.754  17.930  0.00  0.00    +0.000 A 
ENDROOT
BRANCH   1  18
ATOM      7  C   UNL     1       3.086  13.852  18.402  0.00  0.00    +0.000 C 
ATOM      8  N   UNL     1       2.097  13.019  19.092  0.00  0.00    +0.000 NA
ATOM      9  C   UNL     1       0.847  13.788  19.239  0.00  0.00    +0.000 C 
ATOM     10  C   UNL     1      -0.172  13.159  20.196  0.00  0.00    +0.000 C 
ATOM     11  C   UNL     1      -1.025  12.153  19.466  0.00  0.00    +0.000 A 
ATOM     12  C   UNL     1      -2.381  12.458  19.236  0.00  0.00    +0.000 A 
ATOM     13  C   UNL     1      -3.182  11.596  18.498  0.00  0.00    +0.000 A 
ATOM     14 CL   UNL     1      -4.826  12.007  18.187  0.00  0.00    +0.000 Cl
ATOM     15  C   UNL     1      -2.637  10.416  18.001  0.00  0.00    +0.000 A 
ATOM     16  C   UNL     1      -1.298  10.098  18.229  0.00  0.00    +0.000 A 
ATOM     17  C   UNL     1      -0.458  10.961  18.960  0.00  0.00    +0.000 A 
ATOM     18  C   UNL     1       1.054  10.680  19.201  0.00  0.00    +0.000 C 
ATOM     19  C   UNL     1       1.937  11.700  18.410  0.00  0.00    +0.000 C 
BRANCH  15  20
ATOM     20  O   UNL     1      -3.377   9.531  17.263  0.00  0.00    +0.000 OA
ATOM     21  H   UNL     1      -3.595   8.783  17.848  0.00  0.00    +0.000 HD
ENDBRANCH  15  20
ENDBRANCH   1  18
BRANCH   4  22
ATOM     22  C   UNL     1       4.099   5.815  19.224  0.00  0.00    +0.000 C 
BRANCH  22  23
ATOM     23  N   UNL     1       4.673   5.250  17.964  0.00  0.00    +0.000 NA
BRANCH  23  24
ATOM     24  C   UNL     1       6.146   5.601  17.730  0.00  0.00    +0.000 C 
ATOM     25  C   UNL     1       6.493   7.055  17.339  0.00  0.00    +0.000 C 
ATOM     26  C   UNL     1       7.790   6.922  18.142  0.00  0.00    +0.000 C 
ATOM     27  C   UNL     1       7.141   5.749  18.906  0.00  0.00    +0.000 C 
ENDBRANCH  23  24
BRANCH  23  28
ATOM     28  S   UNL     1       4.014   3.705  17.542  0.00  0.00    +0.000 S 
ATOM     29  C   UNL     1       4.123   2.778  19.072  0.00  0.00    +0.000 C 
ATOM     30  O   UNL     1       2.593   3.895  17.264  0.00  0.00    +0.000 OA
ATOM     31  O   UNL     1       4.871   3.072  16.576  0.00  0.00    +0.000 OA
ENDBRANCH  23  28
ENDBRANCH  22  23
ENDBRANCH   4  22
TORSDOF 6
ENDMDL
MODEL 4
REMARK VINA RESULT:      -8.3      3.957      9.015
REMARK  Name = 
REMARK  8 active torsions:
REMARK  status: ('A' for Active; 'I' for Inactive)
REMARK    1  A    between atoms: C_1  and  N_2
REMARK    2  A    between atoms: C_9  and  O_10
REMARK    3  A    between atoms: C_13  and  C_14
REMARK    4  A    between atoms: C_17  and  C_18
REMARK    5  A    between atoms: C_18  and  N_19
REMARK    6  A    between atoms: N_19  and  C_20
REMARK    7  A    between atoms: N_19  and  S_24
REMARK    8  A    between atoms: S_24  and  C_25
REMARK                            x       y       z     vdW  Elec       q    Type
REMARK                         _______ _______ _______ _____ _____    ______ ____
ROOT
ATOM      1  C   UNL     1       2.364   6.970  19.432  0.00  0.00    +0.000 A 
ATOM      2  C   UNL     1       1.977   7.429  20.697  0.00  0.00    +0.000 A 
ATOM      3  C   UNL     1       1.191   8.589  20.803  0.00  0.00    +0.000 A 
ATOM      4  C   UNL     1       0.845   9.341  19.674  0.00  0.00    +0.000 A 
ATOM      5  C   UNL     1       1.500   9.043  18.470  0.00  0.00    +0.000 A 
ATOM      6  C   UNL     1       2.219   7.850  18.346  0.00  0.00    +0.000 A 
ENDROOT
BRANCH   1  18
ATOM      7  C   UNL     1       0.611   2.294  19.231  0.00  0.00    +0.000 C 
ATOM      8  N   UNL     1       1.814   3.124  19.341  0.00  0.00    +0.000 NA
ATOM      9  C   UNL     1       2.930   2.436  18.664  0.00  0.00    +0.000 C 
ATOM     10  C   UNL     1       4.309   3.038  18.949  0.00  0.00    +0.000 C 
ATOM     11  C   UNL     1       4.595   4.169  17.995  0.00  0.00    +0.000 A 
ATOM     12  C   UNL     1       5.582   3.986  17.006  0.00  0.00    +0.000 A 
ATOM     13  C   UNL     1       5.820   4.972  16.058  0.00  0.00    +0.000 A 
ATOM     14 CL   UNL     1       6.998   4.712  14.828  0.00  0.00    +0.000 Cl
ATOM     15  C   UNL     1       5.086   6.153  16.102  0.00  0.00    +0.000 A 
ATOM     16  C   UNL     1       4.112   6.350  17.080  0.00  0.00    +0.000 A 
ATOM     17  C   UNL     1       3.837   5.362  18.046  0.00  0.00    +0.000 A 
ATOM     18  C   UNL     1       2.728   5.509  19.128  0.00  0.00    +0.000 C 
ATOM     19  C   UNL     1       1.555   4.512  18.854  0.00  0.00    +0.000 C 
BRANCH  15  20
ATOM     20  O   UNL     1       5.274   7.157  15.190  0.00  0.00    +0.000 OA
ATOM     21  H   UNL     1       5.210   6.755  14.304  0.00  0.00    +0.000 HD
ENDBRANCH  15  20
ENDBRANCH   1  18
BRANCH   4  22
ATOM     22  C   UNL     1      -0.298  10.351  19.709  0.00  0.00    +0.000 C 
BRANCH  22  23
ATOM     23  N   UNL     1      -0.341  11.379  18.624  0.00  0.00    +0.000 NA
BRANCH  23  24
ATOM     24  C   UNL     1      -1.579  11.296  17.725  0.00  0.00    +0.000 C 
ATOM     25  C   UNL     1      -1.941   9.923  17.114  0.00  0.00    +0.000 C 
ATOM     26  C   UNL     1      -3.421  10.294  17.252  0.00  0.00    +0.000 C 
ATOM     27  C   UNL     1      -3.011  11.339  18.311  0.00  0.00    +0.000 C 
ENDBRANCH  23  24
BRANCH  23  28
ATOM     28  S   UNL     1       0.363  12.893  19.085  0.00  0.00    +0.000 S 
ATOM     29  C   UNL     1       2.004  12.822  18.368  0.00  0.00    +0.000 C 
ATOM     30  O   UNL     1      -0.361  13.947  18.379  0.00  0.00    +0.000 OA
ATOM     31  O   UNL     1       0.504  12.934  20.515  0.00  0.00    +0.000 OA
ENDBRANCH  23  28
ENDBRANCH  22  23
ENDBRANCH   4  22
TORSDOF 6
ENDMDL
MODEL 5
REMARK VINA RESULT:      -8.3      1.778      2.860
REMARK  Name = 
REMARK  8 active torsions:
REMARK  status: ('A' for Active; 'I' for Inactive)
REMARK    1  A    between atoms: C_1  and  N_2
REMARK    2  A    between atoms: C_9  and  O_10
REMARK    3  A    between atoms: C_13  and  C_14
REMARK    4  A    between atoms: C_17  and  C_18
REMARK    5  A    between atoms: C_18  and  N_19
REMARK    6  A    between atoms: N_19  and  C_20
REMARK    7  A    between atoms: N_19  and  S_24
REMARK    8  A    between atoms: S_24  and  C_25
REMARK                            x       y       z     vdW  Elec       q    Type
REMARK                         _______ _______ _______ _____ _____    ______ ____
ROOT
ATOM      1  C   UNL     1       1.358   9.869  19.380  0.00  0.00    +0.000 A 
ATOM      2  C   UNL     1       1.972   9.648  18.140  0.00  0.00    +0.000 A 
ATOM      3  C   UNL     1       2.325   8.340  17.765  0.00  0.00    +0.000 A 
ATOM      4  C   UNL     1       2.144   7.258  18.635  0.00  0.00    +0.000 A 
ATOM      5  C   UNL     1       1.828   7.545  19.970  0.00  0.00    +0.000 A 
ATOM      6  C   UNL     1       1.405   8.829  20.324  0.00  0.00    +0.000 A 
ENDROOT
BRANCH   1  18
ATOM      7  C   UNL     1       1.343  14.738  20.503  0.00  0.00    +0.000 C 
ATOM      8  N   UNL     1       0.572  13.492  20.544  0.00  0.00    +0.000 NA
ATOM      9  C   UNL     1      -0.859  13.812  20.382  0.00  0.00    +0.000 C 
ATOM     10  C   UNL     1      -1.806  12.649  20.698  0.00  0.00    +0.000 C 
ATOM     11  C   UNL     1      -1.992  11.779  19.481  0.00  0.00    +0.000 A 
ATOM     12  C   UNL     1      -3.242  11.787  18.831  0.00  0.00    +0.000 A 
ATOM     13  C   UNL     1      -3.432  11.063  17.661  0.00  0.00    +0.000 A 
ATOM     14 CL   UNL     1      -4.953  11.120  16.854  0.00  0.00    +0.000 Cl
ATOM     15  C   UNL     1      -2.380  10.313  17.144  0.00  0.00    +0.000 A 
ATOM     16  C   UNL     1      -1.140  10.291  17.782  0.00  0.00    +0.000 A 
ATOM     17  C   UNL     1      -0.913  11.028  18.961  0.00  0.00    +0.000 A 
ATOM     18  C   UNL     1       0.463  11.078  19.687  0.00  0.00    +0.000 C 
ATOM     19  C   UNL     1       1.101  12.501  19.559  0.00  0.00    +0.000 C 
BRANCH  15  20
ATOM     20  O   UNL     1      -2.507   9.584  15.992  0.00  0.00    +0.000 OA
ATOM     21  H   UNL     1      -2.801  10.200  15.295  0.00  0.00    +0.000 HD
ENDBRANCH  15  20
ENDBRANCH   1  18
BRANCH   4  22
ATOM     22  C   UNL     1       2.152   5.819  18.128  0.00  0.00    +0.000 C 
BRANCH  22  23
ATOM     23  N   UNL     1       3.205   4.905  18.668  0.00  0.00    +0.000 NA
BRANCH  23  24
ATOM     24  C   UNL     1       2.668   3.785  19.565  0.00  0.00    +0.000 C 
ATOM     25  C   UNL     1       2.315   4.134  21.029  0.00  0.00    +0.000 C 
ATOM     26  C   UNL     1       1.163   3.128  20.952  0.00  0.00    +0.000 C 
ATOM     27  C   UNL     1       1.224   3.247  19.415  0.00  0.00    +0.000 C 
ENDBRANCH  23  24
BRANCH  23  28
ATOM     28  S   UNL     1       4.524   4.656  17.573  0.00  0.00    +0.000 S 
ATOM     29  C   UNL     1       5.967   4.784  18.630  0.00  0.00    +0.000 C 
ATOM     30  O   UNL     1       4.459   3.271  17.114  0.00  0.00    +0.000 OA
ATOM     31  O   UNL     1       4.567   5.739  16.629  0.00  0.00    +0.000 OA
ENDBRANCH  23  28
ENDBRANCH  22  23
ENDBRANCH   4  22
TORSDOF 6
ENDMDL
MODEL 6
REMARK VINA RESULT:      -8.3      1.730      2.653
REMARK  Name = 
REMARK  8 active torsions:
REMARK  status: ('A' for Active; 'I' for Inactive)
REMARK    1  A    between atoms: C_1  and  N_2
REMARK    2  A    between atoms: C_9  and  O_10
REMARK    3  A    between atoms: C_13  and  C_14
REMARK    4  A    between atoms: C_17  and  C_18
REMARK    5  A    between atoms: C_18  and  N_19
REMARK    6  A    between atoms: N_19  and  C_20
REMARK    7  A    between atoms: N_19  and  S_24
REMARK    8  A    between atoms: S_24  and  C_25
REMARK                            x       y       z     vdW  Elec       q    Type
REMARK                         _______ _______ _______ _____ _____    ______ ____
ROOT
ATOM      1  C   UNL     1       1.211   9.336  19.337  0.00  0.00    +0.000 A 
ATOM      2  C   UNL     1       1.227   8.443  20.416  0.00  0.00    +0.000 A 
ATOM      3  C   UNL     1       1.982   7.261  20.327  0.00  0.00    +0.000 A 
ATOM      4  C   UNL     1       2.663   6.918  19.154  0.00  0.00    +0.000 A 
ATOM      5  C   UNL     1       2.377   7.658  17.997  0.00  0.00    +0.000 A 
ATOM      6  C   UNL     1       1.690   8.871  18.100  0.00  0.00    +0.000 A 
ENDROOT
BRANCH   1  18
ATOM      7  C   UNL     1       3.040  13.936  18.659  0.00  0.00    +0.000 C 
ATOM      8  N   UNL     1       2.040  13.132  19.366  0.00  0.00    +0.000 NA
ATOM      9  C   UNL     1       0.826  13.947  19.561  0.00  0.00    +0.000 C 
ATOM     10  C   UNL     1      -0.189  13.345  20.538  0.00  0.00    +0.000 C 
ATOM     11  C   UNL     1      -1.103  12.385  19.819  0.00  0.00    +0.000 A 
ATOM     12  C   UNL     1      -2.451  12.747  19.633  0.00  0.00    +0.000 A 
ATOM     13  C   UNL     1      -3.307  11.929  18.906  0.00  0.00    +0.000 A 
ATOM     14 CL   UNL     1      -4.941  12.410  18.649  0.00  0.00    +0.000 Cl
ATOM     15  C   UNL     1      -2.825  10.736  18.377  0.00  0.00    +0.000 A 
ATOM     16  C   UNL     1      -1.493  10.362  18.561  0.00  0.00    +0.000 A 
ATOM     17  C   UNL     1      -0.598  11.179  19.279  0.00  0.00    +0.000 A 
ATOM     18  C   UNL     1       0.907  10.835  19.472  0.00  0.00    +0.000 C 
ATOM     19  C   UNL     1       1.807  11.831  18.670  0.00  0.00    +0.000 C 
BRANCH  15  20
ATOM     20  O   UNL     1      -3.620   9.893  17.648  0.00  0.00    +0.000 OA
ATOM     21  H   UNL     1      -4.525  10.252  17.683  0.00  0.00    +0.000 HD
ENDBRANCH  15  20
ENDBRANCH   1  18
BRANCH   4  22
ATOM     22  C   UNL     1       3.776   5.874  19.155  0.00  0.00    +0.000 C 
BRANCH  22  23
ATOM     23  N   UNL     1       3.372   4.438  19.258  0.00  0.00    +0.000 NA
BRANCH  23  24
ATOM     24  C   UNL     1       2.606   4.089  20.538  0.00  0.00    +0.000 C 
ATOM     25  C   UNL     1       1.118   3.692  20.409  0.00  0.00    +0.000 C 
ATOM     26  C   UNL     1       1.317   2.713  21.570  0.00  0.00    +0.000 C 
ATOM     27  C   UNL     1       2.832   2.747  21.278  0.00  0.00    +0.000 C 
ENDBRANCH  23  24
BRANCH  23  28
ATOM     28  S   UNL     1       2.986   3.722  17.728  0.00  0.00    +0.000 S 
ATOM     29  C   UNL     1       3.202   1.968  18.026  0.00  0.00    +0.000 C 
ATOM     30  O   UNL     1       1.560   3.937  17.491  0.00  0.00    +0.000 OA
ATOM     31  O   UNL     1       3.960   4.132  16.754  0.00  0.00    +0.000 OA
ENDBRANCH  23  28
ENDBRANCH  22  23
ENDBRANCH   4  22
TORSDOF 6
ENDMDL
MODEL 7
REMARK VINA RESULT:      -8.1      2.539      3.444
REMARK  Name = 
REMARK  8 active torsions:
REMARK  status: ('A' for Active; 'I' for Inactive)
REMARK    1  A    between atoms: C_1  and  N_2
REMARK    2  A    between atoms: C_9  and  O_10
REMARK    3  A    between atoms: C_13  and  C_14
REMARK    4  A    between atoms: C_17  and  C_18
REMARK    5  A    between atoms: C_18  and  N_19
REMARK    6  A    between atoms: N_19  and  C_20
REMARK    7  A    between atoms: N_19  and  S_24
REMARK    8  A    between atoms: S_24  and  C_25
REMARK                            x       y       z     vdW  Elec       q    Type
REMARK                         _______ _______ _______ _____ _____    ______ ____
ROOT
ATOM      1  C   UNL     1       1.323   9.163  18.791  0.00  0.00    +0.000 A 
ATOM      2  C   UNL     1       2.240   8.764  17.810  0.00  0.00    +0.000 A 
ATOM      3  C   UNL     1       2.962   7.570  17.981  0.00  0.00    +0.000 A 
ATOM      4  C   UNL     1       2.840   6.804  19.146  0.00  0.00    +0.000 A 
ATOM      5  C   UNL     1       2.167   7.380  20.233  0.00  0.00    +0.000 A 
ATOM      6  C   UNL     1       1.389   8.526  20.042  0.00  0.00    +0.000 A 
ENDROOT
BRANCH   1  18
ATOM      7  C   UNL     1      -2.769   9.807  15.996  0.00  0.00    +0.000 C 
ATOM      8  N   UNL     1      -1.774  10.471  16.842  0.00  0.00    +0.000 NA
ATOM      9  C   UNL     1      -2.423  11.590  17.551  0.00  0.00    +0.000 C 
ATOM     10  C   UNL     1      -1.449  12.552  18.240  0.00  0.00    +0.000 C 
ATOM     11  C   UNL     1      -1.101  12.049  19.617  0.00  0.00    +0.000 A 
ATOM     12  C   UNL     1      -1.590  12.750  20.736  0.00  0.00    +0.000 A 
ATOM     13  C   UNL     1      -1.360  12.275  22.021  0.00  0.00    +0.000 A 
ATOM     14 CL   UNL     1      -2.005  13.121  23.377  0.00  0.00    +0.000 Cl
ATOM     15  C   UNL     1      -0.626  11.107  22.196  0.00  0.00    +0.000 A 
ATOM     16  C   UNL     1      -0.129  10.407  21.096  0.00  0.00    +0.000 A 
ATOM     17  C   UNL     1      -0.360  10.855  19.781  0.00  0.00    +0.000 A 
ATOM     18  C   UNL     1       0.128  10.088  18.518  0.00  0.00    +0.000 C 
ATOM     19  C   UNL     1      -1.086   9.490  17.734  0.00  0.00    +0.000 C 
BRANCH  15  20
ATOM     20  O   UNL     1      -0.373  10.589  23.438  0.00  0.00    +0.000 OA
ATOM     21  H   UNL     1       0.557  10.294  23.441  0.00  0.00    +0.000 HD
ENDBRANCH  15  20
ENDBRANCH   1  18
BRANCH   4  22
ATOM     22  C   UNL     1       3.295   5.349  19.194  0.00  0.00    +0.000 C 
BRANCH  22  23
ATOM     23  N   UNL     1       3.220   4.562  17.925  0.00  0.00    +0.000 NA
BRANCH  23  24
ATOM     24  C   UNL     1       4.580   4.124  17.372  0.00  0.00    +0.000 C 
ATOM     25  C   UNL     1       5.093   4.804  16.083  0.00  0.00    +0.000 C 
ATOM     26  C   UNL     1       6.517   4.699  16.638  0.00  0.00    +0.000 C 
ATOM     27  C   UNL     1       5.905   4.553  18.047  0.00  0.00    +0.000 C 
ENDBRANCH  23  24
BRANCH  23  28
ATOM     28  S   UNL     1       1.816   3.551  17.827  0.00  0.00    +0.000 S 
ATOM     29  C   UNL     1       1.253   3.461  19.526  0.00  0.00    +0.000 C 
ATOM     30  O   UNL     1       0.797   4.286  17.082  0.00  0.00    +0.000 OA
ATOM     31  O   UNL     1       2.211   2.231  17.418  0.00  0.00    +0.000 OA
ENDBRANCH  23  28
ENDBRANCH  22  23
ENDBRANCH   4  22
TORSDOF 6
ENDMDL
MODEL 8
REMARK VINA RESULT:      -8.0      1.734      2.371
REMARK  Name = 
REMARK  8 active torsions:
REMARK  status: ('A' for Active; 'I' for Inactive)
REMARK    1  A    between atoms: C_1  and  N_2
REMARK    2  A    between atoms: C_9  and  O_10
REMARK    3  A    between atoms: C_13  and  C_14
REMARK    4  A    between atoms: C_17  and  C_18
REMARK    5  A    between atoms: C_18  and  N_19
REMARK    6  A    between atoms: N_19  and  C_20
REMARK    7  A    between atoms: N_19  and  S_24
REMARK    8  A    between atoms: S_24  and  C_25
REMARK                            x       y       z     vdW  Elec       q    Type
REMARK                         _______ _______ _______ _____ _____    ______ ____
ROOT
ATOM      1  C   UNL     1       1.047   9.407  19.453  0.00  0.00    +0.000 A 
ATOM      2  C   UNL     1       1.085   8.501  20.520  0.00  0.00    +0.000 A 
ATOM      3  C   UNL     1       1.896   7.356  20.428  0.00  0.00    +0.000 A 
ATOM      4  C   UNL     1       2.612   7.062  19.262  0.00  0.00    +0.000 A 
ATOM      5  C   UNL     1       2.313   7.805  18.111  0.00  0.00    +0.000 A 
ATOM      6  C   UNL     1       1.568   8.984  18.219  0.00  0.00    +0.000 A 
ENDROOT
BRANCH   1  18
ATOM      7  C   UNL     1       2.729  14.095  19.039  0.00  0.00    +0.000 C 
ATOM      8  N   UNL     1       1.712  13.231  19.646  0.00  0.00    +0.000 NA
ATOM      9  C   UNL     1       0.453  13.992  19.768  0.00  0.00    +0.000 C 
ATOM     10  C   UNL     1      -0.607  13.321  20.648  0.00  0.00    +0.000 C 
ATOM     11  C   UNL     1      -1.422  12.347  19.836  0.00  0.00    +0.000 A 
ATOM     12  C   UNL     1      -2.767  12.661  19.557  0.00  0.00    +0.000 A 
ATOM     13  C   UNL     1      -3.530  11.832  18.745  0.00  0.00    +0.000 A 
ATOM     14 CL   UNL     1      -5.159  12.255  18.376  0.00  0.00    +0.000 Cl
ATOM     15  C   UNL     1      -2.960  10.675  18.223  0.00  0.00    +0.000 A 
ATOM     16  C   UNL     1      -1.632  10.349  18.499  0.00  0.00    +0.000 A 
ATOM     17  C   UNL     1      -0.829  11.179  19.305  0.00  0.00    +0.000 A 
ATOM     18  C   UNL     1       0.671  10.889  19.604  0.00  0.00    +0.000 C 
ATOM     19  C   UNL     1       1.587  11.943  18.900  0.00  0.00    +0.000 C 
BRANCH  15  20
ATOM     20  O   UNL     1      -3.662   9.823  17.413  0.00  0.00    +0.000 OA
ATOM     21  H   UNL     1      -4.233  10.372  16.846  0.00  0.00    +0.000 HD
ENDBRANCH  15  20
ENDBRANCH   1  18
BRANCH   4  22
ATOM     22  C   UNL     1       3.772   6.071  19.269  0.00  0.00    +0.000 C 
BRANCH  22  23
ATOM     23  N   UNL     1       3.441   4.626  19.467  0.00  0.00    +0.000 NA
BRANCH  23  24
ATOM     24  C   UNL     1       1.956   4.290  19.297  0.00  0.00    +0.000 C 
ATOM     25  C   UNL     1       1.565   3.252  18.221  0.00  0.00    +0.000 C 
ATOM     26  C   UNL     1       0.439   2.775  19.143  0.00  0.00    +0.000 C 
ATOM     27  C   UNL     1       1.200   3.412  20.324  0.00  0.00    +0.000 C 
ENDBRANCH  23  24
BRANCH  23  28
ATOM     28  S   UNL     1       4.696   3.556  18.936  0.00  0.00    +0.000 S 
ATOM     29  C   UNL     1       4.458   2.102  19.958  0.00  0.00    +0.000 C 
ATOM     30  O   UNL     1       4.385   3.163  17.564  0.00  0.00    +0.000 OA
ATOM     31  O   UNL     1       5.974   4.125  19.263  0.00  0.00    +0.000 OA
ENDBRANCH  23  28
ENDBRANCH  22  23
ENDBRANCH   4  22
TORSDOF 6
ENDMDL
MODEL 9
REMARK VINA RESULT:      -7.9      1.651      2.355
REMARK  Name = 
REMARK  8 active torsions:
REMARK  status: ('A' for Active; 'I' for Inactive)
REMARK    1  A    between atoms: C_1  and  N_2
REMARK    2  A    between atoms: C_9  and  O_10
REMARK    3  A    between atoms: C_13  and  C_14
REMARK    4  A    between atoms: C_17  and  C_18
REMARK    5  A    between atoms: C_18  and  N_19
REMARK    6  A    between atoms: N_19  and  C_20
REMARK    7  A    between atoms: N_19  and  S_24
REMARK    8  A    between atoms: S_24  and  C_25
REMARK                            x       y       z     vdW  Elec       q    Type
REMARK                         _______ _______ _______ _____ _____    ______ ____
ROOT
ATOM      1  C   UNL     1       1.527   9.134  18.915  0.00  0.00    +0.000 A 
ATOM      2  C   UNL     1       1.399   8.168  19.921  0.00  0.00    +0.000 A 
ATOM      3  C   UNL     1       2.245   7.045  19.915  0.00  0.00    +0.000 A 
ATOM      4  C   UNL     1       3.165   6.831  18.882  0.00  0.00    +0.000 A 
ATOM      5  C   UNL     1       3.055   7.633  17.738  0.00  0.00    +0.000 A 
ATOM      6  C   UNL     1       2.271   8.791  17.773  0.00  0.00    +0.000 A 
ENDROOT
BRANCH   1  18
ATOM      7  C   UNL     1       3.064  13.884  18.721  0.00  0.00    +0.000 C 
ATOM      8  N   UNL     1       2.041  12.972  19.239  0.00  0.00    +0.000 NA
ATOM      9  C   UNL     1       0.752  13.685  19.297  0.00  0.00    +0.000 C 
ATOM     10  C   UNL     1      -0.338  12.957  20.090  0.00  0.00    +0.000 C 
ATOM     11  C   UNL     1      -1.065  11.977  19.204  0.00  0.00    +0.000 A 
ATOM     12  C   UNL     1      -2.399  12.252  18.844  0.00  0.00    +0.000 A 
ATOM     13  C   UNL     1      -3.078  11.418  17.966  0.00  0.00    +0.000 A 
ATOM     14 CL   UNL     1      -4.694  11.795  17.501  0.00  0.00    +0.000 Cl
ATOM     15  C   UNL     1      -2.435  10.295  17.455  0.00  0.00    +0.000 A 
ATOM     16  C   UNL     1      -1.116  10.007  17.809  0.00  0.00    +0.000 A 
ATOM     17  C   UNL     1      -0.397  10.844  18.686  0.00  0.00    +0.000 A 
ATOM     18  C   UNL     1       1.090  10.597  19.075  0.00  0.00    +0.000 C 
ATOM     19  C   UNL     1       2.011  11.699  18.457  0.00  0.00    +0.000 C 
BRANCH  15  20
ATOM     20  O   UNL     1      -3.052   9.440  16.582  0.00  0.00    +0.000 OA
ATOM     21  H   UNL     1      -3.501   9.990  15.913  0.00  0.00    +0.000 HD
ENDBRANCH  15  20
ENDBRANCH   1  18
BRANCH   4  22
ATOM     22  C   UNL     1       4.332   5.861  19.043  0.00  0.00    +0.000 C 
BRANCH  22  23
ATOM     23  N   UNL     1       4.709   5.034  17.855  0.00  0.00    +0.000 NA
BRANCH  23  24
ATOM     24  C   UNL     1       3.596   4.110  17.351  0.00  0.00    +0.000 C 
ATOM     25  C   UNL     1       3.629   2.628  17.789  0.00  0.00    +0.000 C 
ATOM     26  C   UNL     1       2.097   2.642  17.820  0.00  0.00    +0.000 C 
ATOM     27  C   UNL     1       2.161   4.181  17.927  0.00  0.00    +0.000 C 
ENDBRANCH  23  24
BRANCH  23  28
ATOM     28  S   UNL     1       5.797   5.842  16.776  0.00  0.00    +0.000 S 
ATOM     29  C   UNL     1       7.046   4.600  16.444  0.00  0.00    +0.000 C 
ATOM     30  O   UNL     1       5.083   6.068  15.522  0.00  0.00    +0.000 OA
ATOM     31  O   UNL     1       6.427   6.933  17.467  0.00  0.00    +0.000 OA
ENDBRANCH  23  28
ENDBRANCH  22  23
ENDBRANCH   4  22
TORSDOF 6
ENDMDL
