MODEL 1
REMARK VINA RESULT:      -7.8      0.000      0.000
REMARK  Name = 
REMARK  13 active torsions:
REMARK  status: ('A' for Active; 'I' for Inactive)
REMARK    1  A    between atoms: C_1  and  C_2
REMARK    2  A    between atoms: C_2  and  C_3
REMARK    3  A    between atoms: C_3  and  C_4
REMARK    4  A    between atoms: C_4  and  O_6
REMARK    5  A    between atoms: O_6  and  C_7
REMARK    6  A    between atoms: C_7  and  C_8
REMARK    7  A    between atoms: C_20  and  C_21
REMARK    8  A    between atoms: C_23  and  O_24
REMARK    9  A    between atoms: O_24  and  C_25
REMARK   10  A    between atoms: C_26  and  O_27
REMARK   11  A    between atoms: O_27  and  C_28
REMARK   12  A    between atoms: C_29  and  O_30
REMARK   13  A    between atoms: O_30  and  C_31
REMARK                            x       y       z     vdW  Elec       q    Type
REMARK                         _______ _______ _______ _____ _____    ______ ____
ROOT
ATOM      1  C   UNL     1       4.890   6.102  17.267  0.00  0.00    +0.000 C 
ATOM      2  C   UNL     1       5.856   6.288  18.433  0.00  0.00    +0.000 C 
ATOM      3  C   UNL     1       7.331   6.224  18.118  0.00  0.00    +0.000 C 
ATOM      4  O   UNL     1       7.918   5.504  19.211  0.00  0.00    +0.000 OA
ATOM      5  N   UNL     1       6.913   4.696  19.807  0.00  0.00    +0.000 NA
ATOM      6  C   UNL     1       5.778   5.107  19.351  0.00  0.00    +0.000 C 
ATOM      7  C   UNL     1       4.468   4.480  19.640  0.00  0.00    +0.000 A 
ATOM      8  C   UNL     1       4.312   3.605  20.724  0.00  0.00    +0.000 A 
ATOM      9  C   UNL     1       3.060   3.039  20.903  0.00  0.00    +0.000 A 
ATOM     10  C   UNL     1       2.031   3.251  20.009  0.00  0.00    +0.000 A 
ATOM     11  C   UNL     1       2.158   4.095  18.940  0.00  0.00    +0.000 A 
ATOM     12  C   UNL     1       3.377   4.775  18.791  0.00  0.00    +0.000 A 
ATOM     13  C   UNL     1       3.435   5.896  17.771  0.00  0.00    +0.000 C 
ATOM     14  O   UNL     1       0.887   2.604  20.356  0.00  0.00    +0.000 OA
ATOM     15  C   UNL     1       1.227   2.222  21.700  0.00  0.00    +0.000 C 
ATOM     16  O   UNL     1       2.654   2.270  21.947  0.00  0.00    +0.000 OA
ENDROOT
BRANCH  13  17
ATOM     17  C   UNL     1       2.731   7.148  18.306  0.00  0.00    +0.000 A 
ATOM     18  C   UNL     1       2.714   8.347  17.594  0.00  0.00    +0.000 A 
ATOM     19  C   UNL     1       2.026   9.477  18.063  0.00  0.00    +0.000 A 
ATOM     20  C   UNL     1       1.362   9.424  19.309  0.00  0.00    +0.000 A 
ATOM     21  C   UNL     1       1.456   8.248  20.091  0.00  0.00    +0.000 A 
ATOM     22  C   UNL     1       2.120   7.124  19.571  0.00  0.00    +0.000 A 
BRANCH  19  23
ATOM     23  O   UNL     1       1.929  10.637  17.336  0.00  0.00    +0.000 OA
ATOM     24  C   UNL     1       2.675  11.756  17.809  0.00  0.00    +0.000 C 
ENDBRANCH  19  23
BRANCH  20  25
ATOM     25  O   UNL     1       0.747  10.590  19.695  0.00  0.00    +0.000 OA
ATOM     26  C   UNL     1      -0.659  10.681  19.532  0.00  0.00    +0.000 C 
ENDBRANCH  20  25
BRANCH  21  27
ATOM     27  O   UNL     1       0.913   8.268  21.343  0.00  0.00    +0.000 OA
ATOM     28  C   UNL     1       1.478   9.135  22.319  0.00  0.00    +0.000 C 
ENDBRANCH  21  27
ENDBRANCH  13  17
BRANCH   1  29
ATOM     29  C   UNL     1       4.980   7.188  16.188  0.00  0.00    +0.000 C 
BRANCH  29  30
ATOM     30  O   UNL     1       5.139   6.583  14.888  0.00  0.00    +0.000 OA
BRANCH  30  31
ATOM     31  C   UNL     1       6.082   5.600  14.798  0.00  0.00    +0.000 C 
ATOM     32  O   UNL     1       7.266   5.746  15.060  0.00  0.00    +0.000 OA
BRANCH  31  33
ATOM     33  C   UNL     1       5.435   4.304  14.366  0.00  0.00    +0.000 C 
BRANCH  33  35
ATOM     34  C   UNL     1       5.210   3.298  12.066  0.00  0.00    +0.000 C 
ATOM     35  C   UNL     1       6.172   3.683  13.180  0.00  0.00    +0.000 C 
ENDBRANCH  33  35
ENDBRANCH  31  33
ENDBRANCH  30  31
ENDBRANCH  29  30
ENDBRANCH   1  29
TORSDOF 9
ENDMDL
MODEL 2
REMARK VINA RESULT:      -7.6      7.076     11.072
REMARK  Name = 
REMARK  13 active torsions:
REMARK  status: ('A' for Active; 'I' for Inactive)
REMARK    1  A    between atoms: C_1  and  C_2
REMARK    2  A    between atoms: C_2  and  C_3
REMARK    3  A    between atoms: C_3  and  C_4
REMARK    4  A    between atoms: C_4  and  O_6
REMARK    5  A    between atoms: O_6  and  C_7
REMARK    6  A    between atoms: C_7  and  C_8
REMARK    7  A    between atoms: C_20  and  C_21
REMARK    8  A    between atoms: C_23  and  O_24
REMARK    9  A    between atoms: O_24  and  C_25
REMARK   10  A    between atoms: C_26  and  O_27
REMARK   11  A    between atoms: O_27  and  C_28
REMARK   12  A    between atoms: C_29  and  O_30
REMARK   13  A    between atoms: O_30  and  C_31
REMARK                            x       y       z     vdW  Elec       q    Type
REMARK                         _______ _______ _______ _____ _____    ______ ____
ROOT
ATOM      1  C   UNL     1      -2.553  12.207  22.351  0.00  0.00    +0.000 C 
ATOM      2  C   UNL     1      -3.620  12.961  23.141  0.00  0.00    +0.000 C 
ATOM      3  C   UNL     1      -3.892  12.488  24.549  0.00  0.00    +0.000 C 
ATOM      4  O   UNL     1      -5.314  12.577  24.706  0.00  0.00    +0.000 OA
ATOM      5  N   UNL     1      -5.913  12.513  23.420  0.00  0.00    +0.000 NA
ATOM      6  C   UNL     1      -4.971  12.692  22.556  0.00  0.00    +0.000 C 
ATOM      7  C   UNL     1      -5.138  12.608  21.087  0.00  0.00    +0.000 A 
ATOM      8  C   UNL     1      -6.410  12.687  20.501  0.00  0.00    +0.000 A 
ATOM      9  C   UNL     1      -6.477  12.569  19.122  0.00  0.00    +0.000 A 
ATOM     10  C   UNL     1      -5.360  12.299  18.359  0.00  0.00    +0.000 A 
ATOM     11  C   UNL     1      -4.109  12.212  18.906  0.00  0.00    +0.000 A 
ATOM     12  C   UNL     1      -3.986  12.439  20.285  0.00  0.00    +0.000 A 
ATOM     13  C   UNL     1      -2.587  12.599  20.848  0.00  0.00    +0.000 C 
ATOM     14  O   UNL     1      -5.635  12.214  17.031  0.00  0.00    +0.000 OA
ATOM     15  C   UNL     1      -6.967  12.754  17.028  0.00  0.00    +0.000 C 
ATOM     16  O   UNL     1      -7.577  12.739  18.342  0.00  0.00    +0.000 OA
ENDROOT
BRANCH  13  17
ATOM     17  C   UNL     1      -2.026  13.984  20.508  0.00  0.00    +0.000 A 
ATOM     18  C   UNL     1      -0.838  14.146  19.796  0.00  0.00    +0.000 A 
ATOM     19  C   UNL     1      -0.353  15.415  19.443  0.00  0.00    +0.000 A 
ATOM     20  C   UNL     1      -1.056  16.570  19.849  0.00  0.00    +0.000 A 
ATOM     21  C   UNL     1      -2.207  16.427  20.660  0.00  0.00    +0.000 A 
ATOM     22  C   UNL     1      -2.685  15.140  20.960  0.00  0.00    +0.000 A 
BRANCH  19  23
ATOM     23  O   UNL     1       0.769  15.588  18.671  0.00  0.00    +0.000 OA
ATOM     24  C   UNL     1       1.836  14.664  18.871  0.00  0.00    +0.000 C 
ENDBRANCH  19  23
BRANCH  20  25
ATOM     25  O   UNL     1      -0.484  17.764  19.483  0.00  0.00    +0.000 OA
ATOM     26  C   UNL     1      -1.017  18.435  18.353  0.00  0.00    +0.000 C 
ENDBRANCH  20  25
BRANCH  21  27
ATOM     27  O   UNL     1      -2.794  17.561  21.141  0.00  0.00    +0.000 OA
ATOM     28  C   UNL     1      -3.158  17.611  22.516  0.00  0.00    +0.000 C 
ENDBRANCH  21  27
ENDBRANCH  13  17
BRANCH   1  29
ATOM     29  C   UNL     1      -1.141  12.299  22.941  0.00  0.00    +0.000 C 
BRANCH  29  30
ATOM     30  O   UNL     1      -0.215  11.547  22.130  0.00  0.00    +0.000 OA
BRANCH  30  31
ATOM     31  C   UNL     1       0.011  10.259  22.522  0.00  0.00    +0.000 C 
ATOM     32  O   UNL     1       0.050   9.881  23.683  0.00  0.00    +0.000 OA
BRANCH  31  33
ATOM     33  C   UNL     1       0.169   9.372  21.308  0.00  0.00    +0.000 C 
BRANCH  33  35
ATOM     34  C   UNL     1       0.557  10.080  18.921  0.00  0.00    +0.000 C 
ATOM     35  C   UNL     1      -0.443  10.015  20.065  0.00  0.00    +0.000 C 
ENDBRANCH  33  35
ENDBRANCH  31  33
ENDBRANCH  30  31
ENDBRANCH  29  30
ENDBRANCH   1  29
TORSDOF 9
ENDMDL
MODEL 3
REMARK VINA RESULT:      -7.6      7.239     11.179
REMARK  Name = 
REMARK  13 active torsions:
REMARK  status: ('A' for Active; 'I' for Inactive)
REMARK    1  A    between atoms: C_1  and  C_2
REMARK    2  A    between atoms: C_2  and  C_3
REMARK    3  A    between atoms: C_3  and  C_4
REMARK    4  A    between atoms: C_4  and  O_6
REMARK    5  A    between atoms: O_6  and  C_7
REMARK    6  A    between atoms: C_7  and  C_8
REMARK    7  A    between atoms: C_20  and  C_21
REMARK    8  A    between atoms: C_23  and  O_24
REMARK    9  A    between atoms: O_24  and  C_25
REMARK   10  A    between atoms: C_26  and  O_27
REMARK   11  A    between atoms: O_27  and  C_28
REMARK   12  A    between atoms: C_29  and  O_30
REMARK   13  A    between atoms: O_30  and  C_31
REMARK                            x       y       z     vdW  Elec       q    Type
REMARK                         _______ _______ _______ _____ _____    ______ ____
ROOT
ATOM      1  C   UNL     1      -2.623  12.273  22.422  0.00  0.00    +0.000 C 
ATOM      2  C   UNL     1      -3.715  13.002  23.200  0.00  0.00    +0.000 C 
ATOM      3  C   UNL     1      -3.993  12.521  24.604  0.00  0.00    +0.000 C 
ATOM      4  O   UNL     1      -5.419  12.578  24.745  0.00  0.00    +0.000 OA
ATOM      5  N   UNL     1      -6.002  12.504  23.451  0.00  0.00    +0.000 NA
ATOM      6  C   UNL     1      -5.054  12.704  22.599  0.00  0.00    +0.000 C 
ATOM      7  C   UNL     1      -5.201  12.619  21.127  0.00  0.00    +0.000 A 
ATOM      8  C   UNL     1      -6.468  12.670  20.527  0.00  0.00    +0.000 A 
ATOM      9  C   UNL     1      -6.516  12.553  19.148  0.00  0.00    +0.000 A 
ATOM     10  C   UNL     1      -5.384  12.308  18.397  0.00  0.00    +0.000 A 
ATOM     11  C   UNL     1      -4.139  12.248  18.958  0.00  0.00    +0.000 A 
ATOM     12  C   UNL     1      -4.037  12.475  20.339  0.00  0.00    +0.000 A 
ATOM     13  C   UNL     1      -2.648  12.666  20.919  0.00  0.00    +0.000 C 
ATOM     14  O   UNL     1      -5.641  12.219  17.065  0.00  0.00    +0.000 OA
ATOM     15  C   UNL     1      -6.986  12.730  17.047  0.00  0.00    +0.000 C 
ATOM     16  O   UNL     1      -7.610  12.699  18.354  0.00  0.00    +0.000 OA
ENDROOT
BRANCH  13  17
ATOM     17  C   UNL     1      -2.113  14.063  20.587  0.00  0.00    +0.000 A 
ATOM     18  C   UNL     1      -2.788  15.223  20.966  0.00  0.00    +0.000 A 
ATOM     19  C   UNL     1      -2.270  16.501  20.705  0.00  0.00    +0.000 A 
ATOM     20  C   UNL     1      -1.051  16.630  20.003  0.00  0.00    +0.000 A 
ATOM     21  C   UNL     1      -0.406  15.467  19.521  0.00  0.00    +0.000 A 
ATOM     22  C   UNL     1      -0.933  14.203  19.836  0.00  0.00    +0.000 A 
BRANCH  19  23
ATOM     23  O   UNL     1      -2.880  17.649  21.145  0.00  0.00    +0.000 OA
ATOM     24  C   UNL     1      -4.141  17.971  20.563  0.00  0.00    +0.000 C 
ENDBRANCH  19  23
BRANCH  20  25
ATOM     25  O   UNL     1      -0.645  17.921  19.768  0.00  0.00    +0.000 OA
ATOM     26  C   UNL     1       0.368  18.459  20.602  0.00  0.00    +0.000 C 
ENDBRANCH  20  25
BRANCH  21  27
ATOM     27  O   UNL     1       0.701  15.628  18.739  0.00  0.00    +0.000 OA
ATOM     28  C   UNL     1       1.972  15.278  19.274  0.00  0.00    +0.000 C 
ENDBRANCH  21  27
ENDBRANCH  13  17
BRANCH   1  29
ATOM     29  C   UNL     1      -1.221  12.394  23.029  0.00  0.00    +0.000 C 
BRANCH  29  30
ATOM     30  O   UNL     1      -0.501  11.155  22.866  0.00  0.00    +0.000 OA
BRANCH  30  31
ATOM     31  C   UNL     1       0.250  11.045  21.731  0.00  0.00    +0.000 C 
ATOM     32  O   UNL     1       1.168  11.792  21.430  0.00  0.00    +0.000 OA
BRANCH  31  33
ATOM     33  C   UNL     1      -0.199   9.845  20.931  0.00  0.00    +0.000 C 
BRANCH  33  35
ATOM     34  C   UNL     1      -0.940  10.371  18.580  0.00  0.00    +0.000 C 
ATOM     35  C   UNL     1       0.224   9.961  19.467  0.00  0.00    +0.000 C 
ENDBRANCH  33  35
ENDBRANCH  31  33
ENDBRANCH  30  31
ENDBRANCH  29  30
ENDBRANCH   1  29
TORSDOF 9
ENDMDL
MODEL 4
REMARK VINA RESULT:      -7.5      0.083      1.906
REMARK  Name = 
REMARK  13 active torsions:
REMARK  status: ('A' for Active; 'I' for Inactive)
REMARK    1  A    between atoms: C_1  and  C_2
REMARK    2  A    between atoms: C_2  and  C_3
REMARK    3  A    between atoms: C_3  and  C_4
REMARK    4  A    between atoms: C_4  and  O_6
REMARK    5  A    between atoms: O_6  and  C_7
REMARK    6  A    between atoms: C_7  and  C_8
REMARK    7  A    between atoms: C_20  and  C_21
REMARK    8  A    between atoms: C_23  and  O_24
REMARK    9  A    between atoms: O_24  and  C_25
REMARK   10  A    between atoms: C_26  and  O_27
REMARK   11  A    between atoms: O_27  and  C_28
REMARK   12  A    between atoms: C_29  and  O_30
REMARK   13  A    between atoms: O_30  and  C_31
REMARK                            x       y       z     vdW  Elec       q    Type
REMARK                         _______ _______ _______ _____ _____    ______ ____
ROOT
ATOM      1  C   UNL     1       4.884   6.132  17.288  0.00  0.00    +0.000 C 
ATOM      2  C   UNL     1       5.847   6.309  18.458  0.00  0.00    +0.000 C 
ATOM      3  C   UNL     1       7.324   6.246  18.145  0.00  0.00    +0.000 C 
ATOM      4  O   UNL     1       7.906   5.519  19.236  0.00  0.00    +0.000 OA
ATOM      5  N   UNL     1       6.900   4.709  19.825  0.00  0.00    +0.000 NA
ATOM      6  C   UNL     1       5.766   5.124  19.369  0.00  0.00    +0.000 C 
ATOM      7  C   UNL     1       4.455   4.496  19.650  0.00  0.00    +0.000 A 
ATOM      8  C   UNL     1       4.296   3.615  20.730  0.00  0.00    +0.000 A 
ATOM      9  C   UNL     1       3.043   3.050  20.902  0.00  0.00    +0.000 A 
ATOM     10  C   UNL     1       2.016   3.268  20.007  0.00  0.00    +0.000 A 
ATOM     11  C   UNL     1       2.146   4.118  18.944  0.00  0.00    +0.000 A 
ATOM     12  C   UNL     1       3.366   4.798  18.801  0.00  0.00    +0.000 A 
ATOM     13  C   UNL     1       3.427   5.924  17.787  0.00  0.00    +0.000 C 
ATOM     14  O   UNL     1       0.870   2.621  20.348  0.00  0.00    +0.000 OA
ATOM     15  C   UNL     1       1.207   2.231  21.691  0.00  0.00    +0.000 C 
ATOM     16  O   UNL     1       2.633   2.276  21.942  0.00  0.00    +0.000 OA
ENDROOT
BRANCH  13  17
ATOM     17  C   UNL     1       2.724   7.174  18.327  0.00  0.00    +0.000 A 
ATOM     18  C   UNL     1       2.027   7.167  19.535  0.00  0.00    +0.000 A 
ATOM     19  C   UNL     1       1.427   8.326  20.051  0.00  0.00    +0.000 A 
ATOM     20  C   UNL     1       1.488   9.531  19.317  0.00  0.00    +0.000 A 
ATOM     21  C   UNL     1       2.103   9.531  18.042  0.00  0.00    +0.000 A 
ATOM     22  C   UNL     1       2.727   8.362  17.576  0.00  0.00    +0.000 A 
BRANCH  19  23
ATOM     23  O   UNL     1       0.809   8.355  21.276  0.00  0.00    +0.000 OA
ATOM     24  C   UNL     1       1.490   9.040  22.324  0.00  0.00    +0.000 C 
ENDBRANCH  19  23
BRANCH  20  25
ATOM     25  O   UNL     1       0.843  10.600  19.889  0.00  0.00    +0.000 OA
ATOM     26  C   UNL     1      -0.509  10.828  19.528  0.00  0.00    +0.000 C 
ENDBRANCH  20  25
BRANCH  21  27
ATOM     27  O   UNL     1       2.038  10.675  17.302  0.00  0.00    +0.000 OA
ATOM     28  C   UNL     1       2.645  11.856  17.814  0.00  0.00    +0.000 C 
ENDBRANCH  21  27
ENDBRANCH  13  17
BRANCH   1  29
ATOM     29  C   UNL     1       4.978   7.223  16.215  0.00  0.00    +0.000 C 
BRANCH  29  30
ATOM     30  O   UNL     1       5.134   6.625  14.912  0.00  0.00    +0.000 OA
BRANCH  30  31
ATOM     31  C   UNL     1       6.061   5.627  14.820  0.00  0.00    +0.000 C 
ATOM     32  O   UNL     1       7.249   5.756  15.073  0.00  0.00    +0.000 OA
BRANCH  31  33
ATOM     33  C   UNL     1       5.392   4.340  14.398  0.00  0.00    +0.000 C 
BRANCH  33  35
ATOM     34  C   UNL     1       5.257   3.339  12.089  0.00  0.00    +0.000 C 
ATOM     35  C   UNL     1       6.161   3.655  13.269  0.00  0.00    +0.000 C 
ENDBRANCH  33  35
ENDBRANCH  31  33
ENDBRANCH  30  31
ENDBRANCH  29  30
ENDBRANCH   1  29
TORSDOF 9
ENDMDL
MODEL 5
REMARK VINA RESULT:      -7.5      4.103      9.485
REMARK  Name = 
REMARK  13 active torsions:
REMARK  status: ('A' for Active; 'I' for Inactive)
REMARK    1  A    between atoms: C_1  and  C_2
REMARK    2  A    between atoms: C_2  and  C_3
REMARK    3  A    between atoms: C_3  and  C_4
REMARK    4  A    between atoms: C_4  and  O_6
REMARK    5  A    between atoms: O_6  and  C_7
REMARK    6  A    between atoms: C_7  and  C_8
REMARK    7  A    between atoms: C_20  and  C_21
REMARK    8  A    between atoms: C_23  and  O_24
REMARK    9  A    between atoms: O_24  and  C_25
REMARK   10  A    between atoms: C_26  and  O_27
REMARK   11  A    between atoms: O_27  and  C_28
REMARK   12  A    between atoms: C_29  and  O_30
REMARK   13  A    between atoms: O_30  and  C_31
REMARK                            x       y       z     vdW  Elec       q    Type
REMARK                         _______ _______ _______ _____ _____    ______ ____
ROOT
ATOM      1  C   UNL     1      -1.353  12.250  19.031  0.00  0.00    +0.000 C 
ATOM      2  C   UNL     1      -1.415  12.675  20.496  0.00  0.00    +0.000 C 
ATOM      3  C   UNL     1      -2.711  13.281  20.979  0.00  0.00    +0.000 C 
ATOM      4  O   UNL     1      -2.322  14.350  21.852  0.00  0.00    +0.000 OA
ATOM      5  N   UNL     1      -1.011  14.766  21.497  0.00  0.00    +0.000 NA
ATOM      6  C   UNL     1      -0.525  13.857  20.721  0.00  0.00    +0.000 C 
ATOM      7  C   UNL     1       0.789  13.934  20.040  0.00  0.00    +0.000 A 
ATOM      8  C   UNL     1       1.770  14.838  20.470  0.00  0.00    +0.000 A 
ATOM      9  C   UNL     1       2.958  14.864  19.758  0.00  0.00    +0.000 A 
ATOM     10  C   UNL     1       3.143  14.103  18.622  0.00  0.00    +0.000 A 
ATOM     11  C   UNL     1       2.200  13.218  18.178  0.00  0.00    +0.000 A 
ATOM     12  C   UNL     1       1.029  13.080  18.940  0.00  0.00    +0.000 A 
ATOM     13  C   UNL     1       0.104  11.926  18.603  0.00  0.00    +0.000 C 
ATOM     14  O   UNL     1       4.370  14.275  18.063  0.00  0.00    +0.000 OA
ATOM     15  C   UNL     1       5.022  14.983  19.133  0.00  0.00    +0.000 C 
ATOM     16  O   UNL     1       4.081  15.564  20.069  0.00  0.00    +0.000 OA
ENDROOT
BRANCH  13  17
ATOM     17  C   UNL     1       0.676  10.606  19.130  0.00  0.00    +0.000 A 
ATOM     18  C   UNL     1       0.748  10.323  20.494  0.00  0.00    +0.000 A 
ATOM     19  C   UNL     1       1.225   9.093  20.971  0.00  0.00    +0.000 A 
ATOM     20  C   UNL     1       1.687   8.120  20.057  0.00  0.00    +0.000 A 
ATOM     21  C   UNL     1       1.717   8.430  18.677  0.00  0.00    +0.000 A 
ATOM     22  C   UNL     1       1.194   9.657  18.233  0.00  0.00    +0.000 A 
BRANCH  19  23
ATOM     23  O   UNL     1       1.224   8.768  22.305  0.00  0.00    +0.000 OA
ATOM     24  C   UNL     1       0.285   9.450  23.132  0.00  0.00    +0.000 C 
ENDBRANCH  19  23
BRANCH  20  25
ATOM     25  O   UNL     1       2.165   6.963  20.624  0.00  0.00    +0.000 OA
ATOM     26  C   UNL     1       1.366   5.796  20.519  0.00  0.00    +0.000 C 
ENDBRANCH  20  25
BRANCH  21  27
ATOM     27  O   UNL     1       2.284   7.522  17.831  0.00  0.00    +0.000 OA
ATOM     28  C   UNL     1       3.690   7.574  17.615  0.00  0.00    +0.000 C 
ENDBRANCH  21  27
ENDBRANCH  13  17
BRANCH   1  29
ATOM     29  C   UNL     1      -2.330  11.131  18.652  0.00  0.00    +0.000 C 
BRANCH  29  30
ATOM     30  O   UNL     1      -3.619  11.690  18.320  0.00  0.00    +0.000 OA
BRANCH  30  31
ATOM     31  C   UNL     1      -4.180  11.246  17.157  0.00  0.00    +0.000 C 
ATOM     32  O   UNL     1      -5.201  11.697  16.661  0.00  0.00    +0.000 OA
BRANCH  31  33
ATOM     33  C   UNL     1      -3.331  10.146  16.563  0.00  0.00    +0.000 C 
BRANCH  33  35
ATOM     34  C   UNL     1      -3.645   9.987  14.068  0.00  0.00    +0.000 C 
ATOM     35  C   UNL     1      -2.785  10.542  15.192  0.00  0.00    +0.000 C 
ENDBRANCH  33  35
ENDBRANCH  31  33
ENDBRANCH  30  31
ENDBRANCH  29  30
ENDBRANCH   1  29
TORSDOF 9
ENDMDL
MODEL 6
REMARK VINA RESULT:      -7.5      4.452      8.719
REMARK  Name = 
REMARK  13 active torsions:
REMARK  status: ('A' for Active; 'I' for Inactive)
REMARK    1  A    between atoms: C_1  and  C_2
REMARK    2  A    between atoms: C_2  and  C_3
REMARK    3  A    between atoms: C_3  and  C_4
REMARK    4  A    between atoms: C_4  and  O_6
REMARK    5  A    between atoms: O_6  and  C_7
REMARK    6  A    between atoms: C_7  and  C_8
REMARK    7  A    between atoms: C_20  and  C_21
REMARK    8  A    between atoms: C_23  and  O_24
REMARK    9  A    between atoms: O_24  and  C_25
REMARK   10  A    between atoms: C_26  and  O_27
REMARK   11  A    between atoms: O_27  and  C_28
REMARK   12  A    between atoms: C_29  and  O_30
REMARK   13  A    between atoms: O_30  and  C_31
REMARK                            x       y       z     vdW  Elec       q    Type
REMARK                         _______ _______ _______ _____ _____    ______ ____
ROOT
ATOM      1  C   UNL     1      -0.093  10.887  20.156  0.00  0.00    +0.000 C 
ATOM      2  C   UNL     1       0.549  10.796  21.537  0.00  0.00    +0.000 C 
ATOM      3  C   UNL     1       1.187   9.479  21.912  0.00  0.00    +0.000 C 
ATOM      4  O   UNL     1       0.852   9.279  23.291  0.00  0.00    +0.000 OA
ATOM      5  N   UNL     1      -0.326  10.019  23.580  0.00  0.00    +0.000 NA
ATOM      6  C   UNL     1      -0.510  10.833  22.595  0.00  0.00    +0.000 C 
ATOM      7  C   UNL     1      -1.679  11.730  22.440  0.00  0.00    +0.000 A 
ATOM      8  C   UNL     1      -2.503  12.033  23.533  0.00  0.00    +0.000 A 
ATOM      9  C   UNL     1      -3.591  12.855  23.292  0.00  0.00    +0.000 A 
ATOM     10  C   UNL     1      -3.909  13.290  22.022  0.00  0.00    +0.000 A 
ATOM     11  C   UNL     1      -3.125  13.005  20.938  0.00  0.00    +0.000 A 
ATOM     12  C   UNL     1      -1.951  12.269  21.162  0.00  0.00    +0.000 A 
ATOM     13  C   UNL     1      -0.956  12.172  20.022  0.00  0.00    +0.000 C 
ATOM     14  O   UNL     1      -5.015  14.080  21.994  0.00  0.00    +0.000 OA
ATOM     15  C   UNL     1      -5.165  14.330  23.403  0.00  0.00    +0.000 C 
ATOM     16  O   UNL     1      -4.442  13.374  24.217  0.00  0.00    +0.000 OA
ENDROOT
BRANCH  13  17
ATOM     17  C   UNL     1      -0.177  13.484  19.874  0.00  0.00    +0.000 A 
ATOM     18  C   UNL     1       0.923  13.786  20.675  0.00  0.00    +0.000 A 
ATOM     19  C   UNL     1       1.664  14.965  20.503  0.00  0.00    +0.000 A 
ATOM     20  C   UNL     1       1.270  15.901  19.521  0.00  0.00    +0.000 A 
ATOM     21  C   UNL     1       0.096  15.658  18.769  0.00  0.00    +0.000 A 
ATOM     22  C   UNL     1      -0.598  14.448  18.942  0.00  0.00    +0.000 A 
BRANCH  19  23
ATOM     23  O   UNL     1       2.798  15.237  21.227  0.00  0.00    +0.000 OA
ATOM     24  C   UNL     1       3.761  14.191  21.331  0.00  0.00    +0.000 C 
ENDBRANCH  19  23
BRANCH  20  25
ATOM     25  O   UNL     1       2.039  17.037  19.452  0.00  0.00    +0.000 OA
ATOM     26  C   UNL     1       3.058  17.089  18.468  0.00  0.00    +0.000 C 
ENDBRANCH  20  25
BRANCH  21  27
ATOM     27  O   UNL     1      -0.330  16.636  17.918  0.00  0.00    +0.000 OA
ATOM     28  C   UNL     1      -1.234  17.621  18.406  0.00  0.00    +0.000 C 
ENDBRANCH  21  27
ENDBRANCH  13  17
BRANCH   1  29
ATOM     29  C   UNL     1       0.886  10.722  18.988  0.00  0.00    +0.000 C 
BRANCH  29  30
ATOM     30  O   UNL     1       0.750   9.408  18.408  0.00  0.00    +0.000 OA
BRANCH  30  31
ATOM     31  C   UNL     1       1.909   8.807  18.011  0.00  0.00    +0.000 C 
ATOM     32  O   UNL     1       2.604   9.184  17.079  0.00  0.00    +0.000 OA
BRANCH  31  33
ATOM     33  C   UNL     1       2.219   7.638  18.916  0.00  0.00    +0.000 C 
BRANCH  33  35
ATOM     34  C   UNL     1       2.236   5.265  18.068  0.00  0.00    +0.000 C 
ATOM     35  C   UNL     1       3.020   6.563  18.183  0.00  0.00    +0.000 C 
ENDBRANCH  33  35
ENDBRANCH  31  33
ENDBRANCH  30  31
ENDBRANCH  29  30
ENDBRANCH   1  29
TORSDOF 9
ENDMDL
MODEL 7
REMARK VINA RESULT:      -7.4      6.245     10.845
REMARK  Name = 
REMARK  13 active torsions:
REMARK  status: ('A' for Active; 'I' for Inactive)
REMARK    1  A    between atoms: C_1  and  C_2
REMARK    2  A    between atoms: C_2  and  C_3
REMARK    3  A    between atoms: C_3  and  C_4
REMARK    4  A    between atoms: C_4  and  O_6
REMARK    5  A    between atoms: O_6  and  C_7
REMARK    6  A    between atoms: C_7  and  C_8
REMARK    7  A    between atoms: C_20  and  C_21
REMARK    8  A    between atoms: C_23  and  O_24
REMARK    9  A    between atoms: O_24  and  C_25
REMARK   10  A    between atoms: C_26  and  O_27
REMARK   11  A    between atoms: O_27  and  C_28
REMARK   12  A    between atoms: C_29  and  O_30
REMARK   13  A    between atoms: O_30  and  C_31
REMARK                            x       y       z     vdW  Elec       q    Type
REMARK                         _______ _______ _______ _____ _____    ______ ____
ROOT
ATOM      1  C   UNL     1      -2.442  11.902  22.201  0.00  0.00    +0.000 C 
ATOM      2  C   UNL     1      -3.356  12.840  22.985  0.00  0.00    +0.000 C 
ATOM      3  C   UNL     1      -3.675  12.453  24.410  0.00  0.00    +0.000 C 
ATOM      4  O   UNL     1      -5.060  12.777  24.585  0.00  0.00    +0.000 OA
ATOM      5  N   UNL     1      -5.686  12.780  23.310  0.00  0.00    +0.000 NA
ATOM      6  C   UNL     1      -4.744  12.781  22.428  0.00  0.00    +0.000 C 
ATOM      7  C   UNL     1      -4.950  12.688  20.964  0.00  0.00    +0.000 A 
ATOM      8  C   UNL     1      -6.203  12.959  20.395  0.00  0.00    +0.000 A 
ATOM      9  C   UNL     1      -6.314  12.820  19.021  0.00  0.00    +0.000 A 
ATOM     10  C   UNL     1      -5.271  12.350  18.250  0.00  0.00    +0.000 A 
ATOM     11  C   UNL     1      -4.041  12.074  18.780  0.00  0.00    +0.000 A 
ATOM     12  C   UNL     1      -3.856  12.312  20.151  0.00  0.00    +0.000 A 
ATOM     13  C   UNL     1      -2.440  12.256  20.689  0.00  0.00    +0.000 C 
ATOM     14  O   UNL     1      -5.581  12.278  16.928  0.00  0.00    +0.000 OA
ATOM     15  C   UNL     1      -6.807  13.029  16.929  0.00  0.00    +0.000 C 
ATOM     16  O   UNL     1      -7.386  13.147  18.252  0.00  0.00    +0.000 OA
ENDROOT
BRANCH  13  17
ATOM     17  C   UNL     1      -1.666  13.522  20.302  0.00  0.00    +0.000 A 
ATOM     18  C   UNL     1      -2.148  14.799  20.585  0.00  0.00    +0.000 A 
ATOM     19  C   UNL     1      -1.414  15.954  20.275  0.00  0.00    +0.000 A 
ATOM     20  C   UNL     1      -0.168  15.835  19.620  0.00  0.00    +0.000 A 
ATOM     21  C   UNL     1       0.288  14.553  19.234  0.00  0.00    +0.000 A 
ATOM     22  C   UNL     1      -0.455  13.416  19.597  0.00  0.00    +0.000 A 
BRANCH  19  23
ATOM     23  O   UNL     1      -1.837  17.213  20.622  0.00  0.00    +0.000 OA
ATOM     24  C   UNL     1      -2.993  17.710  19.953  0.00  0.00    +0.000 C 
ENDBRANCH  19  23
BRANCH  20  25
ATOM     25  O   UNL     1       0.457  17.023  19.331  0.00  0.00    +0.000 OA
ATOM     26  C   UNL     1       0.258  17.579  18.041  0.00  0.00    +0.000 C 
ENDBRANCH  20  25
BRANCH  21  27
ATOM     27  O   UNL     1       1.432  14.478  18.494  0.00  0.00    +0.000 OA
ATOM     28  C   UNL     1       2.204  13.284  18.548  0.00  0.00    +0.000 C 
ENDBRANCH  21  27
ENDBRANCH  13  17
BRANCH   1  29
ATOM     29  C   UNL     1      -1.023  11.776  22.769  0.00  0.00    +0.000 C 
BRANCH  29  30
ATOM     30  O   UNL     1      -0.850  10.486  23.390  0.00  0.00    +0.000 OA
BRANCH  30  31
ATOM     31  C   UNL     1       0.192   9.735  22.928  0.00  0.00    +0.000 C 
ATOM     32  O   UNL     1       1.260   9.598  23.505  0.00  0.00    +0.000 OA
BRANCH  31  33
ATOM     33  C   UNL     1      -0.187   9.076  21.623  0.00  0.00    +0.000 C 
BRANCH  33  35
ATOM     34  C   UNL     1       1.461   7.346  20.823  0.00  0.00    +0.000 C 
ATOM     35  C   UNL     1       1.042   8.806  20.756  0.00  0.00    +0.000 C 
ENDBRANCH  33  35
ENDBRANCH  31  33
ENDBRANCH  30  31
ENDBRANCH  29  30
ENDBRANCH   1  29
TORSDOF 9
ENDMDL
MODEL 8
REMARK VINA RESULT:      -7.4      6.565     11.308
REMARK  Name = 
REMARK  13 active torsions:
REMARK  status: ('A' for Active; 'I' for Inactive)
REMARK    1  A    between atoms: C_1  and  C_2
REMARK    2  A    between atoms: C_2  and  C_3
REMARK    3  A    between atoms: C_3  and  C_4
REMARK    4  A    between atoms: C_4  and  O_6
REMARK    5  A    between atoms: O_6  and  C_7
REMARK    6  A    between atoms: C_7  and  C_8
REMARK    7  A    between atoms: C_20  and  C_21
REMARK    8  A    between atoms: C_23  and  O_24
REMARK    9  A    between atoms: O_24  and  C_25
REMARK   10  A    between atoms: C_26  and  O_27
REMARK   11  A    between atoms: O_27  and  C_28
REMARK   12  A    between atoms: C_29  and  O_30
REMARK   13  A    between atoms: O_30  and  C_31
REMARK                            x       y       z     vdW  Elec       q    Type
REMARK                         _______ _______ _______ _____ _____    ______ ____
ROOT
ATOM      1  C   UNL     1      -4.596  13.678  20.808  0.00  0.00    +0.000 C 
ATOM      2  C   UNL     1      -4.982  12.602  21.819  0.00  0.00    +0.000 C 
ATOM      3  C   UNL     1      -6.439  12.206  21.875  0.00  0.00    +0.000 C 
ATOM      4  O   UNL     1      -6.727  12.032  23.269  0.00  0.00    +0.000 OA
ATOM      5  N   UNL     1      -5.795  12.798  24.019  0.00  0.00    +0.000 NA
ATOM      6  C   UNL     1      -4.850  13.140  23.210  0.00  0.00    +0.000 C 
ATOM      7  C   UNL     1      -3.716  14.029  23.554  0.00  0.00    +0.000 A 
ATOM      8  C   UNL     1      -3.379  14.280  24.892  0.00  0.00    +0.000 A 
ATOM      9  C   UNL     1      -2.323  15.147  25.123  0.00  0.00    +0.000 A 
ATOM     10  C   UNL     1      -1.684  15.807  24.095  0.00  0.00    +0.000 A 
ATOM     11  C   UNL     1      -1.996  15.584  22.782  0.00  0.00    +0.000 A 
ATOM     12  C   UNL     1      -2.984  14.627  22.503  0.00  0.00    +0.000 A 
ATOM     13  C   UNL     1      -3.151  14.191  21.060  0.00  0.00    +0.000 C 
ATOM     14  O   UNL     1      -0.681  16.617  24.528  0.00  0.00    +0.000 OA
ATOM     15  C   UNL     1      -0.575  16.159  25.887  0.00  0.00    +0.000 C 
ATOM     16  O   UNL     1      -1.750  15.433  26.322  0.00  0.00    +0.000 OA
ENDROOT
BRANCH  13  17
ATOM     17  C   UNL     1      -2.024  13.237  20.651  0.00  0.00    +0.000 A 
ATOM     18  C   UNL     1      -1.786  12.041  21.327  0.00  0.00    +0.000 A 
ATOM     19  C   UNL     1      -0.785  11.146  20.919  0.00  0.00    +0.000 A 
ATOM     20  C   UNL     1       0.038  11.472  19.819  0.00  0.00    +0.000 A 
ATOM     21  C   UNL     1      -0.122  12.728  19.186  0.00  0.00    +0.000 A 
ATOM     22  C   UNL     1      -1.161  13.581  19.597  0.00  0.00    +0.000 A 
BRANCH  19  23
ATOM     23  O   UNL     1      -0.593   9.927  21.522  0.00  0.00    +0.000 OA
ATOM     24  C   UNL     1      -0.442   9.928  22.939  0.00  0.00    +0.000 C 
ENDBRANCH  19  23
BRANCH  20  25
ATOM     25  O   UNL     1       1.009  10.548  19.518  0.00  0.00    +0.000 OA
ATOM     26  C   UNL     1       0.840   9.768  18.345  0.00  0.00    +0.000 C 
ENDBRANCH  20  25
BRANCH  21  27
ATOM     27  O   UNL     1       0.767  13.069  18.209  0.00  0.00    +0.000 OA
ATOM     28  C   UNL     1       1.792  14.006  18.515  0.00  0.00    +0.000 C 
ENDBRANCH  21  27
ENDBRANCH  13  17
BRANCH   1  29
ATOM     29  C   UNL     1      -4.822  13.284  19.343  0.00  0.00    +0.000 C 
BRANCH  29  30
ATOM     30  O   UNL     1      -4.558  11.877  19.162  0.00  0.00    +0.000 OA
BRANCH  30  31
ATOM     31  C   UNL     1      -4.471  11.448  17.869  0.00  0.00    +0.000 C 
ATOM     32  O   UNL     1      -5.163  11.860  16.951  0.00  0.00    +0.000 OA
BRANCH  31  33
ATOM     33  C   UNL     1      -3.371  10.420  17.742  0.00  0.00    +0.000 C 
BRANCH  33  35
ATOM     34  C   UNL     1      -2.763  10.082  15.319  0.00  0.00    +0.000 C 
ATOM     35  C   UNL     1      -2.398  10.781  16.620  0.00  0.00    +0.000 C 
ENDBRANCH  33  35
ENDBRANCH  31  33
ENDBRANCH  30  31
ENDBRANCH  29  30
ENDBRANCH   1  29
TORSDOF 9
ENDMDL
MODEL 9
REMARK VINA RESULT:      -7.3      7.391     11.199
REMARK  Name = 
REMARK  13 active torsions:
REMARK  status: ('A' for Active; 'I' for Inactive)
REMARK    1  A    between atoms: C_1  and  C_2
REMARK    2  A    between atoms: C_2  and  C_3
REMARK    3  A    between atoms: C_3  and  C_4
REMARK    4  A    between atoms: C_4  and  O_6
REMARK    5  A    between atoms: O_6  and  C_7
REMARK    6  A    between atoms: C_7  and  C_8
REMARK    7  A    between atoms: C_20  and  C_21
REMARK    8  A    between atoms: C_23  and  O_24
REMARK    9  A    between atoms: O_24  and  C_25
REMARK   10  A    between atoms: C_26  and  O_27
REMARK   11  A    between atoms: O_27  and  C_28
REMARK   12  A    between atoms: C_29  and  O_30
REMARK   13  A    between atoms: O_30  and  C_31
REMARK                            x       y       z     vdW  Elec       q    Type
REMARK                         _______ _______ _______ _____ _____    ______ ____
ROOT
ATOM      1  C   UNL     1      -1.517  12.053  22.794  0.00  0.00    +0.000 C 
ATOM      2  C   UNL     1      -0.801  10.842  22.203  0.00  0.00    +0.000 C 
ATOM      3  C   UNL     1      -0.296   9.803  23.177  0.00  0.00    +0.000 C 
ATOM      4  O   UNL     1       0.980   9.397  22.663  0.00  0.00    +0.000 OA
ATOM      5  N   UNL     1       1.492  10.446  21.852  0.00  0.00    +0.000 NA
ATOM      6  C   UNL     1       0.516  11.259  21.628  0.00  0.00    +0.000 C 
ATOM      7  C   UNL     1       0.631  12.545  20.901  0.00  0.00    +0.000 A 
ATOM      8  C   UNL     1       1.737  12.811  20.081  0.00  0.00    +0.000 A 
ATOM      9  C   UNL     1       1.778  14.050  19.462  0.00  0.00    +0.000 A 
ATOM     10  C   UNL     1       0.825  15.018  19.705  0.00  0.00    +0.000 A 
ATOM     11  C   UNL     1      -0.260  14.786  20.504  0.00  0.00    +0.000 A 
ATOM     12  C   UNL     1      -0.396  13.503  21.058  0.00  0.00    +0.000 A 
ATOM     13  C   UNL     1      -1.715  13.163  21.725  0.00  0.00    +0.000 C 
ATOM     14  O   UNL     1       1.046  16.165  19.009  0.00  0.00    +0.000 OA
ATOM     15  C   UNL     1       2.053  15.698  18.094  0.00  0.00    +0.000 C 
ATOM     16  O   UNL     1       2.681  14.470  18.537  0.00  0.00    +0.000 OA
ENDROOT
BRANCH  13  17
ATOM     17  C   UNL     1      -2.796  12.891  20.673  0.00  0.00    +0.000 A 
ATOM     18  C   UNL     1      -2.534  12.160  19.515  0.00  0.00    +0.000 A 
ATOM     19  C   UNL     1      -3.539  11.870  18.579  0.00  0.00    +0.000 A 
ATOM     20  C   UNL     1      -4.847  12.360  18.783  0.00  0.00    +0.000 A 
ATOM     21  C   UNL     1      -5.106  13.189  19.901  0.00  0.00    +0.000 A 
ATOM     22  C   UNL     1      -4.086  13.425  20.837  0.00  0.00    +0.000 A 
BRANCH  19  23
ATOM     23  O   UNL     1      -3.315  11.082  17.477  0.00  0.00    +0.000 OA
ATOM     24  C   UNL     1      -3.082   9.696  17.713  0.00  0.00    +0.000 C 
ENDBRANCH  19  23
BRANCH  20  25
ATOM     25  O   UNL     1      -5.750  12.050  17.796  0.00  0.00    +0.000 OA
ATOM     26  C   UNL     1      -6.768  11.110  18.100  0.00  0.00    +0.000 C 
ENDBRANCH  20  25
BRANCH  21  27
ATOM     27  O   UNL     1      -6.346  13.750  20.006  0.00  0.00    +0.000 OA
ATOM     28  C   UNL     1      -7.159  13.406  21.122  0.00  0.00    +0.000 C 
ENDBRANCH  21  27
ENDBRANCH  13  17
BRANCH   1  29
ATOM     29  C   UNL     1      -2.819  11.724  23.533  0.00  0.00    +0.000 C 
BRANCH  29  30
ATOM     30  O   UNL     1      -3.292  12.886  24.245  0.00  0.00    +0.000 OA
BRANCH  30  31
ATOM     31  C   UNL     1      -4.647  13.047  24.294  0.00  0.00    +0.000 C 
ATOM     32  O   UNL     1      -5.443  12.158  24.554  0.00  0.00    +0.000 OA
BRANCH  31  33
ATOM     33  C   UNL     1      -5.005  14.488  24.015  0.00  0.00    +0.000 C 
BRANCH  33  35
ATOM     34  C   UNL     1      -3.910  16.521  23.006  0.00  0.00    +0.000 C 
ATOM     35  C   UNL     1      -3.763  15.378  23.998  0.00  0.00    +0.000 C 
ENDBRANCH  33  35
ENDBRANCH  31  33
ENDBRANCH  30  31
ENDBRANCH  29  30
ENDBRANCH   1  29
TORSDOF 9
ENDMDL
