MODEL 1
REMARK VINA RESULT:      -8.4      0.000      0.000
REMARK  Name = 
REMARK  4 active torsions:
REMARK  status: ('A' for Active; 'I' for Inactive)
REMARK    1  A    between atoms: C_1  and  O_2
REMARK    2  A    between atoms: O_2  and  C_3
REMARK    3  A    between atoms: C_7  and  C_8
REMARK    4  A    between atoms: C_15  and  C_16
REMARK                            x       y       z     vdW  Elec       q    Type
REMARK                         _______ _______ _______ _____ _____    ______ ____
ROOT
ATOM      1  C   UNL     1      -0.495  10.739  22.478  0.00  0.00    +0.000 C 
ATOM      2  O   UNL     1      -0.209  10.029  23.437  0.00  0.00    +0.000 OA
ATOM      3  N   UNL     1      -0.159  10.516  21.161  0.00  0.00    +0.000 N 
ATOM      4  C   UNL     1       0.540   9.415  20.729  0.00  0.00    +0.000 A 
ATOM      5  N   UNL     1       1.106   9.453  19.483  0.00  0.00    +0.000 NA
ATOM      6  C   UNL     1       1.745   8.304  19.409  0.00  0.00    +0.000 A 
ATOM      7  C   UNL     1       2.581   7.720  18.409  0.00  0.00    +0.000 A 
ATOM      8  C   UNL     1       3.075   6.469  18.574  0.00  0.00    +0.000 A 
ATOM      9  C   UNL     1       2.758   5.709  19.786  0.00  0.00    +0.000 A 
ATOM     10  C   UNL     1       1.992   6.267  20.738  0.00  0.00    +0.000 A 
ATOM     11  N   UNL     1       1.498   7.556  20.561  0.00  0.00    +0.000 N 
ATOM     12  N   UNL     1       0.733   8.280  21.397  0.00  0.00    +0.000 NA
ATOM     13  H   UNL     1      -0.248  11.241  20.467  0.00  0.00    +0.000 HD
ENDROOT
BRANCH   1  18
ATOM     14  C   UNL     1      -3.042  13.299  23.691  0.00  0.00    +0.000 A 
ATOM     15  C   UNL     1      -2.394  14.481  23.320  0.00  0.00    +0.000 A 
ATOM     16  C   UNL     1      -1.156  14.443  22.682  0.00  0.00    +0.000 A 
ATOM     17  C   UNL     1      -0.560  13.213  22.410  0.00  0.00    +0.000 A 
ATOM     18  C   UNL     1      -1.204  12.019  22.766  0.00  0.00    +0.000 A 
ATOM     19  C   UNL     1      -2.446  12.063  23.418  0.00  0.00    +0.000 A 
BRANCH  14  21
ATOM     20  C   UNL     1      -5.410  13.044  23.632  0.00  0.00    +0.000 C 
ATOM     21  O   UNL     1      -4.245  13.496  24.314  0.00  0.00    +0.000 OA
ENDBRANCH  14  21
ENDBRANCH   1  18
BRANCH   8  22
ATOM     22  C   UNL     1       3.896   5.882  17.496  0.00  0.00    +0.000 A 
ATOM     23  C   UNL     1       4.641   6.691  16.629  0.00  0.00    +0.000 A 
ATOM     24  C   UNL     1       5.441   6.112  15.640  0.00  0.00    +0.000 A 
ATOM     25  C   UNL     1       5.505   4.724  15.514  0.00  0.00    +0.000 A 
ATOM     26  C   UNL     1       4.772   3.913  16.380  0.00  0.00    +0.000 A 
ATOM     27  C   UNL     1       3.972   4.490  17.368  0.00  0.00    +0.000 A 
ENDBRANCH   8  22
TORSDOF 3
ENDMDL
MODEL 2
REMARK VINA RESULT:      -8.2      0.973      1.635
REMARK  Name = 
REMARK  4 active torsions:
REMARK  status: ('A' for Active; 'I' for Inactive)
REMARK    1  A    between atoms: C_1  and  O_2
REMARK    2  A    between atoms: O_2  and  C_3
REMARK    3  A    between atoms: C_7  and  C_8
REMARK    4  A    between atoms: C_15  and  C_16
REMARK                            x       y       z     vdW  Elec       q    Type
REMARK                         _______ _______ _______ _____ _____    ______ ____
ROOT
ATOM      1  C   UNL     1      -0.459  10.710  22.531  0.00  0.00    +0.000 C 
ATOM      2  O   UNL     1      -0.168   9.988  23.480  0.00  0.00    +0.000 OA
ATOM      3  N   UNL     1      -0.132  10.502  21.209  0.00  0.00    +0.000 N 
ATOM      4  C   UNL     1       0.562   9.405  20.760  0.00  0.00    +0.000 A 
ATOM      5  N   UNL     1       1.121   9.457  19.510  0.00  0.00    +0.000 NA
ATOM      6  C   UNL     1       1.757   8.308  19.419  0.00  0.00    +0.000 A 
ATOM      7  C   UNL     1       2.586   7.735  18.406  0.00  0.00    +0.000 A 
ATOM      8  C   UNL     1       3.078   6.481  18.554  0.00  0.00    +0.000 A 
ATOM      9  C   UNL     1       2.768   5.708  19.758  0.00  0.00    +0.000 A 
ATOM     10  C   UNL     1       2.009   6.255  20.722  0.00  0.00    +0.000 A 
ATOM     11  N   UNL     1       1.517   7.547  20.563  0.00  0.00    +0.000 N 
ATOM     12  N   UNL     1       0.757   8.262  21.413  0.00  0.00    +0.000 NA
ATOM     13  H   UNL     1      -0.224  11.236  20.525  0.00  0.00    +0.000 HD
ENDROOT
BRANCH   1  18
ATOM     14  C   UNL     1      -1.329  14.406  22.846  0.00  0.00    +0.000 A 
ATOM     15  C   UNL     1      -2.615  14.306  23.387  0.00  0.00    +0.000 A 
ATOM     16  C   UNL     1      -3.183  13.062  23.649  0.00  0.00    +0.000 A 
ATOM     17  C   UNL     1      -2.458  11.904  23.369  0.00  0.00    +0.000 A 
ATOM     18  C   UNL     1      -1.164  11.988  22.839  0.00  0.00    +0.000 A 
ATOM     19  C   UNL     1      -0.601  13.244  22.567  0.00  0.00    +0.000 A 
BRANCH  14  21
ATOM     20  C   UNL     1      -1.802  16.734  23.016  0.00  0.00    +0.000 C 
ATOM     21  O   UNL     1      -0.909  15.692  22.639  0.00  0.00    +0.000 OA
ENDBRANCH  14  21
ENDBRANCH   1  18
BRANCH   8  22
ATOM     22  C   UNL     1       3.891   5.906  17.463  0.00  0.00    +0.000 A 
ATOM     23  C   UNL     1       4.610   6.726  16.584  0.00  0.00    +0.000 A 
ATOM     24  C   UNL     1       5.404   6.158  15.583  0.00  0.00    +0.000 A 
ATOM     25  C   UNL     1       5.487   4.771  15.457  0.00  0.00    +0.000 A 
ATOM     26  C   UNL     1       4.781   3.949  16.335  0.00  0.00    +0.000 A 
ATOM     27  C   UNL     1       3.987   4.515  17.335  0.00  0.00    +0.000 A 
ENDBRANCH   8  22
TORSDOF 3
ENDMDL
MODEL 3
REMARK VINA RESULT:      -8.2      2.883     10.171
REMARK  Name = 
REMARK  4 active torsions:
REMARK  status: ('A' for Active; 'I' for Inactive)
REMARK    1  A    between atoms: C_1  and  O_2
REMARK    2  A    between atoms: O_2  and  C_3
REMARK    3  A    between atoms: C_7  and  C_8
REMARK    4  A    between atoms: C_15  and  C_16
REMARK                            x       y       z     vdW  Elec       q    Type
REMARK                         _______ _______ _______ _____ _____    ______ ____
ROOT
ATOM      1  C   UNL     1       2.571   7.057  19.379  0.00  0.00    +0.000 C 
ATOM      2  O   UNL     1       2.746   7.802  18.419  0.00  0.00    +0.000 OA
ATOM      3  N   UNL     1       1.800   7.316  20.490  0.00  0.00    +0.000 N 
ATOM      4  C   UNL     1       1.077   8.471  20.663  0.00  0.00    +0.000 A 
ATOM      5  N   UNL     1       0.627   8.774  21.921  0.00  0.00    +0.000 NA
ATOM      6  C   UNL     1       0.051   9.947  21.758  0.00  0.00    +0.000 A 
ATOM      7  C   UNL     1      -0.579  10.853  22.665  0.00  0.00    +0.000 A 
ATOM      8  C   UNL     1      -1.150  11.993  22.207  0.00  0.00    +0.000 A 
ATOM      9  C   UNL     1      -1.120  12.305  20.776  0.00  0.00    +0.000 A 
ATOM     10  C   UNL     1      -0.506  11.466  19.926  0.00  0.00    +0.000 A 
ATOM     11  N   UNL     1       0.085  10.303  20.410  0.00  0.00    +0.000 N 
ATOM     12  N   UNL     1       0.748   9.355  19.724  0.00  0.00    +0.000 NA
ATOM     13  H   UNL     1       1.871   6.750  21.321  0.00  0.00    +0.000 HD
ENDROOT
BRANCH   1  18
ATOM     14  C   UNL     1       5.350   4.467  19.084  0.00  0.00    +0.000 A 
ATOM     15  C   UNL     1       4.672   3.332  19.540  0.00  0.00    +0.000 A 
ATOM     16  C   UNL     1       3.336   3.408  19.930  0.00  0.00    +0.000 A 
ATOM     17  C   UNL     1       2.670   4.631  19.861  0.00  0.00    +0.000 A 
ATOM     18  C   UNL     1       3.333   5.775  19.394  0.00  0.00    +0.000 A 
ATOM     19  C   UNL     1       4.681   5.694  19.013  0.00  0.00    +0.000 A 
BRANCH  14  21
ATOM     20  C   UNL     1       7.288   5.200  17.911  0.00  0.00    +0.000 C 
ATOM     21  O   UNL     1       6.655   4.236  18.744  0.00  0.00    +0.000 OA
ENDBRANCH  14  21
ENDBRANCH   1  18
BRANCH   8  22
ATOM     22  C   UNL     1      -1.833  12.880  23.170  0.00  0.00    +0.000 A 
ATOM     23  C   UNL     1      -1.225  14.054  23.632  0.00  0.00    +0.000 A 
ATOM     24  C   UNL     1      -1.906  14.899  24.514  0.00  0.00    +0.000 A 
ATOM     25  C   UNL     1      -3.197  14.579  24.934  0.00  0.00    +0.000 A 
ATOM     26  C   UNL     1      -3.812  13.415  24.471  0.00  0.00    +0.000 A 
ATOM     27  C   UNL     1      -3.132  12.570  23.591  0.00  0.00    +0.000 A 
ENDBRANCH   8  22
TORSDOF 3
ENDMDL
MODEL 4
REMARK VINA RESULT:      -8.2      0.959      2.016
REMARK  Name = 
REMARK  4 active torsions:
REMARK  status: ('A' for Active; 'I' for Inactive)
REMARK    1  A    between atoms: C_1  and  O_2
REMARK    2  A    between atoms: O_2  and  C_3
REMARK    3  A    between atoms: C_7  and  C_8
REMARK    4  A    between atoms: C_15  and  C_16
REMARK                            x       y       z     vdW  Elec       q    Type
REMARK                         _______ _______ _______ _____ _____    ______ ____
ROOT
ATOM      1  C   UNL     1      -0.519  10.682  22.534  0.00  0.00    +0.000 C 
ATOM      2  O   UNL     1      -0.278   9.939  23.480  0.00  0.00    +0.000 OA
ATOM      3  N   UNL     1      -0.150  10.489  21.221  0.00  0.00    +0.000 N 
ATOM      4  C   UNL     1       0.538   9.385  20.778  0.00  0.00    +0.000 A 
ATOM      5  N   UNL     1       1.142   9.446  19.551  0.00  0.00    +0.000 NA
ATOM      6  C   UNL     1       1.759   8.286  19.463  0.00  0.00    +0.000 A 
ATOM      7  C   UNL     1       2.611   7.712  18.470  0.00  0.00    +0.000 A 
ATOM      8  C   UNL     1       3.073   6.446  18.614  0.00  0.00    +0.000 A 
ATOM      9  C   UNL     1       2.704   5.660  19.794  0.00  0.00    +0.000 A 
ATOM     10  C   UNL     1       1.923   6.207  20.739  0.00  0.00    +0.000 A 
ATOM     11  N   UNL     1       1.462   7.511  20.584  0.00  0.00    +0.000 N 
ATOM     12  N   UNL     1       0.687   8.228  21.419  0.00  0.00    +0.000 NA
ATOM     13  H   UNL     1      -0.203  11.235  20.546  0.00  0.00    +0.000 HD
ENDROOT
BRANCH   1  18
ATOM     14  C   UNL     1      -1.345  14.389  22.840  0.00  0.00    +0.000 A 
ATOM     15  C   UNL     1      -2.633  14.306  23.378  0.00  0.00    +0.000 A 
ATOM     16  C   UNL     1      -3.217  13.069  23.641  0.00  0.00    +0.000 A 
ATOM     17  C   UNL     1      -2.506  11.902  23.365  0.00  0.00    +0.000 A 
ATOM     18  C   UNL     1      -1.209  11.969  22.837  0.00  0.00    +0.000 A 
ATOM     19  C   UNL     1      -0.631  13.218  22.565  0.00  0.00    +0.000 A 
BRANCH  14  21
ATOM     20  C   UNL     1      -0.265  15.942  21.393  0.00  0.00    +0.000 C 
ATOM     21  O   UNL     1      -0.910  15.670  22.632  0.00  0.00    +0.000 OA
ENDBRANCH  14  21
ENDBRANCH   1  18
BRANCH   8  22
ATOM     22  C   UNL     1       3.914   5.872  17.544  0.00  0.00    +0.000 A 
ATOM     23  C   UNL     1       3.998   4.488  17.352  0.00  0.00    +0.000 A 
ATOM     24  C   UNL     1       4.769   3.968  16.308  0.00  0.00    +0.000 A 
ATOM     25  C   UNL     1       5.455   4.827  15.449  0.00  0.00    +0.000 A 
ATOM     26  C   UNL     1       5.368   6.207  15.630  0.00  0.00    +0.000 A 
ATOM     27  C   UNL     1       4.599   6.727  16.673  0.00  0.00    +0.000 A 
ENDBRANCH   8  22
TORSDOF 3
ENDMDL
MODEL 5
REMARK VINA RESULT:      -8.2      2.677     10.078
REMARK  Name = 
REMARK  4 active torsions:
REMARK  status: ('A' for Active; 'I' for Inactive)
REMARK    1  A    between atoms: C_1  and  O_2
REMARK    2  A    between atoms: O_2  and  C_3
REMARK    3  A    between atoms: C_7  and  C_8
REMARK    4  A    between atoms: C_15  and  C_16
REMARK                            x       y       z     vdW  Elec       q    Type
REMARK                         _______ _______ _______ _____ _____    ______ ____
ROOT
ATOM      1  C   UNL     1       2.603   6.297  19.392  0.00  0.00    +0.000 C 
ATOM      2  O   UNL     1       2.299   5.618  20.368  0.00  0.00    +0.000 OA
ATOM      3  N   UNL     1       2.253   7.609  19.162  0.00  0.00    +0.000 N 
ATOM      4  C   UNL     1       1.516   8.366  20.041  0.00  0.00    +0.000 A 
ATOM      5  N   UNL     1       0.946   9.522  19.580  0.00  0.00    +0.000 NA
ATOM      6  C   UNL     1       0.269   9.957  20.622  0.00  0.00    +0.000 A 
ATOM      7  C   UNL     1      -0.591  11.081  20.823  0.00  0.00    +0.000 A 
ATOM      8  C   UNL     1      -1.125  11.325  22.043  0.00  0.00    +0.000 A 
ATOM      9  C   UNL     1      -0.827  10.433  23.167  0.00  0.00    +0.000 A 
ATOM     10  C   UNL     1      -0.039   9.363  22.974  0.00  0.00    +0.000 A 
ATOM     11  N   UNL     1       0.497   9.117  21.713  0.00  0.00    +0.000 N 
ATOM     12  N   UNL     1       1.290   8.102  21.325  0.00  0.00    +0.000 NA
ATOM     13  H   UNL     1       2.363   8.029  18.253  0.00  0.00    +0.000 HD
ENDROOT
BRANCH   1  18
ATOM     14  C   UNL     1       5.066   5.551  16.583  0.00  0.00    +0.000 A 
ATOM     15  C   UNL     1       4.745   4.215  16.327  0.00  0.00    +0.000 A 
ATOM     16  C   UNL     1       3.742   3.573  17.050  0.00  0.00    +0.000 A 
ATOM     17  C   UNL     1       3.052   4.273  18.038  0.00  0.00    +0.000 A 
ATOM     18  C   UNL     1       3.355   5.617  18.298  0.00  0.00    +0.000 A 
ATOM     19  C   UNL     1       4.373   6.256  17.574  0.00  0.00    +0.000 A 
BRANCH  14  21
ATOM     20  C   UNL     1       6.938   5.093  15.183  0.00  0.00    +0.000 C 
ATOM     21  O   UNL     1       6.075   6.042  15.798  0.00  0.00    +0.000 OA
ENDBRANCH  14  21
ENDBRANCH   1  18
BRANCH   8  22
ATOM     22  C   UNL     1      -1.970  12.523  22.221  0.00  0.00    +0.000 A 
ATOM     23  C   UNL     1      -2.887  12.614  23.274  0.00  0.00    +0.000 A 
ATOM     24  C   UNL     1      -3.650  13.774  23.446  0.00  0.00    +0.000 A 
ATOM     25  C   UNL     1      -3.496  14.848  22.570  0.00  0.00    +0.000 A 
ATOM     26  C   UNL     1      -2.577  14.768  21.523  0.00  0.00    +0.000 A 
ATOM     27  C   UNL     1      -1.816  13.609  21.351  0.00  0.00    +0.000 A 
ENDBRANCH   8  22
TORSDOF 3
ENDMDL
MODEL 6
REMARK VINA RESULT:      -8.1      2.837      9.985
REMARK  Name = 
REMARK  4 active torsions:
REMARK  status: ('A' for Active; 'I' for Inactive)
REMARK    1  A    between atoms: C_1  and  O_2
REMARK    2  A    between atoms: O_2  and  C_3
REMARK    3  A    between atoms: C_7  and  C_8
REMARK    4  A    between atoms: C_15  and  C_16
REMARK                            x       y       z     vdW  Elec       q    Type
REMARK                         _______ _______ _______ _____ _____    ______ ____
ROOT
ATOM      1  C   UNL     1       2.773   7.752  18.115  0.00  0.00    +0.000 C 
ATOM      2  O   UNL     1       2.588   8.485  17.148  0.00  0.00    +0.000 OA
ATOM      3  N   UNL     1       2.210   7.883  19.365  0.00  0.00    +0.000 N 
ATOM      4  C   UNL     1       1.312   8.868  19.696  0.00  0.00    +0.000 A 
ATOM      5  N   UNL     1       1.077   9.112  21.023  0.00  0.00    +0.000 NA
ATOM      6  C   UNL     1       0.247  10.134  20.997  0.00  0.00    +0.000 A 
ATOM      7  C   UNL     1      -0.359  10.920  22.025  0.00  0.00    +0.000 A 
ATOM      8  C   UNL     1      -1.238  11.902  21.707  0.00  0.00    +0.000 A 
ATOM      9  C   UNL     1      -1.567  12.166  20.305  0.00  0.00    +0.000 A 
ATOM     10  C   UNL     1      -0.980  11.445  19.337  0.00  0.00    +0.000 A 
ATOM     11  N   UNL     1      -0.072  10.445  19.674  0.00  0.00    +0.000 N 
ATOM     12  N   UNL     1       0.620   9.633  18.855  0.00  0.00    +0.000 NA
ATOM     13  H   UNL     1       2.566   7.371  20.156  0.00  0.00    +0.000 HD
ENDROOT
BRANCH   1  18
ATOM     14  C   UNL     1       4.850   4.607  18.676  0.00  0.00    +0.000 A 
ATOM     15  C   UNL     1       5.624   4.618  17.512  0.00  0.00    +0.000 A 
ATOM     16  C   UNL     1       5.477   5.631  16.567  0.00  0.00    +0.000 A 
ATOM     17  C   UNL     1       4.548   6.646  16.789  0.00  0.00    +0.000 A 
ATOM     18  C   UNL     1       3.773   6.657  17.957  0.00  0.00    +0.000 A 
ATOM     19  C   UNL     1       3.918   5.627  18.900  0.00  0.00    +0.000 A 
BRANCH  14  21
ATOM     20  C   UNL     1       3.991   2.750  19.895  0.00  0.00    +0.000 C 
ATOM     21  O   UNL     1       5.102   3.547  19.504  0.00  0.00    +0.000 OA
ENDBRANCH  14  21
ENDBRANCH   1  18
BRANCH   8  22
ATOM     22  C   UNL     1      -1.879  12.660  22.800  0.00  0.00    +0.000 A 
ATOM     23  C   UNL     1      -1.280  13.806  23.337  0.00  0.00    +0.000 A 
ATOM     24  C   UNL     1      -1.924  14.530  24.345  0.00  0.00    +0.000 A 
ATOM     25  C   UNL     1      -3.169  14.116  24.818  0.00  0.00    +0.000 A 
ATOM     26  C   UNL     1      -3.775  12.980  24.282  0.00  0.00    +0.000 A 
ATOM     27  C   UNL     1      -3.132  12.255  23.276  0.00  0.00    +0.000 A 
ENDBRANCH   8  22
TORSDOF 3
ENDMDL
MODEL 7
REMARK VINA RESULT:      -8.1      1.723      2.230
REMARK  Name = 
REMARK  4 active torsions:
REMARK  status: ('A' for Active; 'I' for Inactive)
REMARK    1  A    between atoms: C_1  and  O_2
REMARK    2  A    between atoms: O_2  and  C_3
REMARK    3  A    between atoms: C_7  and  C_8
REMARK    4  A    between atoms: C_15  and  C_16
REMARK                            x       y       z     vdW  Elec       q    Type
REMARK                         _______ _______ _______ _____ _____    ______ ____
ROOT
ATOM      1  C   UNL     1      -1.182  12.043  21.576  0.00  0.00    +0.000 C 
ATOM      2  O   UNL     1      -1.337  12.472  20.436  0.00  0.00    +0.000 OA
ATOM      3  N   UNL     1      -0.429  10.952  21.949  0.00  0.00    +0.000 N 
ATOM      4  C   UNL     1       0.297  10.190  21.066  0.00  0.00    +0.000 A 
ATOM      5  N   UNL     1       0.726   8.955  21.475  0.00  0.00    +0.000 NA
ATOM      6  C   UNL     1       1.311   8.471  20.399  0.00  0.00    +0.000 A 
ATOM      7  C   UNL     1       1.930   7.216  20.112  0.00  0.00    +0.000 A 
ATOM      8  C   UNL     1       2.515   7.000  18.910  0.00  0.00    +0.000 A 
ATOM      9  C   UNL     1       2.511   8.055  17.892  0.00  0.00    +0.000 A 
ATOM     10  C   UNL     1       1.909   9.226  18.152  0.00  0.00    +0.000 A 
ATOM     11  N   UNL     1       1.303   9.432  19.388  0.00  0.00    +0.000 N 
ATOM     12  N   UNL     1       0.646  10.522  19.826  0.00  0.00    +0.000 NA
ATOM     13  H   UNL     1      -0.518  10.543  22.866  0.00  0.00    +0.000 HD
ENDROOT
BRANCH   1  18
ATOM     14  C   UNL     1      -3.801  12.844  24.225  0.00  0.00    +0.000 A 
ATOM     15  C   UNL     1      -3.255  14.016  24.758  0.00  0.00    +0.000 A 
ATOM     16  C   UNL     1      -2.063  14.537  24.260  0.00  0.00    +0.000 A 
ATOM     17  C   UNL     1      -1.410  13.882  23.218  0.00  0.00    +0.000 A 
ATOM     18  C   UNL     1      -1.951  12.713  22.665  0.00  0.00    +0.000 A 
ATOM     19  C   UNL     1      -3.146  12.186  23.178  0.00  0.00    +0.000 A 
BRANCH  14  21
ATOM     20  C   UNL     1      -6.180  12.773  24.146  0.00  0.00    +0.000 C 
ATOM     21  O   UNL     1      -4.970  12.453  24.821  0.00  0.00    +0.000 OA
ENDBRANCH  14  21
ENDBRANCH   1  18
BRANCH   8  22
ATOM     22  C   UNL     1       3.186   5.707  18.669  0.00  0.00    +0.000 A 
ATOM     23  C   UNL     1       2.638   4.757  17.799  0.00  0.00    +0.000 A 
ATOM     24  C   UNL     1       3.310   3.555  17.556  0.00  0.00    +0.000 A 
ATOM     25  C   UNL     1       4.533   3.299  18.176  0.00  0.00    +0.000 A 
ATOM     26  C   UNL     1       5.088   4.245  19.038  0.00  0.00    +0.000 A 
ATOM     27  C   UNL     1       4.417   5.445  19.281  0.00  0.00    +0.000 A 
ENDBRANCH   8  22
TORSDOF 3
ENDMDL
MODEL 8
REMARK VINA RESULT:      -8.1      4.175     10.761
REMARK  Name = 
REMARK  4 active torsions:
REMARK  status: ('A' for Active; 'I' for Inactive)
REMARK    1  A    between atoms: C_1  and  O_2
REMARK    2  A    between atoms: O_2  and  C_3
REMARK    3  A    between atoms: C_7  and  C_8
REMARK    4  A    between atoms: C_15  and  C_16
REMARK                            x       y       z     vdW  Elec       q    Type
REMARK                         _______ _______ _______ _____ _____    ______ ____
ROOT
ATOM      1  C   UNL     1       4.786   4.704  16.248  0.00  0.00    +0.000 C 
ATOM      2  O   UNL     1       4.383   3.695  16.821  0.00  0.00    +0.000 OA
ATOM      3  N   UNL     1       4.505   6.009  16.587  0.00  0.00    +0.000 N 
ATOM      4  C   UNL     1       3.733   6.367  17.665  0.00  0.00    +0.000 A 
ATOM      5  N   UNL     1       3.243   7.645  17.717  0.00  0.00    +0.000 NA
ATOM      6  C   UNL     1       2.506   7.639  18.808  0.00  0.00    +0.000 A 
ATOM      7  C   UNL     1       1.677   8.625  19.426  0.00  0.00    +0.000 A 
ATOM      8  C   UNL     1       1.061   8.361  20.603  0.00  0.00    +0.000 A 
ATOM      9  C   UNL     1       1.239   7.058  21.249  0.00  0.00    +0.000 A 
ATOM     10  C   UNL     1       1.998   6.121  20.656  0.00  0.00    +0.000 A 
ATOM     11  N   UNL     1       2.618   6.401  19.442  0.00  0.00    +0.000 N 
ATOM     12  N   UNL     1       3.399   5.597  18.698  0.00  0.00    +0.000 NA
ATOM     13  H   UNL     1       4.700   6.768  15.953  0.00  0.00    +0.000 HD
ENDROOT
BRANCH   1  18
ATOM     14  C   UNL     1       5.918   3.639  12.770  0.00  0.00    +0.000 A 
ATOM     15  C   UNL     1       7.162   4.276  12.715  0.00  0.00    +0.000 A 
ATOM     16  C   UNL     1       7.624   5.030  13.791  0.00  0.00    +0.000 A 
ATOM     17  C   UNL     1       6.836   5.148  14.935  0.00  0.00    +0.000 A 
ATOM     18  C   UNL     1       5.593   4.506  15.010  0.00  0.00    +0.000 A 
ATOM     19  C   UNL     1       5.128   3.757  13.918  0.00  0.00    +0.000 A 
BRANCH  14  21
ATOM     20  C   UNL     1       4.248   3.004  11.195  0.00  0.00    +0.000 C 
ATOM     21  O   UNL     1       5.599   2.942  11.636  0.00  0.00    +0.000 OA
ENDBRANCH  14  21
ENDBRANCH   1  18
BRANCH   8  22
ATOM     22  C   UNL     1       0.252   9.423  21.234  0.00  0.00    +0.000 A 
ATOM     23  C   UNL     1      -0.166   9.322  22.566  0.00  0.00    +0.000 A 
ATOM     24  C   UNL     1      -0.899  10.357  23.154  0.00  0.00    +0.000 A 
ATOM     25  C   UNL     1      -1.215  11.498  22.416  0.00  0.00    +0.000 A 
ATOM     26  C   UNL     1      -0.795  11.609  21.091  0.00  0.00    +0.000 A 
ATOM     27  C   UNL     1      -0.062  10.575  20.503  0.00  0.00    +0.000 A 
ENDBRANCH   8  22
TORSDOF 3
ENDMDL
MODEL 9
REMARK VINA RESULT:      -8.1      0.881      1.396
REMARK  Name = 
REMARK  4 active torsions:
REMARK  status: ('A' for Active; 'I' for Inactive)
REMARK    1  A    between atoms: C_1  and  O_2
REMARK    2  A    between atoms: O_2  and  C_3
REMARK    3  A    between atoms: C_7  and  C_8
REMARK    4  A    between atoms: C_15  and  C_16
REMARK                            x       y       z     vdW  Elec       q    Type
REMARK                         _______ _______ _______ _____ _____    ______ ____
ROOT
ATOM      1  C   UNL     1       0.090  10.032  22.005  0.00  0.00    +0.000 C 
ATOM      2  O   UNL     1       0.394   9.313  22.953  0.00  0.00    +0.000 OA
ATOM      3  N   UNL     1       0.429   9.837  20.684  0.00  0.00    +0.000 N 
ATOM      4  C   UNL     1       1.154   8.760  20.235  0.00  0.00    +0.000 A 
ATOM      5  N   UNL     1       1.717   8.831  18.989  0.00  0.00    +0.000 NA
ATOM      6  C   UNL     1       2.383   7.699  18.897  0.00  0.00    +0.000 A 
ATOM      7  C   UNL     1       3.231   7.150  17.886  0.00  0.00    +0.000 A 
ATOM      8  C   UNL     1       3.755   5.910  18.031  0.00  0.00    +0.000 A 
ATOM      9  C   UNL     1       3.457   5.123  19.231  0.00  0.00    +0.000 A 
ATOM     10  C   UNL     1       2.680   5.648  20.193  0.00  0.00    +0.000 A 
ATOM     11  N   UNL     1       2.156   6.927  20.036  0.00  0.00    +0.000 N 
ATOM     12  N   UNL     1       1.374   7.620  20.885  0.00  0.00    +0.000 NA
ATOM     13  H   UNL     1       0.322  10.571  20.002  0.00  0.00    +0.000 HD
ENDROOT
BRANCH   1  18
ATOM     14  C   UNL     1      -2.409  12.534  23.422  0.00  0.00    +0.000 A 
ATOM     15  C   UNL     1      -1.898  13.719  22.882  0.00  0.00    +0.000 A 
ATOM     16  C   UNL     1      -0.768  13.701  22.068  0.00  0.00    +0.000 A 
ATOM     17  C   UNL     1      -0.142  12.487  21.789  0.00  0.00    +0.000 A 
ATOM     18  C   UNL     1      -0.649  11.290  22.314  0.00  0.00    +0.000 A 
ATOM     19  C   UNL     1      -1.781  11.316  23.142  0.00  0.00    +0.000 A 
BRANCH  14  21
ATOM     20  C   UNL     1      -4.552  13.539  23.686  0.00  0.00    +0.000 C 
ATOM     21  O   UNL     1      -3.517  12.712  24.205  0.00  0.00    +0.000 OA
ENDBRANCH  14  21
ENDBRANCH   1  18
BRANCH   8  22
ATOM     22  C   UNL     1       4.588   5.359  16.943  0.00  0.00    +0.000 A 
ATOM     23  C   UNL     1       4.823   3.984  16.834  0.00  0.00    +0.000 A 
ATOM     24  C   UNL     1       5.582   3.481  15.774  0.00  0.00    +0.000 A 
ATOM     25  C   UNL     1       6.107   4.349  14.815  0.00  0.00    +0.000 A 
ATOM     26  C   UNL     1       5.870   5.720  14.914  0.00  0.00    +0.000 A 
ATOM     27  C   UNL     1       5.111   6.222  15.973  0.00  0.00    +0.000 A 
ENDBRANCH   8  22
TORSDOF 3
ENDMDL
