MODEL 1
REMARK VINA RESULT:      -6.2      0.000      0.000
REMARK  Name = 
REMARK  5 active torsions:
REMARK  status: ('A' for Active; 'I' for Inactive)
REMARK    1  A    between atoms: C_1  and  C_2
REMARK    2  A    between atoms: C_3  and  C_4
REMARK    3  A    between atoms: N_9  and  C_10
REMARK    4  A    between atoms: N_15  and  C_16
REMARK    5  A    between atoms: N_19  and  C_20
REMARK                            x       y       z     vdW  Elec       q    Type
REMARK                         _______ _______ _______ _____ _____    ______ ____
ROOT
ATOM      1  C   UNL     1       3.358   7.397  17.722  0.00  0.00    +0.000 C 
ATOM      2  C   UNL     1       3.486   6.096  18.492  0.00  0.00    +0.000 A 
ATOM      3  C   UNL     1       4.284   5.085  18.090  0.00  0.00    +0.000 A 
ATOM      4  C   UNL     1       4.341   3.844  18.920  0.00  0.00    +0.000 A 
ATOM      5  O   UNL     1       5.158   2.965  18.637  0.00  0.00    +0.000 OA
ATOM      6  N   UNL     1       3.505   3.779  20.012  0.00  0.00    +0.000 N 
ATOM      7  C   UNL     1       3.530   2.587  20.841  0.00  0.00    +0.000 C 
ATOM      8  C   UNL     1       2.731   4.836  20.462  0.00  0.00    +0.000 A 
ATOM      9  O   UNL     1       2.086   4.759  21.509  0.00  0.00    +0.000 OA
ATOM     10  N   UNL     1       2.742   5.986  19.673  0.00  0.00    +0.000 N 
ATOM     11  C   UNL     1       1.952   7.122  20.151  0.00  0.00    +0.000 C 
ENDROOT
BRANCH   3  12
ATOM     12  C   UNL     1       5.165   5.117  16.941  0.00  0.00    +0.000 C 
ATOM     13  C   UNL     1       6.386   5.649  16.829  0.00  0.00    +0.000 C 
ATOM     14 BR   UNL     1       7.398   6.573  18.061  0.00  0.00    +0.000 Br
ATOM     15  C   UNL     1       6.923   5.291  15.503  0.00  0.00    +0.000 C 
ATOM     16  O   UNL     1       7.927   5.755  15.002  0.00  0.00    +0.000 OA
ATOM     17  N   UNL     1       6.060   4.392  14.968  0.00  0.00    +0.000 N 
ATOM     18  C   UNL     1       6.288   3.673  13.739  0.00  0.00    +0.000 C 
ATOM     19  C   UNL     1       4.914   4.341  15.696  0.00  0.00    +0.000 C 
ATOM     20  O   UNL     1       3.854   3.834  15.390  0.00  0.00    +0.000 OA
ENDBRANCH   3  12
TORSDOF 1
ENDMDL
MODEL 2
REMARK VINA RESULT:      -6.1      1.170      2.496
REMARK  Name = 
REMARK  5 active torsions:
REMARK  status: ('A' for Active; 'I' for Inactive)
REMARK    1  A    between atoms: C_1  and  C_2
REMARK    2  A    between atoms: C_3  and  C_4
REMARK    3  A    between atoms: N_9  and  C_10
REMARK    4  A    between atoms: N_15  and  C_16
REMARK    5  A    between atoms: N_19  and  C_20
REMARK                            x       y       z     vdW  Elec       q    Type
REMARK                         _______ _______ _______ _____ _____    ______ ____
ROOT
ATOM      1  C   UNL     1       4.658   3.064  18.899  0.00  0.00    +0.000 C 
ATOM      2  C   UNL     1       3.960   4.410  18.957  0.00  0.00    +0.000 A 
ATOM      3  C   UNL     1       4.207   5.400  18.075  0.00  0.00    +0.000 A 
ATOM      4  C   UNL     1       3.466   6.690  18.217  0.00  0.00    +0.000 A 
ATOM      5  O   UNL     1       3.586   7.555  17.347  0.00  0.00    +0.000 OA
ATOM      6  N   UNL     1       2.627   6.815  19.301  0.00  0.00    +0.000 N 
ATOM      7  C   UNL     1       1.891   8.055  19.475  0.00  0.00    +0.000 C 
ATOM      8  C   UNL     1       2.323   5.782  20.173  0.00  0.00    +0.000 A 
ATOM      9  O   UNL     1       1.479   5.918  21.060  0.00  0.00    +0.000 OA
ATOM     10  N   UNL     1       3.013   4.587  19.973  0.00  0.00    +0.000 N 
ATOM     11  C   UNL     1       2.682   3.477  20.869  0.00  0.00    +0.000 C 
ENDROOT
BRANCH   3  12
ATOM     12  C   UNL     1       5.094   5.305  16.933  0.00  0.00    +0.000 C 
ATOM     13  C   UNL     1       6.322   5.809  16.776  0.00  0.00    +0.000 C 
ATOM     14 BR   UNL     1       7.340   6.839  17.915  0.00  0.00    +0.000 Br
ATOM     15  C   UNL     1       6.860   5.313  15.495  0.00  0.00    +0.000 C 
ATOM     16  O   UNL     1       7.872   5.713  14.955  0.00  0.00    +0.000 OA
ATOM     17  N   UNL     1       5.988   4.376  15.047  0.00  0.00    +0.000 N 
ATOM     18  C   UNL     1       6.212   3.536  13.898  0.00  0.00    +0.000 C 
ATOM     19  C   UNL     1       4.839   4.412  15.770  0.00  0.00    +0.000 C 
ATOM     20  O   UNL     1       3.774   3.890  15.511  0.00  0.00    +0.000 OA
ENDBRANCH   3  12
TORSDOF 1
ENDMDL
MODEL 3
REMARK VINA RESULT:      -6.1      2.103      5.697
REMARK  Name = 
REMARK  5 active torsions:
REMARK  status: ('A' for Active; 'I' for Inactive)
REMARK    1  A    between atoms: C_1  and  C_2
REMARK    2  A    between atoms: C_3  and  C_4
REMARK    3  A    between atoms: N_9  and  C_10
REMARK    4  A    between atoms: N_15  and  C_16
REMARK    5  A    between atoms: N_19  and  C_20
REMARK                            x       y       z     vdW  Elec       q    Type
REMARK                         _______ _______ _______ _____ _____    ______ ____
ROOT
ATOM      1  C   UNL     1       3.313   3.623  16.477  0.00  0.00    +0.000 C 
ATOM      2  C   UNL     1       4.595   4.172  17.074  0.00  0.00    +0.000 A 
ATOM      3  C   UNL     1       4.668   4.653  18.332  0.00  0.00    +0.000 A 
ATOM      4  C   UNL     1       5.980   5.172  18.827  0.00  0.00    +0.000 A 
ATOM      5  O   UNL     1       6.094   5.495  20.011  0.00  0.00    +0.000 OA
ATOM      6  N   UNL     1       7.022   5.202  17.929  0.00  0.00    +0.000 N 
ATOM      7  C   UNL     1       8.311   5.702  18.371  0.00  0.00    +0.000 C 
ATOM      8  C   UNL     1       6.969   4.654  16.657  0.00  0.00    +0.000 A 
ATOM      9  O   UNL     1       7.966   4.608  15.935  0.00  0.00    +0.000 OA
ATOM     10  N   UNL     1       5.732   4.148  16.258  0.00  0.00    +0.000 N 
ATOM     11  C   UNL     1       5.667   3.539  14.927  0.00  0.00    +0.000 C 
ENDROOT
BRANCH   3  12
ATOM     12  C   UNL     1       3.587   4.650  19.297  0.00  0.00    +0.000 C 
ATOM     13  C   UNL     1       2.647   5.575  19.512  0.00  0.00    +0.000 C 
ATOM     14 BR   UNL     1       2.381   7.211  18.707  0.00  0.00    +0.000 Br
ATOM     15  C   UNL     1       1.693   5.038  20.501  0.00  0.00    +0.000 C 
ATOM     16  O   UNL     1       0.822   5.676  21.057  0.00  0.00    +0.000 OA
ATOM     17  N   UNL     1       2.015   3.732  20.677  0.00  0.00    +0.000 N 
ATOM     18  C   UNL     1       1.238   2.797  21.452  0.00  0.00    +0.000 C 
ATOM     19  C   UNL     1       3.217   3.458  20.107  0.00  0.00    +0.000 C 
ATOM     20  O   UNL     1       3.913   2.475  20.263  0.00  0.00    +0.000 OA
ENDBRANCH   3  12
TORSDOF 1
ENDMDL
MODEL 4
REMARK VINA RESULT:      -5.5      2.068      2.347
REMARK  Name = 
REMARK  5 active torsions:
REMARK  status: ('A' for Active; 'I' for Inactive)
REMARK    1  A    between atoms: C_1  and  C_2
REMARK    2  A    between atoms: C_3  and  C_4
REMARK    3  A    between atoms: N_9  and  C_10
REMARK    4  A    between atoms: N_15  and  C_16
REMARK    5  A    between atoms: N_19  and  C_20
REMARK                            x       y       z     vdW  Elec       q    Type
REMARK                         _______ _______ _______ _____ _____    ______ ____
ROOT
ATOM      1  C   UNL     1       1.271   4.381  17.423  0.00  0.00    +0.000 C 
ATOM      2  C   UNL     1       2.281   3.789  18.388  0.00  0.00    +0.000 A 
ATOM      3  C   UNL     1       3.613   3.895  18.206  0.00  0.00    +0.000 A 
ATOM      4  C   UNL     1       4.526   3.276  19.215  0.00  0.00    +0.000 A 
ATOM      5  O   UNL     1       5.740   3.474  19.132  0.00  0.00    +0.000 OA
ATOM      6  N   UNL     1       3.942   2.559  20.234  0.00  0.00    +0.000 N 
ATOM      7  C   UNL     1       4.797   1.942  21.232  0.00  0.00    +0.000 C 
ATOM      8  C   UNL     1       2.576   2.499  20.459  0.00  0.00    +0.000 A 
ATOM      9  O   UNL     1       2.113   1.935  21.452  0.00  0.00    +0.000 OA
ATOM     10  N   UNL     1       1.769   3.125  19.509  0.00  0.00    +0.000 N 
ATOM     11  C   UNL     1       0.325   3.095  19.748  0.00  0.00    +0.000 C 
ENDROOT
BRANCH   3  12
ATOM     12  C   UNL     1       4.260   4.630  17.138  0.00  0.00    +0.000 C 
ATOM     13  C   UNL     1       4.303   5.949  16.929  0.00  0.00    +0.000 C 
ATOM     14 BR   UNL     1       3.536   7.330  17.879  0.00  0.00    +0.000 Br
ATOM     15  C   UNL     1       5.206   6.204  15.791  0.00  0.00    +0.000 C 
ATOM     16  O   UNL     1       5.336   7.268  15.220  0.00  0.00    +0.000 OA
ATOM     17  N   UNL     1       5.809   5.023  15.505  0.00  0.00    +0.000 N 
ATOM     18  C   UNL     1       6.879   4.862  14.553  0.00  0.00    +0.000 C 
ATOM     19  C   UNL     1       5.197   4.005  16.165  0.00  0.00    +0.000 C 
ATOM     20  O   UNL     1       5.314   2.812  15.975  0.00  0.00    +0.000 OA
ENDBRANCH   3  12
TORSDOF 1
ENDMDL
MODEL 5
REMARK VINA RESULT:      -5.5      1.970      5.508
REMARK  Name = 
REMARK  5 active torsions:
REMARK  status: ('A' for Active; 'I' for Inactive)
REMARK    1  A    between atoms: C_1  and  C_2
REMARK    2  A    between atoms: C_3  and  C_4
REMARK    3  A    between atoms: N_9  and  C_10
REMARK    4  A    between atoms: N_15  and  C_16
REMARK    5  A    between atoms: N_19  and  C_20
REMARK                            x       y       z     vdW  Elec       q    Type
REMARK                         _______ _______ _______ _____ _____    ______ ____
ROOT
ATOM      1  C   UNL     1       5.994   5.524  19.602  0.00  0.00    +0.000 C 
ATOM      2  C   UNL     1       5.814   5.149  18.143  0.00  0.00    +0.000 A 
ATOM      3  C   UNL     1       4.722   4.502  17.685  0.00  0.00    +0.000 A 
ATOM      4  C   UNL     1       4.639   4.178  16.228  0.00  0.00    +0.000 A 
ATOM      5  O   UNL     1       3.596   3.704  15.774  0.00  0.00    +0.000 OA
ATOM      6  N   UNL     1       5.732   4.491  15.452  0.00  0.00    +0.000 N 
ATOM      7  C   UNL     1       5.690   4.189  14.033  0.00  0.00    +0.000 C 
ATOM      8  C   UNL     1       6.827   5.209  15.905  0.00  0.00    +0.000 A 
ATOM      9  O   UNL     1       7.727   5.559  15.139  0.00  0.00    +0.000 OA
ATOM     10  N   UNL     1       6.838   5.521  17.264  0.00  0.00    +0.000 N 
ATOM     11  C   UNL     1       7.976   6.303  17.752  0.00  0.00    +0.000 C 
ENDROOT
BRANCH   3  12
ATOM     12  C   UNL     1       3.562   4.146  18.477  0.00  0.00    +0.000 C 
ATOM     13  C   UNL     1       2.623   4.940  19.000  0.00  0.00    +0.000 C 
ATOM     14 BR   UNL     1       2.457   6.775  18.955  0.00  0.00    +0.000 Br
ATOM     15  C   UNL     1       1.579   4.085  19.595  0.00  0.00    +0.000 C 
ATOM     16  O   UNL     1       0.674   4.471  20.308  0.00  0.00    +0.000 OA
ATOM     17  N   UNL     1       1.861   2.813  19.218  0.00  0.00    +0.000 N 
ATOM     18  C   UNL     1       1.005   1.680  19.463  0.00  0.00    +0.000 C 
ATOM     19  C   UNL     1       3.103   2.744  18.672  0.00  0.00    +0.000 C 
ATOM     20  O   UNL     1       3.766   1.753  18.441  0.00  0.00    +0.000 OA
ENDBRANCH   3  12
TORSDOF 1
ENDMDL
MODEL 6
REMARK VINA RESULT:      -5.3      2.227      5.678
REMARK  Name = 
REMARK  5 active torsions:
REMARK  status: ('A' for Active; 'I' for Inactive)
REMARK    1  A    between atoms: C_1  and  C_2
REMARK    2  A    between atoms: C_3  and  C_4
REMARK    3  A    between atoms: N_9  and  C_10
REMARK    4  A    between atoms: N_15  and  C_16
REMARK    5  A    between atoms: N_19  and  C_20
REMARK                            x       y       z     vdW  Elec       q    Type
REMARK                         _______ _______ _______ _____ _____    ______ ____
ROOT
ATOM      1  C   UNL     1       5.813   5.577  19.451  0.00  0.00    +0.000 C 
ATOM      2  C   UNL     1       5.734   5.160  17.995  0.00  0.00    +0.000 A 
ATOM      3  C   UNL     1       4.721   4.419  17.501  0.00  0.00    +0.000 A 
ATOM      4  C   UNL     1       4.736   4.060  16.050  0.00  0.00    +0.000 A 
ATOM      5  O   UNL     1       3.757   3.495  15.557  0.00  0.00    +0.000 OA
ATOM      6  N   UNL     1       5.837   4.445  15.319  0.00  0.00    +0.000 N 
ATOM      7  C   UNL     1       5.889   4.112  13.907  0.00  0.00    +0.000 C 
ATOM      8  C   UNL     1       6.848   5.257  15.806  0.00  0.00    +0.000 A 
ATOM      9  O   UNL     1       7.754   5.663  15.076  0.00  0.00    +0.000 OA
ATOM     10  N   UNL     1       6.768   5.595  17.157  0.00  0.00    +0.000 N 
ATOM     11  C   UNL     1       7.814   6.476  17.679  0.00  0.00    +0.000 C 
ENDROOT
BRANCH   3  12
ATOM     12  C   UNL     1       3.556   3.986  18.245  0.00  0.00    +0.000 C 
ATOM     13  C   UNL     1       3.267   2.774  18.728  0.00  0.00    +0.000 C 
ATOM     14 BR   UNL     1       4.201   1.190  18.605  0.00  0.00    +0.000 Br
ATOM     15  C   UNL     1       2.036   2.883  19.534  0.00  0.00    +0.000 C 
ATOM     16  O   UNL     1       1.394   1.947  19.968  0.00  0.00    +0.000 OA
ATOM     17  N   UNL     1       1.766   4.207  19.647  0.00  0.00    +0.000 N 
ATOM     18  C   UNL     1       0.728   4.760  20.482  0.00  0.00    +0.000 C 
ATOM     19  C   UNL     1       2.538   4.925  18.791  0.00  0.00    +0.000 C 
ATOM     20  O   UNL     1       2.409   6.085  18.459  0.00  0.00    +0.000 OA
ENDBRANCH   3  12
TORSDOF 1
ENDMDL
MODEL 7
REMARK VINA RESULT:      -5.3      2.221      5.784
REMARK  Name = 
REMARK  5 active torsions:
REMARK  status: ('A' for Active; 'I' for Inactive)
REMARK    1  A    between atoms: C_1  and  C_2
REMARK    2  A    between atoms: C_3  and  C_4
REMARK    3  A    between atoms: N_9  and  C_10
REMARK    4  A    between atoms: N_15  and  C_16
REMARK    5  A    between atoms: N_19  and  C_20
REMARK                            x       y       z     vdW  Elec       q    Type
REMARK                         _______ _______ _______ _____ _____    ______ ____
ROOT
ATOM      1  C   UNL     1       3.284   3.685  16.271  0.00  0.00    +0.000 C 
ATOM      2  C   UNL     1       4.542   4.256  16.896  0.00  0.00    +0.000 A 
ATOM      3  C   UNL     1       4.575   4.752  18.150  0.00  0.00    +0.000 A 
ATOM      4  C   UNL     1       5.866   5.293  18.675  0.00  0.00    +0.000 A 
ATOM      5  O   UNL     1       5.942   5.630  19.858  0.00  0.00    +0.000 OA
ATOM      6  N   UNL     1       6.932   5.325  17.806  0.00  0.00    +0.000 N 
ATOM      7  C   UNL     1       8.203   5.845  18.279  0.00  0.00    +0.000 C 
ATOM      8  C   UNL     1       6.921   4.762  16.540  0.00  0.00    +0.000 A 
ATOM      9  O   UNL     1       7.939   4.720  15.847  0.00  0.00    +0.000 OA
ATOM     10  N   UNL     1       5.702   4.236  16.112  0.00  0.00    +0.000 N 
ATOM     11  C   UNL     1       5.682   3.612  14.787  0.00  0.00    +0.000 C 
ENDROOT
BRANCH   3  12
ATOM     12  C   UNL     1       3.467   4.746  19.085  0.00  0.00    +0.000 C 
ATOM     13  C   UNL     1       3.120   3.810  19.973  0.00  0.00    +0.000 C 
ATOM     14 BR   UNL     1       3.875   2.167  20.326  0.00  0.00    +0.000 Br
ATOM     15  C   UNL     1       2.008   4.339  20.786  0.00  0.00    +0.000 C 
ATOM     16  O   UNL     1       1.333   3.692  21.561  0.00  0.00    +0.000 OA
ATOM     17  N   UNL     1       1.883   5.650  20.460  0.00  0.00    +0.000 N 
ATOM     18  C   UNL     1       1.009   6.577  21.133  0.00  0.00    +0.000 C 
ATOM     19  C   UNL     1       2.616   5.937  19.354  0.00  0.00    +0.000 C 
ATOM     20  O   UNL     1       2.563   6.929  18.656  0.00  0.00    +0.000 OA
ENDBRANCH   3  12
TORSDOF 1
ENDMDL
MODEL 8
REMARK VINA RESULT:      -5.2      2.669      4.268
REMARK  Name = 
REMARK  5 active torsions:
REMARK  status: ('A' for Active; 'I' for Inactive)
REMARK    1  A    between atoms: C_1  and  C_2
REMARK    2  A    between atoms: C_3  and  C_4
REMARK    3  A    between atoms: N_9  and  C_10
REMARK    4  A    between atoms: N_15  and  C_16
REMARK    5  A    between atoms: N_19  and  C_20
REMARK                            x       y       z     vdW  Elec       q    Type
REMARK                         _______ _______ _______ _____ _____    ______ ____
ROOT
ATOM      1  C   UNL     1       2.002   5.678  20.851  0.00  0.00    +0.000 C 
ATOM      2  C   UNL     1       2.018   6.907  19.961  0.00  0.00    +0.000 A 
ATOM      3  C   UNL     1       2.547   6.902  18.720  0.00  0.00    +0.000 A 
ATOM      4  C   UNL     1       2.513   8.165  17.921  0.00  0.00    +0.000 A 
ATOM      5  O   UNL     1       2.875   8.145  16.743  0.00  0.00    +0.000 OA
ATOM      6  N   UNL     1       2.012   9.287  18.541  0.00  0.00    +0.000 N 
ATOM      7  C   UNL     1       1.966  10.534  17.799  0.00  0.00    +0.000 C 
ATOM      8  C   UNL     1       1.414   9.283  19.791  0.00  0.00    +0.000 A 
ATOM      9  O   UNL     1       0.881  10.294  20.252  0.00  0.00    +0.000 OA
ATOM     10  N   UNL     1       1.437   8.070  20.479  0.00  0.00    +0.000 N 
ATOM     11  C   UNL     1       0.783   8.042  21.789  0.00  0.00    +0.000 C 
ENDROOT
BRANCH   3  12
ATOM     12  C   UNL     1       3.094   5.743  18.044  0.00  0.00    +0.000 C 
ATOM     13  C   UNL     1       4.361   5.485  17.706  0.00  0.00    +0.000 C 
ATOM     14 BR   UNL     1       5.882   6.502  17.927  0.00  0.00    +0.000 Br
ATOM     15  C   UNL     1       4.422   4.112  17.169  0.00  0.00    +0.000 C 
ATOM     16  O   UNL     1       5.377   3.619  16.604  0.00  0.00    +0.000 OA
ATOM     17  N   UNL     1       3.207   3.554  17.399  0.00  0.00    +0.000 N 
ATOM     18  C   UNL     1       2.887   2.169  17.162  0.00  0.00    +0.000 C 
ATOM     19  C   UNL     1       2.314   4.502  17.786  0.00  0.00    +0.000 C 
ATOM     20  O   UNL     1       1.105   4.410  17.850  0.00  0.00    +0.000 OA
ENDBRANCH   3  12
TORSDOF 1
ENDMDL
MODEL 9
REMARK VINA RESULT:      -5.0     10.210     11.648
REMARK  Name = 
REMARK  5 active torsions:
REMARK  status: ('A' for Active; 'I' for Inactive)
REMARK    1  A    between atoms: C_1  and  C_2
REMARK    2  A    between atoms: C_3  and  C_4
REMARK    3  A    between atoms: N_9  and  C_10
REMARK    4  A    between atoms: N_15  and  C_16
REMARK    5  A    between atoms: N_19  and  C_20
REMARK                            x       y       z     vdW  Elec       q    Type
REMARK                         _______ _______ _______ _____ _____    ______ ____
ROOT
ATOM      1  C   UNL     1       6.936  13.886  17.725  0.00  0.00    +0.000 C 
ATOM      2  C   UNL     1       7.188  15.127  18.561  0.00  0.00    +0.000 A 
ATOM      3  C   UNL     1       8.384  15.401  19.120  0.00  0.00    +0.000 A 
ATOM      4  C   UNL     1       8.530  16.651  19.927  0.00  0.00    +0.000 A 
ATOM      5  O   UNL     1       9.646  16.980  20.335  0.00  0.00    +0.000 OA
ATOM      6  N   UNL     1       7.399  17.411  20.118  0.00  0.00    +0.000 N 
ATOM      7  C   UNL     1       7.500  18.631  20.898  0.00  0.00    +0.000 C 
ATOM      8  C   UNL     1       6.184  17.167  19.497  0.00  0.00    +0.000 A 
ATOM      9  O   UNL     1       5.235  17.943  19.615  0.00  0.00    +0.000 OA
ATOM     10  N   UNL     1       6.112  16.008  18.724  0.00  0.00    +0.000 N 
ATOM     11  C   UNL     1       4.843  15.751  18.038  0.00  0.00    +0.000 C 
ENDROOT
BRANCH   3  12
ATOM     12  C   UNL     1       9.591  14.616  18.950  0.00  0.00    +0.000 C 
ATOM     13  C   UNL     1      10.003  13.546  19.637  0.00  0.00    +0.000 C 
ATOM     14 BR   UNL     1       9.233  12.685  21.073  0.00  0.00    +0.000 Br
ATOM     15  C   UNL     1      11.219  13.024  18.985  0.00  0.00    +0.000 C 
ATOM     16  O   UNL     1      11.954  12.173  19.445  0.00  0.00    +0.000 OA
ATOM     17  N   UNL     1      11.354  13.705  17.820  0.00  0.00    +0.000 N 
ATOM     18  C   UNL     1      12.333  13.401  16.807  0.00  0.00    +0.000 C 
ATOM     19  C   UNL     1      10.510  14.768  17.790  0.00  0.00    +0.000 C 
ATOM     20  O   UNL     1      10.520  15.711  17.025  0.00  0.00    +0.000 OA
ENDBRANCH   3  12
TORSDOF 1
ENDMDL
