MODEL 1
REMARK VINA RESULT:      -8.2      0.000      0.000
REMARK  Name = 
REMARK  9 active torsions:
REMARK  status: ('A' for Active; 'I' for Inactive)
REMARK    1  A    between atoms: C_1  and  O_2
REMARK    2  A    between atoms: O_2  and  C_3
REMARK    3  A    between atoms: C_3  and  C_4
REMARK    4  A    between atoms: C_8  and  C_9
REMARK    5  A    between atoms: C_16  and  O_18
REMARK    6  A    between atoms: O_18  and  C_19
REMARK    7  A    between atoms: C_19  and  C_20
REMARK    8  A    between atoms: C_20  and  C_21
REMARK    9  A    between atoms: C_20  and  C_22
REMARK                            x       y       z     vdW  Elec       q    Type
REMARK                         _______ _______ _______ _____ _____    ______ ____
ROOT
ATOM      1  C   UNL     1       2.646   5.996  18.467  0.00  0.00    +0.000 C 
ATOM      2  O   UNL     1       2.098   5.014  18.977  0.00  0.00    +0.000 OA
ATOM      3  N   UNL     1       3.676   5.847  17.520  0.00  0.00    +0.000 N 
ATOM      4  C   UNL     1       4.361   6.913  16.788  0.00  0.00    +0.000 C 
ATOM      5  C   UNL     1       5.744   7.273  17.342  0.00  0.00    +0.000 C 
ATOM      6  C   UNL     1       6.726   6.130  17.599  0.00  0.00    +0.000 C 
ATOM      7  N   UNL     1       6.464   4.919  16.847  0.00  0.00    +0.000 N 
ATOM      8  C   UNL     1       6.998   4.804  15.574  0.00  0.00    +0.000 C 
ATOM      9  O   UNL     1       7.749   5.642  15.082  0.00  0.00    +0.000 OA
ATOM     10  C   UNL     1       5.429   4.029  17.383  0.00  0.00    +0.000 C 
ATOM     11  C   UNL     1       3.999   4.482  17.054  0.00  0.00    +0.000 C 
ENDROOT
BRANCH   1  16
ATOM     12  C   UNL     1       1.351   8.779  20.719  0.00  0.00    +0.000 A 
ATOM     13  C   UNL     1       1.124   9.812  19.801  0.00  0.00    +0.000 A 
ATOM     14  C   UNL     1       1.435   9.636  18.461  0.00  0.00    +0.000 A 
ATOM     15  C   UNL     1       1.964   8.420  18.025  0.00  0.00    +0.000 A 
ATOM     16  C   UNL     1       2.117   7.337  18.892  0.00  0.00    +0.000 A 
ATOM     17  C   UNL     1       1.836   7.543  20.254  0.00  0.00    +0.000 A 
BRANCH  12  18
ATOM     18  C   UNL     1       1.095   9.020  22.183  0.00  0.00    +0.000 C 
BRANCH  18  20
ATOM     19  C   UNL     1      -0.693  10.255  23.080  0.00  0.00    +0.000 C 
ATOM     20  O   UNL     1       0.519  10.314  22.342  0.00  0.00    +0.000 OA
ENDBRANCH  18  20
ENDBRANCH  12  18
ENDBRANCH   1  16
BRANCH   8  21
ATOM     21  O   UNL     1       6.561   3.699  14.915  0.00  0.00    +0.000 OA
BRANCH  21  22
ATOM     22  C   UNL     1       5.564   3.920  13.902  0.00  0.00    +0.000 C 
BRANCH  22  23
ATOM     23  C   UNL     1       5.932   3.274  12.559  0.00  0.00    +0.000 C 
ATOM     24  C   UNL     1       4.729   3.190  11.618  0.00  0.00    +0.000 C 
ATOM     25  C   UNL     1       7.054   4.082  11.901  0.00  0.00    +0.000 C 
ENDBRANCH  22  23
ENDBRANCH  21  22
ENDBRANCH   8  21
TORSDOF 6
ENDMDL
MODEL 2
REMARK VINA RESULT:      -7.6      1.321      2.097
REMARK  Name = 
REMARK  9 active torsions:
REMARK  status: ('A' for Active; 'I' for Inactive)
REMARK    1  A    between atoms: C_1  and  O_2
REMARK    2  A    between atoms: O_2  and  C_3
REMARK    3  A    between atoms: C_3  and  C_4
REMARK    4  A    between atoms: C_8  and  C_9
REMARK    5  A    between atoms: C_16  and  O_18
REMARK    6  A    between atoms: O_18  and  C_19
REMARK    7  A    between atoms: C_19  and  C_20
REMARK    8  A    between atoms: C_20  and  C_21
REMARK    9  A    between atoms: C_20  and  C_22
REMARK                            x       y       z     vdW  Elec       q    Type
REMARK                         _______ _______ _______ _____ _____    ______ ____
ROOT
ATOM      1  C   UNL     1       2.889   5.283  18.482  0.00  0.00    +0.000 C 
ATOM      2  O   UNL     1       2.438   4.220  18.919  0.00  0.00    +0.000 OA
ATOM      3  N   UNL     1       3.822   5.303  17.428  0.00  0.00    +0.000 N 
ATOM      4  C   UNL     1       4.382   6.483  16.769  0.00  0.00    +0.000 C 
ATOM      5  C   UNL     1       5.798   6.850  17.227  0.00  0.00    +0.000 C 
ATOM      6  C   UNL     1       6.848   5.740  17.245  0.00  0.00    +0.000 C 
ATOM      7  N   UNL     1       6.562   4.613  16.379  0.00  0.00    +0.000 N 
ATOM      8  C   UNL     1       6.967   4.677  15.055  0.00  0.00    +0.000 C 
ATOM      9  O   UNL     1       7.626   5.607  14.599  0.00  0.00    +0.000 OA
ATOM     10  C   UNL     1       5.626   3.612  16.900  0.00  0.00    +0.000 C 
ATOM     11  C   UNL     1       4.152   4.022  16.769  0.00  0.00    +0.000 C 
ENDROOT
BRANCH   1  16
ATOM     12  C   UNL     1       1.789   8.907  18.874  0.00  0.00    +0.000 A 
ATOM     13  C   UNL     1       1.358   8.936  20.206  0.00  0.00    +0.000 A 
ATOM     14  C   UNL     1       1.370   7.778  20.969  0.00  0.00    +0.000 A 
ATOM     15  C   UNL     1       1.825   6.583  20.410  0.00  0.00    +0.000 A 
ATOM     16  C   UNL     1       2.350   6.534  19.118  0.00  0.00    +0.000 A 
ATOM     17  C   UNL     1       2.294   7.705  18.343  0.00  0.00    +0.000 A 
BRANCH  12  18
ATOM     18  C   UNL     1       1.682  10.151  18.033  0.00  0.00    +0.000 C 
BRANCH  18  20
ATOM     19  C   UNL     1       2.188  12.442  18.182  0.00  0.00    +0.000 C 
ATOM     20  O   UNL     1       1.750  11.290  18.887  0.00  0.00    +0.000 OA
ENDBRANCH  18  20
ENDBRANCH  12  18
ENDBRANCH   1  16
BRANCH   8  21
ATOM     21  O   UNL     1       6.511   3.636  14.311  0.00  0.00    +0.000 OA
BRANCH  21  22
ATOM     22  C   UNL     1       6.400   3.869  12.897  0.00  0.00    +0.000 C 
BRANCH  22  23
ATOM     23  C   UNL     1       5.636   2.753  12.171  0.00  0.00    +0.000 C 
ATOM     24  C   UNL     1       4.415   3.290  11.423  0.00  0.00    +0.000 C 
ATOM     25  C   UNL     1       6.581   2.050  11.192  0.00  0.00    +0.000 C 
ENDBRANCH  22  23
ENDBRANCH  21  22
ENDBRANCH   8  21
TORSDOF 6
ENDMDL
MODEL 3
REMARK VINA RESULT:      -7.2      2.142      8.241
REMARK  Name = 
REMARK  9 active torsions:
REMARK  status: ('A' for Active; 'I' for Inactive)
REMARK    1  A    between atoms: C_1  and  O_2
REMARK    2  A    between atoms: O_2  and  C_3
REMARK    3  A    between atoms: C_3  and  C_4
REMARK    4  A    between atoms: C_8  and  C_9
REMARK    5  A    between atoms: C_16  and  O_18
REMARK    6  A    between atoms: O_18  and  C_19
REMARK    7  A    between atoms: C_19  and  C_20
REMARK    8  A    between atoms: C_20  and  C_21
REMARK    9  A    between atoms: C_20  and  C_22
REMARK                            x       y       z     vdW  Elec       q    Type
REMARK                         _______ _______ _______ _____ _____    ______ ____
ROOT
ATOM      1  C   UNL     1       6.778   4.563  16.491  0.00  0.00    +0.000 C 
ATOM      2  O   UNL     1       7.823   4.586  17.147  0.00  0.00    +0.000 OA
ATOM      3  N   UNL     1       5.519   4.580  17.122  0.00  0.00    +0.000 N 
ATOM      4  C   UNL     1       4.209   4.628  16.472  0.00  0.00    +0.000 C 
ATOM      5  C   UNL     1       3.486   3.279  16.408  0.00  0.00    +0.000 C 
ATOM      6  C   UNL     1       3.376   2.469  17.699  0.00  0.00    +0.000 C 
ATOM      7  N   UNL     1       3.502   3.243  18.919  0.00  0.00    +0.000 N 
ATOM      8  C   UNL     1       2.365   3.834  19.447  0.00  0.00    +0.000 C 
ATOM      9  O   UNL     1       1.242   3.668  18.978  0.00  0.00    +0.000 OA
ATOM     10  C   UNL     1       4.866   3.570  19.346  0.00  0.00    +0.000 C 
ATOM     11  C   UNL     1       5.480   4.756  18.588  0.00  0.00    +0.000 C 
ENDROOT
BRANCH   1  16
ATOM     12  C   UNL     1       6.192   3.684  12.833  0.00  0.00    +0.000 A 
ATOM     13  C   UNL     1       7.157   4.467  12.189  0.00  0.00    +0.000 A 
ATOM     14  C   UNL     1       7.967   5.321  12.923  0.00  0.00    +0.000 A 
ATOM     15  C   UNL     1       7.826   5.389  14.310  0.00  0.00    +0.000 A 
ATOM     16  C   UNL     1       6.941   4.557  14.997  0.00  0.00    +0.000 A 
ATOM     17  C   UNL     1       6.099   3.727  14.237  0.00  0.00    +0.000 A 
BRANCH  12  18
ATOM     18  C   UNL     1       5.259   2.833  12.013  0.00  0.00    +0.000 C 
BRANCH  18  20
ATOM     19  C   UNL     1       3.375   2.933  10.611  0.00  0.00    +0.000 C 
ATOM     20  O   UNL     1       4.249   3.669  11.453  0.00  0.00    +0.000 OA
ENDBRANCH  18  20
ENDBRANCH  12  18
ENDBRANCH   1  16
BRANCH   8  21
ATOM     21  O   UNL     1       2.634   4.653  20.497  0.00  0.00    +0.000 OA
BRANCH  21  22
ATOM     22  C   UNL     1       1.718   5.742  20.699  0.00  0.00    +0.000 C 
BRANCH  22  23
ATOM     23  C   UNL     1       2.288   7.090  20.236  0.00  0.00    +0.000 C 
ATOM     24  C   UNL     1       2.414   7.164  18.714  0.00  0.00    +0.000 C 
ATOM     25  C   UNL     1       1.387   8.220  20.741  0.00  0.00    +0.000 C 
ENDBRANCH  22  23
ENDBRANCH  21  22
ENDBRANCH   8  21
TORSDOF 6
ENDMDL
MODEL 4
REMARK VINA RESULT:      -7.1      2.960      8.807
REMARK  Name = 
REMARK  9 active torsions:
REMARK  status: ('A' for Active; 'I' for Inactive)
REMARK    1  A    between atoms: C_1  and  O_2
REMARK    2  A    between atoms: O_2  and  C_3
REMARK    3  A    between atoms: C_3  and  C_4
REMARK    4  A    between atoms: C_8  and  C_9
REMARK    5  A    between atoms: C_16  and  O_18
REMARK    6  A    between atoms: O_18  and  C_19
REMARK    7  A    between atoms: C_19  and  C_20
REMARK    8  A    between atoms: C_20  and  C_21
REMARK    9  A    between atoms: C_20  and  C_22
REMARK                            x       y       z     vdW  Elec       q    Type
REMARK                         _______ _______ _______ _____ _____    ______ ____
ROOT
ATOM      1  C   UNL     1       2.061   6.259  19.900  0.00  0.00    +0.000 C 
ATOM      2  O   UNL     1       1.603   5.661  20.878  0.00  0.00    +0.000 OA
ATOM      3  N   UNL     1       1.998   7.662  19.807  0.00  0.00    +0.000 N 
ATOM      4  C   UNL     1       2.560   8.501  18.747  0.00  0.00    +0.000 C 
ATOM      5  C   UNL     1       1.534   8.990  17.718  0.00  0.00    +0.000 C 
ATOM      6  C   UNL     1       0.254   9.637  18.244  0.00  0.00    +0.000 C 
ATOM      7  N   UNL     1       0.347  10.174  19.588  0.00  0.00    +0.000 N 
ATOM      8  C   UNL     1       0.811  11.470  19.750  0.00  0.00    +0.000 C 
ATOM      9  O   UNL     1       1.071  12.214  18.807  0.00  0.00    +0.000 OA
ATOM     10  C   UNL     1       0.206   9.214  20.686  0.00  0.00    +0.000 C 
ATOM     11  C   UNL     1       1.485   8.413  20.971  0.00  0.00    +0.000 C 
ENDROOT
BRANCH   1  16
ATOM     12  C   UNL     1       4.784   4.690  17.751  0.00  0.00    +0.000 A 
ATOM     13  C   UNL     1       4.044   3.836  16.924  0.00  0.00    +0.000 A 
ATOM     14  C   UNL     1       2.672   3.722  17.087  0.00  0.00    +0.000 A 
ATOM     15  C   UNL     1       2.025   4.471  18.072  0.00  0.00    +0.000 A 
ATOM     16  C   UNL     1       2.714   5.401  18.853  0.00  0.00    +0.000 A 
ATOM     17  C   UNL     1       4.110   5.476  18.704  0.00  0.00    +0.000 A 
BRANCH  12  18
ATOM     18  C   UNL     1       6.284   4.731  17.622  0.00  0.00    +0.000 C 
BRANCH  18  20
ATOM     19  C   UNL     1       7.735   5.733  19.176  0.00  0.00    +0.000 C 
ATOM     20  O   UNL     1       6.859   4.646  18.923  0.00  0.00    +0.000 OA
ENDBRANCH  18  20
ENDBRANCH  12  18
ENDBRANCH   1  16
BRANCH   8  21
ATOM     21  O   UNL     1       0.998  11.806  21.053  0.00  0.00    +0.000 OA
BRANCH  21  22
ATOM     22  C   UNL     1       0.206  12.901  21.543  0.00  0.00    +0.000 C 
BRANCH  22  23
ATOM     23  C   UNL     1      -1.248  12.498  21.830  0.00  0.00    +0.000 C 
ATOM     24  C   UNL     1      -1.354  11.560  23.034  0.00  0.00    +0.000 C 
ATOM     25  C   UNL     1      -2.082  13.758  22.074  0.00  0.00    +0.000 C 
ENDBRANCH  22  23
ENDBRANCH  21  22
ENDBRANCH   8  21
TORSDOF 6
ENDMDL
MODEL 5
REMARK VINA RESULT:      -7.0      3.008      4.547
REMARK  Name = 
REMARK  9 active torsions:
REMARK  status: ('A' for Active; 'I' for Inactive)
REMARK    1  A    between atoms: C_1  and  O_2
REMARK    2  A    between atoms: O_2  and  C_3
REMARK    3  A    between atoms: C_3  and  C_4
REMARK    4  A    between atoms: C_8  and  C_9
REMARK    5  A    between atoms: C_16  and  O_18
REMARK    6  A    between atoms: O_18  and  C_19
REMARK    7  A    between atoms: C_19  and  C_20
REMARK    8  A    between atoms: C_20  and  C_21
REMARK    9  A    between atoms: C_20  and  C_22
REMARK                            x       y       z     vdW  Elec       q    Type
REMARK                         _______ _______ _______ _____ _____    ______ ____
ROOT
ATOM      1  C   UNL     1       2.104   8.473  18.202  0.00  0.00    +0.000 C 
ATOM      2  O   UNL     1       2.361   8.914  17.079  0.00  0.00    +0.000 OA
ATOM      3  N   UNL     1       2.752   7.328  18.703  0.00  0.00    +0.000 N 
ATOM      4  C   UNL     1       2.599   6.740  20.035  0.00  0.00    +0.000 C 
ATOM      5  C   UNL     1       1.691   5.506  20.079  0.00  0.00    +0.000 C 
ATOM      6  C   UNL     1       1.955   4.392  19.066  0.00  0.00    +0.000 C 
ATOM      7  N   UNL     1       3.298   4.369  18.519  0.00  0.00    +0.000 N 
ATOM      8  C   UNL     1       4.280   3.678  19.211  0.00  0.00    +0.000 C 
ATOM      9  O   UNL     1       4.053   3.018  20.221  0.00  0.00    +0.000 OA
ATOM     10  C   UNL     1       3.573   5.306  17.426  0.00  0.00    +0.000 C 
ATOM     11  C   UNL     1       3.845   6.741  17.899  0.00  0.00    +0.000 C 
ENDROOT
BRANCH   1  16
ATOM     12  C   UNL     1      -0.808  10.795  18.992  0.00  0.00    +0.000 A 
ATOM     13  C   UNL     1      -0.837  10.757  20.392  0.00  0.00    +0.000 A 
ATOM     14  C   UNL     1       0.046   9.944  21.087  0.00  0.00    +0.000 A 
ATOM     15  C   UNL     1       0.975   9.171  20.388  0.00  0.00    +0.000 A 
ATOM     16  C   UNL     1       1.097   9.254  18.999  0.00  0.00    +0.000 A 
ATOM     17  C   UNL     1       0.169  10.049  18.306  0.00  0.00    +0.000 A 
BRANCH  12  18
ATOM     18  C   UNL     1      -1.835  11.610  18.252  0.00  0.00    +0.000 C 
BRANCH  18  20
ATOM     19  C   UNL     1      -3.401  10.176  17.243  0.00  0.00    +0.000 C 
ATOM     20  O   UNL     1      -3.104  10.974  18.379  0.00  0.00    +0.000 OA
ENDBRANCH  18  20
ENDBRANCH  12  18
ENDBRANCH   1  16
BRANCH   8  21
ATOM     21  O   UNL     1       5.521   3.855  18.685  0.00  0.00    +0.000 OA
BRANCH  21  22
ATOM     22  C   UNL     1       6.307   4.911  19.261  0.00  0.00    +0.000 C 
BRANCH  22  23
ATOM     23  C   UNL     1       7.545   5.255  18.420  0.00  0.00    +0.000 C 
ATOM     24  C   UNL     1       7.497   4.598  17.039  0.00  0.00    +0.000 C 
ATOM     25  C   UNL     1       7.648   6.775  18.272  0.00  0.00    +0.000 C 
ENDBRANCH  22  23
ENDBRANCH  21  22
ENDBRANCH   8  21
TORSDOF 6
ENDMDL
MODEL 6
REMARK VINA RESULT:      -6.9      2.862      4.457
REMARK  Name = 
REMARK  9 active torsions:
REMARK  status: ('A' for Active; 'I' for Inactive)
REMARK    1  A    between atoms: C_1  and  O_2
REMARK    2  A    between atoms: O_2  and  C_3
REMARK    3  A    between atoms: C_3  and  C_4
REMARK    4  A    between atoms: C_8  and  C_9
REMARK    5  A    between atoms: C_16  and  O_18
REMARK    6  A    between atoms: O_18  and  C_19
REMARK    7  A    between atoms: C_19  and  C_20
REMARK    8  A    between atoms: C_20  and  C_21
REMARK    9  A    between atoms: C_20  and  C_22
REMARK                            x       y       z     vdW  Elec       q    Type
REMARK                         _______ _______ _______ _____ _____    ______ ____
ROOT
ATOM      1  C   UNL     1       1.973   8.539  18.411  0.00  0.00    +0.000 C 
ATOM      2  O   UNL     1       2.136   9.014  17.284  0.00  0.00    +0.000 OA
ATOM      3  N   UNL     1       2.645   7.370  18.816  0.00  0.00    +0.000 N 
ATOM      4  C   UNL     1       2.601   6.740  20.136  0.00  0.00    +0.000 C 
ATOM      5  C   UNL     1       1.681   5.518  20.223  0.00  0.00    +0.000 C 
ATOM      6  C   UNL     1       1.837   4.435  19.156  0.00  0.00    +0.000 C 
ATOM      7  N   UNL     1       3.124   4.412  18.490  0.00  0.00    +0.000 N 
ATOM      8  C   UNL     1       4.154   3.686  19.068  0.00  0.00    +0.000 C 
ATOM      9  O   UNL     1       4.007   2.996  20.073  0.00  0.00    +0.000 OA
ATOM     10  C   UNL     1       3.316   5.381  17.407  0.00  0.00    +0.000 C 
ATOM     11  C   UNL     1       3.652   6.796  17.899  0.00  0.00    +0.000 C 
ENDROOT
BRANCH   1  16
ATOM     12  C   UNL     1      -0.652  11.051  19.552  0.00  0.00    +0.000 A 
ATOM     13  C   UNL     1      -0.710  10.804  20.929  0.00  0.00    +0.000 A 
ATOM     14  C   UNL     1       0.057   9.793  21.490  0.00  0.00    +0.000 A 
ATOM     15  C   UNL     1       0.898   9.029  20.679  0.00  0.00    +0.000 A 
ATOM     16  C   UNL     1       1.053   9.306  19.320  0.00  0.00    +0.000 A 
ATOM     17  C   UNL     1       0.241  10.306  18.758  0.00  0.00    +0.000 A 
BRANCH  12  18
ATOM     18  C   UNL     1      -1.559  12.089  18.946  0.00  0.00    +0.000 C 
BRANCH  18  20
ATOM     19  C   UNL     1      -0.285  14.038  18.624  0.00  0.00    +0.000 C 
ATOM     20  O   UNL     1      -0.809  12.867  18.016  0.00  0.00    +0.000 OA
ENDBRANCH  18  20
ENDBRANCH  12  18
ENDBRANCH   1  16
BRANCH   8  21
ATOM     21  O   UNL     1       5.345   3.864  18.439  0.00  0.00    +0.000 OA
BRANCH  21  22
ATOM     22  C   UNL     1       6.257   4.784  19.062  0.00  0.00    +0.000 C 
BRANCH  22  23
ATOM     23  C   UNL     1       7.436   5.156  18.151  0.00  0.00    +0.000 C 
ATOM     24  C   UNL     1       7.277   4.575  16.745  0.00  0.00    +0.000 C 
ATOM     25  C   UNL     1       7.554   6.681  18.076  0.00  0.00    +0.000 C 
ENDBRANCH  22  23
ENDBRANCH  21  22
ENDBRANCH   8  21
TORSDOF 6
ENDMDL
MODEL 7
REMARK VINA RESULT:      -6.9      2.304      9.043
REMARK  Name = 
REMARK  9 active torsions:
REMARK  status: ('A' for Active; 'I' for Inactive)
REMARK    1  A    between atoms: C_1  and  O_2
REMARK    2  A    between atoms: O_2  and  C_3
REMARK    3  A    between atoms: C_3  and  C_4
REMARK    4  A    between atoms: C_8  and  C_9
REMARK    5  A    between atoms: C_16  and  O_18
REMARK    6  A    between atoms: O_18  and  C_19
REMARK    7  A    between atoms: C_19  and  C_20
REMARK    8  A    between atoms: C_20  and  C_21
REMARK    9  A    between atoms: C_20  and  C_22
REMARK                            x       y       z     vdW  Elec       q    Type
REMARK                         _______ _______ _______ _____ _____    ______ ____
ROOT
ATOM      1  C   UNL     1       2.006   6.300  19.874  0.00  0.00    +0.000 C 
ATOM      2  O   UNL     1       1.581   5.701  20.866  0.00  0.00    +0.000 OA
ATOM      3  N   UNL     1       1.939   7.703  19.784  0.00  0.00    +0.000 N 
ATOM      4  C   UNL     1       2.464   8.543  18.706  0.00  0.00    +0.000 C 
ATOM      5  C   UNL     1       1.404   9.033  17.714  0.00  0.00    +0.000 C 
ATOM      6  C   UNL     1       0.142   9.679  18.283  0.00  0.00    +0.000 C 
ATOM      7  N   UNL     1       0.280  10.215  19.623  0.00  0.00    +0.000 N 
ATOM      8  C   UNL     1       0.749  11.510  19.770  0.00  0.00    +0.000 C 
ATOM      9  O   UNL     1       0.976  12.255  18.820  0.00  0.00    +0.000 OA
ATOM     10  C   UNL     1       0.177   9.253  20.725  0.00  0.00    +0.000 C 
ATOM     11  C   UNL     1       1.465   8.453  20.966  0.00  0.00    +0.000 C 
ENDROOT
BRANCH   1  16
ATOM     12  C   UNL     1       4.616   4.879  17.494  0.00  0.00    +0.000 A 
ATOM     13  C   UNL     1       3.885   3.894  16.817  0.00  0.00    +0.000 A 
ATOM     14  C   UNL     1       2.564   3.647  17.159  0.00  0.00    +0.000 A 
ATOM     15  C   UNL     1       1.958   4.392  18.172  0.00  0.00    +0.000 A 
ATOM     16  C   UNL     1       2.624   5.443  18.804  0.00  0.00    +0.000 A 
ATOM     17  C   UNL     1       3.974   5.655  18.477  0.00  0.00    +0.000 A 
BRANCH  12  18
ATOM     18  C   UNL     1       6.075   5.070  17.174  0.00  0.00    +0.000 C 
BRANCH  18  20
ATOM     19  C   UNL     1       7.048   4.720  15.063  0.00  0.00    +0.000 C 
ATOM     20  O   UNL     1       6.461   4.104  16.200  0.00  0.00    +0.000 OA
ENDBRANCH  18  20
ENDBRANCH  12  18
ENDBRANCH   1  16
BRANCH   8  21
ATOM     21  O   UNL     1       0.979  11.845  21.067  0.00  0.00    +0.000 OA
BRANCH  21  22
ATOM     22  C   UNL     1       0.465  13.119  21.492  0.00  0.00    +0.000 C 
BRANCH  22  23
ATOM     23  C   UNL     1      -0.892  13.003  22.201  0.00  0.00    +0.000 C 
ATOM     24  C   UNL     1      -1.050  11.659  22.914  0.00  0.00    +0.000 C 
ATOM     25  C   UNL     1      -1.035  14.148  23.207  0.00  0.00    +0.000 C 
ENDBRANCH  22  23
ENDBRANCH  21  22
ENDBRANCH   8  21
TORSDOF 6
ENDMDL
MODEL 8
REMARK VINA RESULT:      -6.7      2.899      4.587
REMARK  Name = 
REMARK  9 active torsions:
REMARK  status: ('A' for Active; 'I' for Inactive)
REMARK    1  A    between atoms: C_1  and  O_2
REMARK    2  A    between atoms: O_2  and  C_3
REMARK    3  A    between atoms: C_3  and  C_4
REMARK    4  A    between atoms: C_8  and  C_9
REMARK    5  A    between atoms: C_16  and  O_18
REMARK    6  A    between atoms: O_18  and  C_19
REMARK    7  A    between atoms: C_19  and  C_20
REMARK    8  A    between atoms: C_20  and  C_21
REMARK    9  A    between atoms: C_20  and  C_22
REMARK                            x       y       z     vdW  Elec       q    Type
REMARK                         _______ _______ _______ _____ _____    ______ ____
ROOT
ATOM      1  C   UNL     1       1.743   8.436  19.080  0.00  0.00    +0.000 C 
ATOM      2  O   UNL     1       1.818   9.014  17.992  0.00  0.00    +0.000 OA
ATOM      3  N   UNL     1       2.398   7.210  19.303  0.00  0.00    +0.000 N 
ATOM      4  C   UNL     1       2.454   6.455  20.556  0.00  0.00    +0.000 C 
ATOM      5  C   UNL     1       1.494   5.263  20.617  0.00  0.00    +0.000 C 
ATOM      6  C   UNL     1       1.498   4.285  19.442  0.00  0.00    +0.000 C 
ATOM      7  N   UNL     1       2.714   4.284  18.653  0.00  0.00    +0.000 N 
ATOM      8  C   UNL     1       3.761   3.470  19.055  0.00  0.00    +0.000 C 
ATOM      9  O   UNL     1       3.681   2.689  19.999  0.00  0.00    +0.000 OA
ATOM     10  C   UNL     1       2.844   5.348  17.652  0.00  0.00    +0.000 C 
ATOM     11  C   UNL     1       3.287   6.695  18.241  0.00  0.00    +0.000 C 
ENDROOT
BRANCH   1  16
ATOM     12  C   UNL     1      -0.691  10.875  20.701  0.00  0.00    +0.000 A 
ATOM     13  C   UNL     1      -0.589  10.530  22.054  0.00  0.00    +0.000 A 
ATOM     14  C   UNL     1       0.225   9.477  22.447  0.00  0.00    +0.000 A 
ATOM     15  C   UNL     1       0.953   8.768  21.489  0.00  0.00    +0.000 A 
ATOM     16  C   UNL     1       0.949   9.141  20.144  0.00  0.00    +0.000 A 
ATOM     17  C   UNL     1       0.089  10.183  19.755  0.00  0.00    +0.000 A 
BRANCH  12  18
ATOM     18  C   UNL     1      -1.650  11.958  20.283  0.00  0.00    +0.000 C 
BRANCH  18  20
ATOM     19  C   UNL     1      -3.113  11.611  18.476  0.00  0.00    +0.000 C 
ATOM     20  O   UNL     1      -1.785  11.928  18.864  0.00  0.00    +0.000 OA
ENDBRANCH  18  20
ENDBRANCH  12  18
ENDBRANCH   1  16
BRANCH   8  21
ATOM     21  O   UNL     1       4.893   3.668  18.330  0.00  0.00    +0.000 OA
BRANCH  21  22
ATOM     22  C   UNL     1       5.955   4.372  18.996  0.00  0.00    +0.000 C 
BRANCH  22  23
ATOM     23  C   UNL     1       6.687   5.353  18.069  0.00  0.00    +0.000 C 
ATOM     24  C   UNL     1       7.808   6.097  18.796  0.00  0.00    +0.000 C 
ATOM     25  C   UNL     1       7.259   4.586  16.873  0.00  0.00    +0.000 C 
ENDBRANCH  22  23
ENDBRANCH  21  22
ENDBRANCH   8  21
TORSDOF 6
ENDMDL
MODEL 9
REMARK VINA RESULT:      -6.7      2.131      8.618
REMARK  Name = 
REMARK  9 active torsions:
REMARK  status: ('A' for Active; 'I' for Inactive)
REMARK    1  A    between atoms: C_1  and  O_2
REMARK    2  A    between atoms: O_2  and  C_3
REMARK    3  A    between atoms: C_3  and  C_4
REMARK    4  A    between atoms: C_8  and  C_9
REMARK    5  A    between atoms: C_16  and  O_18
REMARK    6  A    between atoms: O_18  and  C_19
REMARK    7  A    between atoms: C_19  and  C_20
REMARK    8  A    between atoms: C_20  and  C_21
REMARK    9  A    between atoms: C_20  and  C_22
REMARK                            x       y       z     vdW  Elec       q    Type
REMARK                         _______ _______ _______ _____ _____    ______ ____
ROOT
ATOM      1  C   UNL     1       6.842   4.555  16.287  0.00  0.00    +0.000 C 
ATOM      2  O   UNL     1       7.907   4.550  16.910  0.00  0.00    +0.000 OA
ATOM      3  N   UNL     1       5.605   4.629  16.955  0.00  0.00    +0.000 N 
ATOM      4  C   UNL     1       4.277   4.715  16.345  0.00  0.00    +0.000 C 
ATOM      5  C   UNL     1       3.504   3.393  16.328  0.00  0.00    +0.000 C 
ATOM      6  C   UNL     1       3.405   2.610  17.636  0.00  0.00    +0.000 C 
ATOM      7  N   UNL     1       3.598   3.399  18.837  0.00  0.00    +0.000 N 
ATOM      8  C   UNL     1       2.500   4.040  19.389  0.00  0.00    +0.000 C 
ATOM      9  O   UNL     1       1.358   3.908  18.958  0.00  0.00    +0.000 OA
ATOM     10  C   UNL     1       4.986   3.682  19.216  0.00  0.00    +0.000 C 
ATOM     11  C   UNL     1       5.619   4.832  18.419  0.00  0.00    +0.000 C 
ENDROOT
BRANCH   1  16
ATOM     12  C   UNL     1       6.290   3.455  12.683  0.00  0.00    +0.000 A 
ATOM     13  C   UNL     1       7.098   4.356  11.979  0.00  0.00    +0.000 A 
ATOM     14  C   UNL     1       7.783   5.355  12.654  0.00  0.00    +0.000 A 
ATOM     15  C   UNL     1       7.677   5.453  14.043  0.00  0.00    +0.000 A 
ATOM     16  C   UNL     1       6.957   4.517  14.788  0.00  0.00    +0.000 A 
ATOM     17  C   UNL     1       6.235   3.536  14.088  0.00  0.00    +0.000 A 
BRANCH  12  18
ATOM     18  C   UNL     1       5.480   2.437  11.926  0.00  0.00    +0.000 C 
BRANCH  18  20
ATOM     19  C   UNL     1       6.075   0.278  11.210  0.00  0.00    +0.000 C 
ATOM     20  O   UNL     1       6.359   1.665  11.111  0.00  0.00    +0.000 OA
ENDBRANCH  18  20
ENDBRANCH  12  18
ENDBRANCH   1  16
BRANCH   8  21
ATOM     21  O   UNL     1       2.832   4.866  20.416  0.00  0.00    +0.000 OA
BRANCH  21  22
ATOM     22  C   UNL     1       1.754   5.627  20.988  0.00  0.00    +0.000 C 
BRANCH  22  23
ATOM     23  C   UNL     1       1.539   6.973  20.281  0.00  0.00    +0.000 C 
ATOM     24  C   UNL     1       1.469   8.135  21.273  0.00  0.00    +0.000 C 
ATOM     25  C   UNL     1       2.677   7.206  19.283  0.00  0.00    +0.000 C 
ENDBRANCH  22  23
ENDBRANCH  21  22
ENDBRANCH   8  21
TORSDOF 6
ENDMDL
