MODEL 1
REMARK VINA RESULT:      -8.5      0.000      0.000
REMARK  Name = 
REMARK  7 active torsions:
REMARK  status: ('A' for Active; 'I' for Inactive)
REMARK    1  A    between atoms: C_1  and  C_2
REMARK    2  A    between atoms: N_4  and  C_5
REMARK    3  A    between atoms: C_5  and  C_6
REMARK    4  A    between atoms: C_15  and  C_16
REMARK    5  A    between atoms: N_18  and  C_19
REMARK    6  A    between atoms: N_22  and  C_23
REMARK    7  A    between atoms: C_23  and  C_24
REMARK                            x       y       z     vdW  Elec       q    Type
REMARK                         _______ _______ _______ _____ _____    ______ ____
ROOT
ATOM      1  C   UNL     1       1.320   2.701  21.007  0.00  0.00    +0.000 C 
ATOM      2  C   UNL     1       2.049   3.718  20.213  0.00  0.00    +0.000 A 
ATOM      3  N   UNL     1       2.974   3.307  19.307  0.00  0.00    +0.000 NA
ATOM      4  N   UNL     1       3.443   4.463  18.748  0.00  0.00    +0.000 N 
ATOM      5  C   UNL     1       2.834   5.539  19.279  0.00  0.00    +0.000 A 
ATOM      6  S   UNL     1       2.894   7.169  19.054  0.00  0.00    +0.000 S 
ATOM      7  C   UNL     1       1.663   7.402  20.303  0.00  0.00    +0.000 A 
ATOM      8  C   UNL     1       1.245   6.158  20.821  0.00  0.00    +0.000 A 
ATOM      9  C   UNL     1       1.962   5.120  20.194  0.00  0.00    +0.000 A 
ENDROOT
BRANCH   7  10
ATOM     10  C   UNL     1       1.264   8.796  20.622  0.00  0.00    +0.000 C 
ATOM     11  O   UNL     1       1.230   9.267  21.748  0.00  0.00    +0.000 OA
ATOM     12  N   UNL     1       0.934   9.514  19.493  0.00  0.00    +0.000 N 
ATOM     13  H   UNL     1       0.903   8.944  18.658  0.00  0.00    +0.000 HD
BRANCH  12  14
ATOM     14  C   UNL     1       0.446  10.877  19.269  0.00  0.00    +0.000 C 
ATOM     15  C   UNL     1       1.295  12.025  19.811  0.00  0.00    +0.000 C 
ATOM     16  C   UNL     1       0.721  12.726  21.040  0.00  0.00    +0.000 C 
ATOM     17  N   UNL     1      -0.725  13.001  20.916  0.00  0.00    +0.000 NA
ATOM     18  C   UNL     1      -1.436  11.722  20.782  0.00  0.00    +0.000 C 
ATOM     19  C   UNL     1      -1.056  11.030  19.480  0.00  0.00    +0.000 C 
BRANCH  17  20
ATOM     20  C   UNL     1      -1.172  13.742  22.118  0.00  0.00    +0.000 C 
BRANCH  20  21
ATOM     21  C   UNL     1      -2.638  13.583  22.481  0.00  0.00    +0.000 A 
ATOM     22  C   UNL     1      -3.007  12.826  23.606  0.00  0.00    +0.000 A 
ATOM     23  C   UNL     1      -4.346  12.712  23.986  0.00  0.00    +0.000 A 
ATOM     24  C   UNL     1      -5.336  13.358  23.248  0.00  0.00    +0.000 A 
ATOM     25  C   UNL     1      -4.985  14.107  22.124  0.00  0.00    +0.000 A 
ATOM     26  C   UNL     1      -3.647  14.217  21.741  0.00  0.00    +0.000 A 
ENDBRANCH  20  21
ENDBRANCH  17  20
ENDBRANCH  12  14
ENDBRANCH   7  10
BRANCH   4  27
ATOM     27  C   UNL     1       4.378   4.450  17.630  0.00  0.00    +0.000 C 
BRANCH  27  28
ATOM     28  C   UNL     1       5.577   5.339  17.866  0.00  0.00    +0.000 A 
ATOM     29  C   UNL     1       6.439   5.039  18.938  0.00  0.00    +0.000 A 
ATOM     30  C   UNL     1       7.592   5.791  19.171  0.00  0.00    +0.000 A 
ATOM     31  C   UNL     1       7.911   6.857  18.336  0.00  0.00    +0.000 A 
ATOM     32  C   UNL     1       7.067   7.179  17.279  0.00  0.00    +0.000 A 
ATOM     33  C   UNL     1       5.905   6.433  17.043  0.00  0.00    +0.000 A 
ATOM     34 CL   UNL     1       4.925   6.913  15.703  0.00  0.00    +0.000 Cl
ENDBRANCH  27  28
ENDBRANCH   4  27
TORSDOF 6
ENDMDL
MODEL 2
REMARK VINA RESULT:      -8.2      0.944      1.274
REMARK  Name = 
REMARK  7 active torsions:
REMARK  status: ('A' for Active; 'I' for Inactive)
REMARK    1  A    between atoms: C_1  and  C_2
REMARK    2  A    between atoms: N_4  and  C_5
REMARK    3  A    between atoms: C_5  and  C_6
REMARK    4  A    between atoms: C_15  and  C_16
REMARK    5  A    between atoms: N_18  and  C_19
REMARK    6  A    between atoms: N_22  and  C_23
REMARK    7  A    between atoms: C_23  and  C_24
REMARK                            x       y       z     vdW  Elec       q    Type
REMARK                         _______ _______ _______ _____ _____    ______ ____
ROOT
ATOM      1  C   UNL     1       1.315   2.889  21.306  0.00  0.00    +0.000 C 
ATOM      2  C   UNL     1       1.947   3.923  20.452  0.00  0.00    +0.000 A 
ATOM      3  N   UNL     1       2.792   3.532  19.463  0.00  0.00    +0.000 NA
ATOM      4  N   UNL     1       3.184   4.699  18.867  0.00  0.00    +0.000 N 
ATOM      5  C   UNL     1       2.604   5.761  19.456  0.00  0.00    +0.000 A 
ATOM      6  S   UNL     1       2.609   7.392  19.232  0.00  0.00    +0.000 S 
ATOM      7  C   UNL     1       1.494   7.598  20.590  0.00  0.00    +0.000 A 
ATOM      8  C   UNL     1       1.151   6.344  21.141  0.00  0.00    +0.000 A 
ATOM      9  C   UNL     1       1.829   5.322  20.446  0.00  0.00    +0.000 A 
ENDROOT
BRANCH   7  10
ATOM     10  C   UNL     1       1.098   8.982  20.950  0.00  0.00    +0.000 C 
ATOM     11  O   UNL     1       1.091   9.429  22.086  0.00  0.00    +0.000 OA
ATOM     12  N   UNL     1       0.736   9.723  19.845  0.00  0.00    +0.000 N 
ATOM     13  H   UNL     1       0.686   9.171  18.999  0.00  0.00    +0.000 HD
BRANCH  12  14
ATOM     14  C   UNL     1       0.237  11.088  19.664  0.00  0.00    +0.000 C 
ATOM     15  C   UNL     1      -0.193  11.851  20.915  0.00  0.00    +0.000 C 
ATOM     16  C   UNL     1      -1.701  12.024  21.078  0.00  0.00    +0.000 C 
ATOM     17  N   UNL     1      -2.367  12.426  19.823  0.00  0.00    +0.000 NA
ATOM     18  C   UNL     1      -2.163  11.367  18.824  0.00  0.00    +0.000 C 
ATOM     19  C   UNL     1      -0.689  11.245  18.463  0.00  0.00    +0.000 C 
BRANCH  17  20
ATOM     20  C   UNL     1      -3.807  12.638  20.095  0.00  0.00    +0.000 C 
BRANCH  20  21
ATOM     21  C   UNL     1      -4.128  13.532  21.281  0.00  0.00    +0.000 A 
ATOM     22  C   UNL     1      -4.862  13.025  22.366  0.00  0.00    +0.000 A 
ATOM     23  C   UNL     1      -5.122  13.815  23.488  0.00  0.00    +0.000 A 
ATOM     24  C   UNL     1      -4.646  15.124  23.542  0.00  0.00    +0.000 A 
ATOM     25  C   UNL     1      -3.922  15.643  22.468  0.00  0.00    +0.000 A 
ATOM     26  C   UNL     1      -3.667  14.855  21.344  0.00  0.00    +0.000 A 
ENDBRANCH  20  21
ENDBRANCH  17  20
ENDBRANCH  12  14
ENDBRANCH   7  10
BRANCH   4  27
ATOM     27  C   UNL     1       4.012   4.707  17.667  0.00  0.00    +0.000 C 
BRANCH  27  28
ATOM     28  C   UNL     1       5.332   5.411  17.878  0.00  0.00    +0.000 A 
ATOM     29  C   UNL     1       6.050   5.157  19.062  0.00  0.00    +0.000 A 
ATOM     30  C   UNL     1       7.301   5.736  19.288  0.00  0.00    +0.000 A 
ATOM     31  C   UNL     1       7.863   6.577  18.333  0.00  0.00    +0.000 A 
ATOM     32  C   UNL     1       7.165   6.852  17.162  0.00  0.00    +0.000 A 
ATOM     33  C   UNL     1       5.907   6.280  16.933  0.00  0.00    +0.000 A 
ATOM     34 CL   UNL     1       5.124   6.683  15.445  0.00  0.00    +0.000 Cl
ENDBRANCH  27  28
ENDBRANCH   4  27
TORSDOF 6
ENDMDL
MODEL 3
REMARK VINA RESULT:      -8.1      1.924      2.233
REMARK  Name = 
REMARK  7 active torsions:
REMARK  status: ('A' for Active; 'I' for Inactive)
REMARK    1  A    between atoms: C_1  and  C_2
REMARK    2  A    between atoms: N_4  and  C_5
REMARK    3  A    between atoms: C_5  and  C_6
REMARK    4  A    between atoms: C_15  and  C_16
REMARK    5  A    between atoms: N_18  and  C_19
REMARK    6  A    between atoms: N_22  and  C_23
REMARK    7  A    between atoms: C_23  and  C_24
REMARK                            x       y       z     vdW  Elec       q    Type
REMARK                         _______ _______ _______ _____ _____    ______ ____
ROOT
ATOM      1  C   UNL     1       1.372   2.984  21.317  0.00  0.00    +0.000 C 
ATOM      2  C   UNL     1       2.013   3.984  20.431  0.00  0.00    +0.000 A 
ATOM      3  N   UNL     1       2.891   3.558  19.485  0.00  0.00    +0.000 NA
ATOM      4  N   UNL     1       3.284   4.701  18.844  0.00  0.00    +0.000 N 
ATOM      5  C   UNL     1       2.673   5.781  19.364  0.00  0.00    +0.000 A 
ATOM      6  S   UNL     1       2.662   7.400  19.061  0.00  0.00    +0.000 S 
ATOM      7  C   UNL     1       1.507   7.654  20.377  0.00  0.00    +0.000 A 
ATOM      8  C   UNL     1       1.167   6.424  20.978  0.00  0.00    +0.000 A 
ATOM      9  C   UNL     1       1.877   5.380  20.353  0.00  0.00    +0.000 A 
ENDROOT
BRANCH   7  10
ATOM     10  C   UNL     1       1.083   9.049  20.657  0.00  0.00    +0.000 C 
ATOM     11  O   UNL     1       1.040   9.551  21.770  0.00  0.00    +0.000 OA
ATOM     12  N   UNL     1       0.741   9.730  19.508  0.00  0.00    +0.000 N 
ATOM     13  H   UNL     1       0.721   9.136  18.689  0.00  0.00    +0.000 HD
BRANCH  12  14
ATOM     14  C   UNL     1       0.228  11.076  19.247  0.00  0.00    +0.000 C 
ATOM     15  C   UNL     1       0.120  12.030  20.435  0.00  0.00    +0.000 C 
ATOM     16  C   UNL     1      -1.303  12.295  20.922  0.00  0.00    +0.000 C 
ATOM     17  N   UNL     1      -2.247  12.544  19.813  0.00  0.00    +0.000 NA
ATOM     18  C   UNL     1      -2.300  11.344  18.965  0.00  0.00    +0.000 C 
ATOM     19  C   UNL     1      -0.957  11.103  18.289  0.00  0.00    +0.000 C 
BRANCH  17  20
ATOM     20  C   UNL     1      -3.576  12.860  20.383  0.00  0.00    +0.000 C 
BRANCH  20  21
ATOM     21  C   UNL     1      -4.767  12.311  19.618  0.00  0.00    +0.000 A 
ATOM     22  C   UNL     1      -5.808  11.663  20.306  0.00  0.00    +0.000 A 
ATOM     23  C   UNL     1      -6.936  11.198  19.626  0.00  0.00    +0.000 A 
ATOM     24  C   UNL     1      -7.042  11.379  18.249  0.00  0.00    +0.000 A 
ATOM     25  C   UNL     1      -6.014  12.013  17.552  0.00  0.00    +0.000 A 
ATOM     26  C   UNL     1      -4.883  12.474  18.230  0.00  0.00    +0.000 A 
ENDBRANCH  20  21
ENDBRANCH  17  20
ENDBRANCH  12  14
ENDBRANCH   7  10
BRANCH   4  27
ATOM     27  C   UNL     1       4.144   4.663  17.668  0.00  0.00    +0.000 C 
BRANCH  27  28
ATOM     28  C   UNL     1       5.443   5.407  17.876  0.00  0.00    +0.000 A 
ATOM     29  C   UNL     1       6.174   5.172  19.055  0.00  0.00    +0.000 A 
ATOM     30  C   UNL     1       7.407   5.788  19.277  0.00  0.00    +0.000 A 
ATOM     31  C   UNL     1       7.939   6.650  18.323  0.00  0.00    +0.000 A 
ATOM     32  C   UNL     1       7.227   6.908  17.156  0.00  0.00    +0.000 A 
ATOM     33  C   UNL     1       5.986   6.297  16.931  0.00  0.00    +0.000 A 
ATOM     34 CL   UNL     1       5.184   6.681  15.449  0.00  0.00    +0.000 Cl
ENDBRANCH  27  28
ENDBRANCH   4  27
TORSDOF 6
ENDMDL
MODEL 4
REMARK VINA RESULT:      -7.9      1.023      1.422
REMARK  Name = 
REMARK  7 active torsions:
REMARK  status: ('A' for Active; 'I' for Inactive)
REMARK    1  A    between atoms: C_1  and  C_2
REMARK    2  A    between atoms: N_4  and  C_5
REMARK    3  A    between atoms: C_5  and  C_6
REMARK    4  A    between atoms: C_15  and  C_16
REMARK    5  A    between atoms: N_18  and  C_19
REMARK    6  A    between atoms: N_22  and  C_23
REMARK    7  A    between atoms: C_23  and  C_24
REMARK                            x       y       z     vdW  Elec       q    Type
REMARK                         _______ _______ _______ _____ _____    ______ ____
ROOT
ATOM      1  C   UNL     1       1.566   1.969  19.921  0.00  0.00    +0.000 C 
ATOM      2  C   UNL     1       2.332   3.112  19.371  0.00  0.00    +0.000 A 
ATOM      3  N   UNL     1       3.313   2.870  18.463  0.00  0.00    +0.000 NA
ATOM      4  N   UNL     1       3.805   4.108  18.153  0.00  0.00    +0.000 N 
ATOM      5  C   UNL     1       3.155   5.071  18.832  0.00  0.00    +0.000 A 
ATOM      6  S   UNL     1       3.214   6.714  18.911  0.00  0.00    +0.000 S 
ATOM      7  C   UNL     1       1.908   6.719  20.104  0.00  0.00    +0.000 A 
ATOM      8  C   UNL     1       1.471   5.403  20.362  0.00  0.00    +0.000 A 
ATOM      9  C   UNL     1       2.233   4.495  19.601  0.00  0.00    +0.000 A 
ENDROOT
BRANCH   7  10
ATOM     10  C   UNL     1       1.478   8.033  20.646  0.00  0.00    +0.000 C 
ATOM     11  O   UNL     1       1.213   8.246  21.819  0.00  0.00    +0.000 OA
ATOM     12  N   UNL     1       1.414   9.003  19.669  0.00  0.00    +0.000 N 
ATOM     13  H   UNL     1       1.552   8.634  18.737  0.00  0.00    +0.000 HD
BRANCH  12  14
ATOM     14  C   UNL     1       1.013  10.412  19.669  0.00  0.00    +0.000 C 
ATOM     15  C   UNL     1       0.784  11.077  21.024  0.00  0.00    +0.000 C 
ATOM     16  C   UNL     1      -0.679  11.342  21.373  0.00  0.00    +0.000 C 
ATOM     17  N   UNL     1      -1.439  11.913  20.243  0.00  0.00    +0.000 NA
ATOM     18  C   UNL     1      -1.431  10.946  19.136  0.00  0.00    +0.000 C 
ATOM     19  C   UNL     1      -0.019  10.753  18.600  0.00  0.00    +0.000 C 
BRANCH  17  20
ATOM     20  C   UNL     1      -2.819  12.201  20.695  0.00  0.00    +0.000 C 
BRANCH  20  21
ATOM     21  C   UNL     1      -2.937  13.024  21.966  0.00  0.00    +0.000 A 
ATOM     22  C   UNL     1      -2.420  14.330  22.010  0.00  0.00    +0.000 A 
ATOM     23  C   UNL     1      -2.565  15.121  23.152  0.00  0.00    +0.000 A 
ATOM     24  C   UNL     1      -3.234  14.617  24.266  0.00  0.00    +0.000 A 
ATOM     25  C   UNL     1      -3.746  13.320  24.239  0.00  0.00    +0.000 A 
ATOM     26  C   UNL     1      -3.596  12.527  23.099  0.00  0.00    +0.000 A 
ENDBRANCH  20  21
ENDBRANCH  17  20
ENDBRANCH  12  14
ENDBRANCH   7  10
BRANCH   4  27
ATOM     27  C   UNL     1       4.806   4.296  17.109  0.00  0.00    +0.000 C 
BRANCH  27  28
ATOM     28  C   UNL     1       5.872   5.293  17.502  0.00  0.00    +0.000 A 
ATOM     29  C   UNL     1       6.691   5.003  18.609  0.00  0.00    +0.000 A 
ATOM     30  C   UNL     1       7.728   5.859  18.985  0.00  0.00    +0.000 A 
ATOM     31  C   UNL     1       7.972   7.021  18.260  0.00  0.00    +0.000 A 
ATOM     32  C   UNL     1       7.167   7.333  17.170  0.00  0.00    +0.000 A 
ATOM     33  C   UNL     1       6.120   6.482  16.792  0.00  0.00    +0.000 A 
ATOM     34 CL   UNL     1       5.180   6.960  15.422  0.00  0.00    +0.000 Cl
ENDBRANCH  27  28
ENDBRANCH   4  27
TORSDOF 6
ENDMDL
MODEL 5
REMARK VINA RESULT:      -7.8      4.347     10.597
REMARK  Name = 
REMARK  7 active torsions:
REMARK  status: ('A' for Active; 'I' for Inactive)
REMARK    1  A    between atoms: C_1  and  C_2
REMARK    2  A    between atoms: N_4  and  C_5
REMARK    3  A    between atoms: C_5  and  C_6
REMARK    4  A    between atoms: C_15  and  C_16
REMARK    5  A    between atoms: N_18  and  C_19
REMARK    6  A    between atoms: N_22  and  C_23
REMARK    7  A    between atoms: C_23  and  C_24
REMARK                            x       y       z     vdW  Elec       q    Type
REMARK                         _______ _______ _______ _____ _____    ______ ____
ROOT
ATOM      1  C   UNL     1      -3.734   9.955  14.227  0.00  0.00    +0.000 C 
ATOM      2  C   UNL     1      -3.833  10.618  15.548  0.00  0.00    +0.000 A 
ATOM      3  N   UNL     1      -4.931  11.369  15.826  0.00  0.00    +0.000 NA
ATOM      4  N   UNL     1      -4.724  11.820  17.100  0.00  0.00    +0.000 N 
ATOM      5  C   UNL     1      -3.556  11.365  17.590  0.00  0.00    +0.000 A 
ATOM      6  S   UNL     1      -2.734  11.491  19.012  0.00  0.00    +0.000 S 
ATOM      7  C   UNL     1      -1.434  10.478  18.368  0.00  0.00    +0.000 A 
ATOM      8  C   UNL     1      -1.735  10.067  17.053  0.00  0.00    +0.000 A 
ATOM      9  C   UNL     1      -2.971  10.616  16.657  0.00  0.00    +0.000 A 
ENDROOT
BRANCH   7  10
ATOM     10  C   UNL     1      -0.267  10.220  19.248  0.00  0.00    +0.000 C 
ATOM     11  O   UNL     1      -0.154  10.632  20.391  0.00  0.00    +0.000 OA
ATOM     12  N   UNL     1       0.692   9.448  18.626  0.00  0.00    +0.000 N 
ATOM     13  H   UNL     1       0.497   9.290  17.646  0.00  0.00    +0.000 HD
BRANCH  12  14
ATOM     14  C   UNL     1       2.014   8.962  19.027  0.00  0.00    +0.000 C 
ATOM     15  C   UNL     1       3.019   8.661  17.918  0.00  0.00    +0.000 C 
ATOM     16  C   UNL     1       3.276   7.177  17.666  0.00  0.00    +0.000 C 
ATOM     17  N   UNL     1       3.453   6.410  18.916  0.00  0.00    +0.000 NA
ATOM     18  C   UNL     1       2.215   6.503  19.703  0.00  0.00    +0.000 C 
ATOM     19  C   UNL     1       1.972   7.937  20.155  0.00  0.00    +0.000 C 
BRANCH  17  20
ATOM     20  C   UNL     1       3.768   5.005  18.571  0.00  0.00    +0.000 C 
BRANCH  20  21
ATOM     21  C   UNL     1       2.757   3.971  19.035  0.00  0.00    +0.000 A 
ATOM     22  C   UNL     1       2.792   3.497  20.358  0.00  0.00    +0.000 A 
ATOM     23  C   UNL     1       1.838   2.585  20.818  0.00  0.00    +0.000 A 
ATOM     24  C   UNL     1       0.833   2.139  19.962  0.00  0.00    +0.000 A 
ATOM     25  C   UNL     1       0.791   2.596  18.645  0.00  0.00    +0.000 A 
ATOM     26  C   UNL     1       1.747   3.503  18.183  0.00  0.00    +0.000 A 
ENDBRANCH  20  21
ENDBRANCH  17  20
ENDBRANCH  12  14
ENDBRANCH   7  10
BRANCH   4  27
ATOM     27  C   UNL     1      -5.741  12.573  17.823  0.00  0.00    +0.000 C 
BRANCH  27  28
ATOM     28  C   UNL     1      -6.450  11.739  18.865  0.00  0.00    +0.000 A 
ATOM     29  C   UNL     1      -6.573  10.353  18.649  0.00  0.00    +0.000 A 
ATOM     30  C   UNL     1      -7.169   9.524  19.602  0.00  0.00    +0.000 A 
ATOM     31  C   UNL     1      -7.649  10.060  20.792  0.00  0.00    +0.000 A 
ATOM     32  C   UNL     1      -7.550  11.429  21.020  0.00  0.00    +0.000 A 
ATOM     33  C   UNL     1      -6.960  12.267  20.065  0.00  0.00    +0.000 A 
ATOM     34 CL   UNL     1      -6.883  13.952  20.445  0.00  0.00    +0.000 Cl
ENDBRANCH  27  28
ENDBRANCH   4  27
TORSDOF 6
ENDMDL
MODEL 6
REMARK VINA RESULT:      -7.7      3.800     10.959
REMARK  Name = 
REMARK  7 active torsions:
REMARK  status: ('A' for Active; 'I' for Inactive)
REMARK    1  A    between atoms: C_1  and  C_2
REMARK    2  A    between atoms: N_4  and  C_5
REMARK    3  A    between atoms: C_5  and  C_6
REMARK    4  A    between atoms: C_15  and  C_16
REMARK    5  A    between atoms: N_18  and  C_19
REMARK    6  A    between atoms: N_22  and  C_23
REMARK    7  A    between atoms: C_23  and  C_24
REMARK                            x       y       z     vdW  Elec       q    Type
REMARK                         _______ _______ _______ _____ _____    ______ ____
ROOT
ATOM      1  C   UNL     1       1.038   9.257  23.190  0.00  0.00    +0.000 C 
ATOM      2  C   UNL     1       1.016   9.329  21.710  0.00  0.00    +0.000 A 
ATOM      3  N   UNL     1       0.469  10.420  21.113  0.00  0.00    +0.000 NA
ATOM      4  N   UNL     1       0.615  10.187  19.774  0.00  0.00    +0.000 N 
ATOM      5  C   UNL     1       1.228   9.010  19.552  0.00  0.00    +0.000 A 
ATOM      6  S   UNL     1       1.726   8.160  18.233  0.00  0.00    +0.000 S 
ATOM      7  C   UNL     1       2.348   6.874  19.276  0.00  0.00    +0.000 A 
ATOM      8  C   UNL     1       2.149   7.201  20.634  0.00  0.00    +0.000 A 
ATOM      9  C   UNL     1       1.493   8.445  20.729  0.00  0.00    +0.000 A 
ENDROOT
BRANCH   7  10
ATOM     10  C   UNL     1       2.953   5.689  18.618  0.00  0.00    +0.000 C 
ATOM     11  O   UNL     1       2.336   4.690  18.282  0.00  0.00    +0.000 OA
ATOM     12  N   UNL     1       4.309   5.841  18.420  0.00  0.00    +0.000 N 
ATOM     13  H   UNL     1       4.682   6.672  18.859  0.00  0.00    +0.000 HD
BRANCH  12  14
ATOM     14  C   UNL     1       5.353   4.972  17.870  0.00  0.00    +0.000 C 
ATOM     15  C   UNL     1       6.698   5.614  17.539  0.00  0.00    +0.000 C 
ATOM     16  C   UNL     1       6.979   5.790  16.048  0.00  0.00    +0.000 C 
ATOM     17  N   UNL     1       6.629   4.592  15.258  0.00  0.00    +0.000 NA
ATOM     18  C   UNL     1       5.187   4.344  15.396  0.00  0.00    +0.000 C 
ATOM     19  C   UNL     1       4.839   3.980  16.834  0.00  0.00    +0.000 C 
BRANCH  17  20
ATOM     20  C   UNL     1       7.001   4.828  13.845  0.00  0.00    +0.000 C 
BRANCH  20  21
ATOM     21  C   UNL     1       6.394   3.871  12.835  0.00  0.00    +0.000 A 
ATOM     22  C   UNL     1       7.200   2.906  12.206  0.00  0.00    +0.000 A 
ATOM     23  C   UNL     1       6.650   1.983  11.314  0.00  0.00    +0.000 A 
ATOM     24  C   UNL     1       5.284   2.008  11.041  0.00  0.00    +0.000 A 
ATOM     25  C   UNL     1       4.473   2.965  11.652  0.00  0.00    +0.000 A 
ATOM     26  C   UNL     1       5.023   3.891  12.540  0.00  0.00    +0.000 A 
ENDBRANCH  20  21
ENDBRANCH  17  20
ENDBRANCH  12  14
ENDBRANCH   7  10
BRANCH   4  27
ATOM     27  C   UNL     1       0.259  11.190  18.777  0.00  0.00    +0.000 C 
BRANCH  27  28
ATOM     28  C   UNL     1      -1.172  11.058  18.309  0.00  0.00    +0.000 A 
ATOM     29  C   UNL     1      -1.475  10.091  17.331  0.00  0.00    +0.000 A 
ATOM     30  C   UNL     1      -2.787   9.886  16.899  0.00  0.00    +0.000 A 
ATOM     31  C   UNL     1      -3.825  10.638  17.438  0.00  0.00    +0.000 A 
ATOM     32  C   UNL     1      -3.547  11.608  18.396  0.00  0.00    +0.000 A 
ATOM     33  C   UNL     1      -2.232  11.824  18.828  0.00  0.00    +0.000 A 
ATOM     34 CL   UNL     1      -1.993  13.050  20.023  0.00  0.00    +0.000 Cl
ENDBRANCH  27  28
ENDBRANCH   4  27
TORSDOF 6
ENDMDL
MODEL 7
REMARK VINA RESULT:      -7.7      6.882     10.657
REMARK  Name = 
REMARK  7 active torsions:
REMARK  status: ('A' for Active; 'I' for Inactive)
REMARK    1  A    between atoms: C_1  and  C_2
REMARK    2  A    between atoms: N_4  and  C_5
REMARK    3  A    between atoms: C_5  and  C_6
REMARK    4  A    between atoms: C_15  and  C_16
REMARK    5  A    between atoms: N_18  and  C_19
REMARK    6  A    between atoms: N_22  and  C_23
REMARK    7  A    between atoms: C_23  and  C_24
REMARK                            x       y       z     vdW  Elec       q    Type
REMARK                         _______ _______ _______ _____ _____    ______ ____
ROOT
ATOM      1  C   UNL     1      11.130  13.245  16.917  0.00  0.00    +0.000 C 
ATOM      2  C   UNL     1      10.643  12.515  18.111  0.00  0.00    +0.000 A 
ATOM      3  N   UNL     1      10.915  13.016  19.344  0.00  0.00    +0.000 NA
ATOM      4  N   UNL     1      10.328  12.135  20.209  0.00  0.00    +0.000 N 
ATOM      5  C   UNL     1       9.717  11.139  19.543  0.00  0.00    +0.000 A 
ATOM      6  S   UNL     1       8.827   9.812  19.944  0.00  0.00    +0.000 S 
ATOM      7  C   UNL     1       8.643   9.398  18.234  0.00  0.00    +0.000 A 
ATOM      8  C   UNL     1       9.282  10.360  17.423  0.00  0.00    +0.000 A 
ATOM      9  C   UNL     1       9.889  11.337  18.238  0.00  0.00    +0.000 A 
ENDROOT
BRANCH   7  10
ATOM     10  C   UNL     1       7.889   8.163  17.904  0.00  0.00    +0.000 C 
ATOM     11  O   UNL     1       7.057   8.074  17.016  0.00  0.00    +0.000 OA
ATOM     12  N   UNL     1       8.239   7.107  18.720  0.00  0.00    +0.000 N 
ATOM     13  H   UNL     1       8.855   7.379  19.475  0.00  0.00    +0.000 HD
BRANCH  12  14
ATOM     14  C   UNL     1       7.772   5.724  18.836  0.00  0.00    +0.000 C 
ATOM     15  C   UNL     1       8.000   4.802  17.640  0.00  0.00    +0.000 C 
ATOM     16  C   UNL     1       6.745   4.464  16.839  0.00  0.00    +0.000 C 
ATOM     17  N   UNL     1       5.594   4.123  17.700  0.00  0.00    +0.000 NA
ATOM     18  C   UNL     1       5.270   5.290  18.533  0.00  0.00    +0.000 C 
ATOM     19  C   UNL     1       6.406   5.594  19.500  0.00  0.00    +0.000 C 
BRANCH  17  20
ATOM     20  C   UNL     1       4.452   3.742  16.839  0.00  0.00    +0.000 C 
BRANCH  20  21
ATOM     21  C   UNL     1       3.188   3.324  17.568  0.00  0.00    +0.000 A 
ATOM     22  C   UNL     1       3.151   2.110  18.275  0.00  0.00    +0.000 A 
ATOM     23  C   UNL     1       2.015   1.734  18.996  0.00  0.00    +0.000 A 
ATOM     24  C   UNL     1       0.901   2.571  19.023  0.00  0.00    +0.000 A 
ATOM     25  C   UNL     1       0.920   3.775  18.320  0.00  0.00    +0.000 A 
ATOM     26  C   UNL     1       2.054   4.149  17.596  0.00  0.00    +0.000 A 
ENDBRANCH  20  21
ENDBRANCH  17  20
ENDBRANCH  12  14
ENDBRANCH   7  10
BRANCH   4  27
ATOM     27  C   UNL     1      10.289  12.381  21.646  0.00  0.00    +0.000 C 
BRANCH  27  28
ATOM     28  C   UNL     1       9.108  13.230  22.056  0.00  0.00    +0.000 A 
ATOM     29  C   UNL     1       7.904  12.588  22.402  0.00  0.00    +0.000 A 
ATOM     30  C   UNL     1       6.797  13.316  22.842  0.00  0.00    +0.000 A 
ATOM     31  C   UNL     1       6.870  14.701  22.951  0.00  0.00    +0.000 A 
ATOM     32  C   UNL     1       8.046  15.357  22.601  0.00  0.00    +0.000 A 
ATOM     33  C   UNL     1       9.158  14.632  22.152  0.00  0.00    +0.000 A 
ATOM     34 CL   UNL     1      10.571  15.541  21.746  0.00  0.00    +0.000 Cl
ENDBRANCH  27  28
ENDBRANCH   4  27
TORSDOF 6
ENDMDL
MODEL 8
REMARK VINA RESULT:      -7.7      2.308      4.199
REMARK  Name = 
REMARK  7 active torsions:
REMARK  status: ('A' for Active; 'I' for Inactive)
REMARK    1  A    between atoms: C_1  and  C_2
REMARK    2  A    between atoms: N_4  and  C_5
REMARK    3  A    between atoms: C_5  and  C_6
REMARK    4  A    between atoms: C_15  and  C_16
REMARK    5  A    between atoms: N_18  and  C_19
REMARK    6  A    between atoms: N_22  and  C_23
REMARK    7  A    between atoms: C_23  and  C_24
REMARK                            x       y       z     vdW  Elec       q    Type
REMARK                         _______ _______ _______ _____ _____    ______ ____
ROOT
ATOM      1  C   UNL     1       6.083   5.465  15.067  0.00  0.00    +0.000 C 
ATOM      2  C   UNL     1       5.339   5.346  16.343  0.00  0.00    +0.000 A 
ATOM      3  N   UNL     1       5.501   4.228  17.097  0.00  0.00    +0.000 NA
ATOM      4  N   UNL     1       4.705   4.434  18.190  0.00  0.00    +0.000 N 
ATOM      5  C   UNL     1       4.084   5.626  18.118  0.00  0.00    +0.000 A 
ATOM      6  S   UNL     1       3.050   6.486  19.069  0.00  0.00    +0.000 S 
ATOM      7  C   UNL     1       3.028   7.799  17.884  0.00  0.00    +0.000 A 
ATOM      8  C   UNL     1       3.873   7.495  16.796  0.00  0.00    +0.000 A 
ATOM      9  C   UNL     1       4.450   6.224  16.986  0.00  0.00    +0.000 A 
ENDROOT
BRANCH   7  10
ATOM     10  C   UNL     1       2.168   8.973  18.177  0.00  0.00    +0.000 C 
ATOM     11  O   UNL     1       2.137   9.994  17.508  0.00  0.00    +0.000 OA
ATOM     12  N   UNL     1       1.394   8.783  19.301  0.00  0.00    +0.000 N 
ATOM     13  H   UNL     1       1.626   7.934  19.802  0.00  0.00    +0.000 HD
BRANCH  12  14
ATOM     14  C   UNL     1       0.438   9.625  20.024  0.00  0.00    +0.000 C 
ATOM     15  C   UNL     1      -0.785  10.119  19.256  0.00  0.00    +0.000 C 
ATOM     16  C   UNL     1      -0.761  11.601  18.888  0.00  0.00    +0.000 C 
ATOM     17  N   UNL     1      -0.319  12.458  20.007  0.00  0.00    +0.000 NA
ATOM     18  C   UNL     1       1.055  12.083  20.370  0.00  0.00    +0.000 C 
ATOM     19  C   UNL     1       1.099  10.665  20.923  0.00  0.00    +0.000 C 
BRANCH  17  20
ATOM     20  C   UNL     1      -0.397  13.874  19.582  0.00  0.00    +0.000 C 
BRANCH  20  21
ATOM     21  C   UNL     1      -1.338  14.752  20.386  0.00  0.00    +0.000 A 
ATOM     22  C   UNL     1      -2.060  14.210  21.464  0.00  0.00    +0.000 A 
ATOM     23  C   UNL     1      -2.890  15.014  22.248  0.00  0.00    +0.000 A 
ATOM     24  C   UNL     1      -3.007  16.374  21.967  0.00  0.00    +0.000 A 
ATOM     25  C   UNL     1      -2.303  16.925  20.897  0.00  0.00    +0.000 A 
ATOM     26  C   UNL     1      -1.476  16.120  20.110  0.00  0.00    +0.000 A 
ENDBRANCH  20  21
ENDBRANCH  17  20
ENDBRANCH  12  14
ENDBRANCH   7  10
BRANCH   4  27
ATOM     27  C   UNL     1       4.688   3.505  19.313  0.00  0.00    +0.000 C 
BRANCH  27  28
ATOM     28  C   UNL     1       3.287   3.177  19.774  0.00  0.00    +0.000 A 
ATOM     29  C   UNL     1       2.945   3.419  21.118  0.00  0.00    +0.000 A 
ATOM     30  C   UNL     1       1.651   3.188  21.588  0.00  0.00    +0.000 A 
ATOM     31  C   UNL     1       0.669   2.714  20.725  0.00  0.00    +0.000 A 
ATOM     32  C   UNL     1       0.988   2.455  19.396  0.00  0.00    +0.000 A 
ATOM     33  C   UNL     1       2.286   2.678  18.920  0.00  0.00    +0.000 A 
ATOM     34 CL   UNL     1       2.579   2.328  17.253  0.00  0.00    +0.000 Cl
ENDBRANCH  27  28
ENDBRANCH   4  27
TORSDOF 6
ENDMDL
MODEL 9
REMARK VINA RESULT:      -7.7      2.600      4.393
REMARK  Name = 
REMARK  7 active torsions:
REMARK  status: ('A' for Active; 'I' for Inactive)
REMARK    1  A    between atoms: C_1  and  C_2
REMARK    2  A    between atoms: N_4  and  C_5
REMARK    3  A    between atoms: C_5  and  C_6
REMARK    4  A    between atoms: C_15  and  C_16
REMARK    5  A    between atoms: N_18  and  C_19
REMARK    6  A    between atoms: N_22  and  C_23
REMARK    7  A    between atoms: C_23  and  C_24
REMARK                            x       y       z     vdW  Elec       q    Type
REMARK                         _______ _______ _______ _____ _____    ______ ____
ROOT
ATOM      1  C   UNL     1       6.986   5.580  16.478  0.00  0.00    +0.000 C 
ATOM      2  C   UNL     1       5.590   5.283  16.880  0.00  0.00    +0.000 A 
ATOM      3  N   UNL     1       5.181   3.988  16.925  0.00  0.00    +0.000 NA
ATOM      4  N   UNL     1       3.878   4.056  17.334  0.00  0.00    +0.000 N 
ATOM      5  C   UNL     1       3.501   5.331  17.538  0.00  0.00    +0.000 A 
ATOM      6  S   UNL     1       2.135   6.099  18.044  0.00  0.00    +0.000 S 
ATOM      7  C   UNL     1       2.936   7.668  17.879  0.00  0.00    +0.000 A 
ATOM      8  C   UNL     1       4.270   7.497  17.451  0.00  0.00    +0.000 A 
ATOM      9  C   UNL     1       4.534   6.125  17.265  0.00  0.00    +0.000 A 
ENDROOT
BRANCH   7  10
ATOM     10  C   UNL     1       2.141   8.882  18.190  0.00  0.00    +0.000 C 
ATOM     11  O   UNL     1       2.207   9.932  17.571  0.00  0.00    +0.000 OA
ATOM     12  N   UNL     1       1.302   8.692  19.268  0.00  0.00    +0.000 N 
ATOM     13  H   UNL     1       1.455   7.808  19.736  0.00  0.00    +0.000 HD
BRANCH  12  14
ATOM     14  C   UNL     1       0.370   9.562  19.987  0.00  0.00    +0.000 C 
ATOM     15  C   UNL     1      -0.747  10.217  19.178  0.00  0.00    +0.000 C 
ATOM     16  C   UNL     1      -0.572  11.713  18.930  0.00  0.00    +0.000 C 
ATOM     17  N   UNL     1      -0.144  12.445  20.140  0.00  0.00    +0.000 NA
ATOM     18  C   UNL     1       1.163  11.924  20.565  0.00  0.00    +0.000 C 
ATOM     19  C   UNL     1       1.046  10.472  21.007  0.00  0.00    +0.000 C 
BRANCH  17  20
ATOM     20  C   UNL     1      -0.071  13.889  19.822  0.00  0.00    +0.000 C 
BRANCH  20  21
ATOM     21  C   UNL     1      -0.644  14.824  20.871  0.00  0.00    +0.000 A 
ATOM     22  C   UNL     1      -1.813  15.557  20.600  0.00  0.00    +0.000 A 
ATOM     23  C   UNL     1      -2.384  16.382  21.572  0.00  0.00    +0.000 A 
ATOM     24  C   UNL     1      -1.796  16.482  22.831  0.00  0.00    +0.000 A 
ATOM     25  C   UNL     1      -0.632  15.767  23.112  0.00  0.00    +0.000 A 
ATOM     26  C   UNL     1      -0.058  14.946  22.139  0.00  0.00    +0.000 A 
ENDBRANCH  20  21
ENDBRANCH  17  20
ENDBRANCH  12  14
ENDBRANCH   7  10
BRANCH   4  27
ATOM     27  C   UNL     1       3.103   2.856  17.627  0.00  0.00    +0.000 C 
BRANCH  27  28
ATOM     28  C   UNL     1       2.527   2.865  19.025  0.00  0.00    +0.000 A 
ATOM     29  C   UNL     1       1.144   3.074  19.183  0.00  0.00    +0.000 A 
ATOM     30  C   UNL     1       0.547   3.038  20.444  0.00  0.00    +0.000 A 
ATOM     31  C   UNL     1       1.317   2.788  21.575  0.00  0.00    +0.000 A 
ATOM     32  C   UNL     1       2.688   2.591  21.443  0.00  0.00    +0.000 A 
ATOM     33  C   UNL     1       3.294   2.633  20.181  0.00  0.00    +0.000 A 
ATOM     34 CL   UNL     1       5.003   2.375  20.125  0.00  0.00    +0.000 Cl
ENDBRANCH  27  28
ENDBRANCH   4  27
TORSDOF 6
ENDMDL
