MODEL 1
REMARK VINA RESULT:      -6.2      0.000      0.000
REMARK  Name = 
REMARK  10 active torsions:
REMARK  status: ('A' for Active; 'I' for Inactive)
REMARK    1  A    between atoms: C_1  and  C_2
REMARK    2  A    between atoms: C_5  and  O_6
REMARK    3  A    between atoms: O_6  and  C_7
REMARK    4  A    between atoms: C_7  and  C_8
REMARK    5  A    between atoms: C_8  and  N_9
REMARK    6  A    between atoms: N_9  and  C_10
REMARK    7  A    between atoms: N_9  and  C_11
REMARK    8  A    between atoms: C_11  and  C_12
REMARK    9  A    between atoms: N_16  and  C_17
REMARK   10  A    between atoms: C_18  and  C_19
REMARK                            x       y       z     vdW  Elec       q    Type
REMARK                         _______ _______ _______ _____ _____    ______ ____
ROOT
ATOM      1  C   UNL     1       4.923   6.586  16.467  0.00  0.00    +0.000 C 
ENDROOT
BRANCH   1   2
ATOM      2  O   UNL     1       4.024   6.737  17.569  0.00  0.00    +0.000 OA
BRANCH   2   7
ATOM      3  C   UNL     1       0.867   2.263  19.128  0.00  0.00    +0.000 C 
ATOM      4  C   UNL     1       1.683   3.437  18.676  0.00  0.00    +0.000 A 
ATOM      5  C   UNL     1       2.517   3.340  17.563  0.00  0.00    +0.000 A 
ATOM      6  C   UNL     1       3.297   4.427  17.169  0.00  0.00    +0.000 A 
ATOM      7  C   UNL     1       3.259   5.637  17.875  0.00  0.00    +0.000 A 
ATOM      8  C   UNL     1       2.399   5.757  18.979  0.00  0.00    +0.000 A 
ATOM      9  C   UNL     1       2.276   7.028  19.773  0.00  0.00    +0.000 C 
ATOM     10  C   UNL     1       1.625   4.649  19.373  0.00  0.00    +0.000 A 
ENDBRANCH   2   7
ENDBRANCH   1   2
BRANCH   1  11
ATOM     11  C   UNL     1       6.376   6.713  16.951  0.00  0.00    +0.000 C 
BRANCH  11  12
ATOM     12  N   UNL     1       7.172   5.498  16.692  0.00  0.00    +0.000 NA
ATOM     13  C   UNL     1       7.400   4.719  17.914  0.00  0.00    +0.000 C 
BRANCH  12  14
ATOM     14  C   UNL     1       6.593   4.664  15.620  0.00  0.00    +0.000 C 
BRANCH  14  15
ATOM     15  C   UNL     1       7.151   4.887  14.238  0.00  0.00    +0.000 A 
ATOM     16  N   UNL     1       8.170   5.677  13.944  0.00  0.00    +0.000 NA
ATOM     17  C   UNL     1       8.325   5.612  12.587  0.00  0.00    +0.000 A 
ATOM     18  C   UNL     1       7.373   4.796  12.033  0.00  0.00    +0.000 A 
ATOM     19  N   UNL     1       6.638   4.331  13.089  0.00  0.00    +0.000 N 
ATOM     20  C   UNL     1       5.518   3.428  12.973  0.00  0.00    +0.000 C 
ENDBRANCH  14  15
ENDBRANCH  12  14
ENDBRANCH  11  12
ENDBRANCH   1  11
TORSDOF 6
ENDMDL
MODEL 2
REMARK VINA RESULT:      -6.2      3.352      6.772
REMARK  Name = 
REMARK  10 active torsions:
REMARK  status: ('A' for Active; 'I' for Inactive)
REMARK    1  A    between atoms: C_1  and  C_2
REMARK    2  A    between atoms: C_5  and  O_6
REMARK    3  A    between atoms: O_6  and  C_7
REMARK    4  A    between atoms: C_7  and  C_8
REMARK    5  A    between atoms: C_8  and  N_9
REMARK    6  A    between atoms: N_9  and  C_10
REMARK    7  A    between atoms: N_9  and  C_11
REMARK    8  A    between atoms: C_11  and  C_12
REMARK    9  A    between atoms: N_16  and  C_17
REMARK   10  A    between atoms: C_18  and  C_19
REMARK                            x       y       z     vdW  Elec       q    Type
REMARK                         _______ _______ _______ _____ _____    ______ ____
ROOT
ATOM      1  C   UNL     1       3.164   3.327  18.009  0.00  0.00    +0.000 C 
ENDROOT
BRANCH   1   2
ATOM      2  O   UNL     1       4.384   3.351  17.264  0.00  0.00    +0.000 OA
BRANCH   2   7
ATOM      3  C   UNL     1       8.226   7.387  18.433  0.00  0.00    +0.000 C 
ATOM      4  C   UNL     1       7.188   6.340  18.157  0.00  0.00    +0.000 A 
ATOM      5  C   UNL     1       6.669   5.561  19.189  0.00  0.00    +0.000 A 
ATOM      6  C   UNL     1       5.728   4.567  18.919  0.00  0.00    +0.000 A 
ATOM      7  C   UNL     1       5.281   4.333  17.611  0.00  0.00    +0.000 A 
ATOM      8  C   UNL     1       5.772   5.133  16.567  0.00  0.00    +0.000 A 
ATOM      9  C   UNL     1       5.324   4.967  15.142  0.00  0.00    +0.000 C 
ATOM     10  C   UNL     1       6.730   6.125  16.852  0.00  0.00    +0.000 A 
ENDBRANCH   2   7
ENDBRANCH   1   2
BRANCH   1  11
ATOM     11  C   UNL     1       2.364   4.614  17.754  0.00  0.00    +0.000 C 
BRANCH  11  12
ATOM     12  N   UNL     1       1.987   5.308  19.000  0.00  0.00    +0.000 NA
ATOM     13  C   UNL     1       2.008   4.408  20.159  0.00  0.00    +0.000 C 
BRANCH  12  14
ATOM     14  C   UNL     1       2.801   6.516  19.240  0.00  0.00    +0.000 C 
BRANCH  14  15
ATOM     15  C   UNL     1       2.132   7.831  18.937  0.00  0.00    +0.000 A 
ATOM     16  N   UNL     1       2.159   8.451  17.768  0.00  0.00    +0.000 NA
ATOM     17  C   UNL     1       1.459   9.613  17.935  0.00  0.00    +0.000 A 
ATOM     18  C   UNL     1       1.020   9.729  19.228  0.00  0.00    +0.000 A 
ATOM     19  N   UNL     1       1.441   8.588  19.855  0.00  0.00    +0.000 N 
ATOM     20  C   UNL     1       1.197   8.277  21.243  0.00  0.00    +0.000 C 
ENDBRANCH  14  15
ENDBRANCH  12  14
ENDBRANCH  11  12
ENDBRANCH   1  11
TORSDOF 6
ENDMDL
MODEL 3
REMARK VINA RESULT:      -6.2      2.241      6.409
REMARK  Name = 
REMARK  10 active torsions:
REMARK  status: ('A' for Active; 'I' for Inactive)
REMARK    1  A    between atoms: C_1  and  C_2
REMARK    2  A    between atoms: C_5  and  O_6
REMARK    3  A    between atoms: O_6  and  C_7
REMARK    4  A    between atoms: C_7  and  C_8
REMARK    5  A    between atoms: C_8  and  N_9
REMARK    6  A    between atoms: N_9  and  C_10
REMARK    7  A    between atoms: N_9  and  C_11
REMARK    8  A    between atoms: C_11  and  C_12
REMARK    9  A    between atoms: N_16  and  C_17
REMARK   10  A    between atoms: C_18  and  C_19
REMARK                            x       y       z     vdW  Elec       q    Type
REMARK                         _______ _______ _______ _____ _____    ______ ____
ROOT
ATOM      1  C   UNL     1       7.443   5.013  16.882  0.00  0.00    +0.000 C 
ENDROOT
BRANCH   1   2
ATOM      2  O   UNL     1       7.555   5.530  15.553  0.00  0.00    +0.000 OA
BRANCH   2   7
ATOM      3  C   UNL     1       4.929   2.796  11.305  0.00  0.00    +0.000 C 
ATOM      4  C   UNL     1       5.622   3.478  12.447  0.00  0.00    +0.000 A 
ATOM      5  C   UNL     1       5.139   3.358  13.748  0.00  0.00    +0.000 A 
ATOM      6  C   UNL     1       5.770   4.023  14.800  0.00  0.00    +0.000 A 
ATOM      7  C   UNL     1       6.902   4.818  14.575  0.00  0.00    +0.000 A 
ATOM      8  C   UNL     1       7.418   4.921  13.273  0.00  0.00    +0.000 A 
ATOM      9  C   UNL     1       8.643   5.730  12.951  0.00  0.00    +0.000 C 
ATOM     10  C   UNL     1       6.764   4.255  12.219  0.00  0.00    +0.000 A 
ENDBRANCH   2   7
ENDBRANCH   1   2
BRANCH   1  11
ATOM     11  C   UNL     1       7.033   6.133  17.850  0.00  0.00    +0.000 C 
BRANCH  11  12
ATOM     12  N   UNL     1       5.591   6.117  18.164  0.00  0.00    +0.000 NA
ATOM     13  C   UNL     1       4.801   6.827  17.151  0.00  0.00    +0.000 C 
BRANCH  12  14
ATOM     14  C   UNL     1       5.079   4.751  18.388  0.00  0.00    +0.000 C 
BRANCH  14  15
ATOM     15  C   UNL     1       3.684   4.655  18.949  0.00  0.00    +0.000 A 
ATOM     16  N   UNL     1       3.267   5.231  20.064  0.00  0.00    +0.000 NA
ATOM     17  C   UNL     1       1.959   4.866  20.218  0.00  0.00    +0.000 A 
ATOM     18  C   UNL     1       1.570   4.030  19.204  0.00  0.00    +0.000 A 
ATOM     19  N   UNL     1       2.668   3.910  18.396  0.00  0.00    +0.000 N 
ATOM     20  C   UNL     1       2.716   3.117  17.191  0.00  0.00    +0.000 C 
ENDBRANCH  14  15
ENDBRANCH  12  14
ENDBRANCH  11  12
ENDBRANCH   1  11
TORSDOF 6
ENDMDL
MODEL 4
REMARK VINA RESULT:      -6.2      2.312      4.888
REMARK  Name = 
REMARK  10 active torsions:
REMARK  status: ('A' for Active; 'I' for Inactive)
REMARK    1  A    between atoms: C_1  and  C_2
REMARK    2  A    between atoms: C_5  and  O_6
REMARK    3  A    between atoms: O_6  and  C_7
REMARK    4  A    between atoms: C_7  and  C_8
REMARK    5  A    between atoms: C_8  and  N_9
REMARK    6  A    between atoms: N_9  and  C_10
REMARK    7  A    between atoms: N_9  and  C_11
REMARK    8  A    between atoms: C_11  and  C_12
REMARK    9  A    between atoms: N_16  and  C_17
REMARK   10  A    between atoms: C_18  and  C_19
REMARK                            x       y       z     vdW  Elec       q    Type
REMARK                         _______ _______ _______ _____ _____    ______ ____
ROOT
ATOM      1  C   UNL     1       1.872   4.980  19.959  0.00  0.00    +0.000 C 
ENDROOT
BRANCH   1   2
ATOM      2  O   UNL     1       2.707   6.124  19.766  0.00  0.00    +0.000 OA
BRANCH   2   7
ATOM      3  C   UNL     1       0.269  11.260  19.466  0.00  0.00    +0.000 C 
ATOM      4  C   UNL     1       0.871   9.890  19.556  0.00  0.00    +0.000 A 
ATOM      5  C   UNL     1       0.682   9.100  20.689  0.00  0.00    +0.000 A 
ATOM      6  C   UNL     1       1.274   7.841  20.778  0.00  0.00    +0.000 A 
ATOM      7  C   UNL     1       2.065   7.339  19.735  0.00  0.00    +0.000 A 
ATOM      8  C   UNL     1       2.237   8.112  18.575  0.00  0.00    +0.000 A 
ATOM      9  C   UNL     1       3.045   7.636  17.400  0.00  0.00    +0.000 C 
ATOM     10  C   UNL     1       1.644   9.386  18.503  0.00  0.00    +0.000 A 
ENDBRANCH   2   7
ENDBRANCH   1   2
BRANCH   1  11
ATOM     11  C   UNL     1       1.876   4.105  18.696  0.00  0.00    +0.000 C 
BRANCH  11  12
ATOM     12  N   UNL     1       3.174   3.442  18.465  0.00  0.00    +0.000 NA
ATOM     13  C   UNL     1       3.049   1.980  18.450  0.00  0.00    +0.000 C 
BRANCH  12  14
ATOM     14  C   UNL     1       3.851   3.938  17.251  0.00  0.00    +0.000 C 
BRANCH  14  15
ATOM     15  C   UNL     1       5.320   4.239  17.393  0.00  0.00    +0.000 A 
ATOM     16  N   UNL     1       5.934   4.532  18.528  0.00  0.00    +0.000 NA
ATOM     17  C   UNL     1       7.243   4.761  18.206  0.00  0.00    +0.000 A 
ATOM     18  C   UNL     1       7.435   4.639  16.855  0.00  0.00    +0.000 A 
ATOM     19  N   UNL     1       6.212   4.296  16.347  0.00  0.00    +0.000 N 
ATOM     20  C   UNL     1       5.942   4.059  14.949  0.00  0.00    +0.000 C 
ENDBRANCH  14  15
ENDBRANCH  12  14
ENDBRANCH  11  12
ENDBRANCH   1  11
TORSDOF 6
ENDMDL
MODEL 5
REMARK VINA RESULT:      -6.1      3.296      5.855
REMARK  Name = 
REMARK  10 active torsions:
REMARK  status: ('A' for Active; 'I' for Inactive)
REMARK    1  A    between atoms: C_1  and  C_2
REMARK    2  A    between atoms: C_5  and  O_6
REMARK    3  A    between atoms: O_6  and  C_7
REMARK    4  A    between atoms: C_7  and  C_8
REMARK    5  A    between atoms: C_8  and  N_9
REMARK    6  A    between atoms: N_9  and  C_10
REMARK    7  A    between atoms: N_9  and  C_11
REMARK    8  A    between atoms: C_11  and  C_12
REMARK    9  A    between atoms: N_16  and  C_17
REMARK   10  A    between atoms: C_18  and  C_19
REMARK                            x       y       z     vdW  Elec       q    Type
REMARK                         _______ _______ _______ _____ _____    ______ ____
ROOT
ATOM      1  C   UNL     1       1.987   6.669  20.303  0.00  0.00    +0.000 C 
ENDROOT
BRANCH   1   2
ATOM      2  O   UNL     1       1.894   8.039  19.903  0.00  0.00    +0.000 OA
BRANCH   2   7
ATOM      3  C   UNL     1      -1.408  11.569  22.911  0.00  0.00    +0.000 C 
ATOM      4  C   UNL     1      -0.558  10.605  22.139  0.00  0.00    +0.000 A 
ATOM      5  C   UNL     1       0.158   9.603  22.793  0.00  0.00    +0.000 A 
ATOM      6  C   UNL     1       0.973   8.731  22.070  0.00  0.00    +0.000 A 
ATOM      7  C   UNL     1       1.086   8.837  20.677  0.00  0.00    +0.000 A 
ATOM      8  C   UNL     1       0.345   9.822  20.003  0.00  0.00    +0.000 A 
ATOM      9  C   UNL     1       0.389   9.985  18.509  0.00  0.00    +0.000 C 
ATOM     10  C   UNL     1      -0.464  10.703  20.746  0.00  0.00    +0.000 A 
ENDBRANCH   2   7
ENDBRANCH   1   2
BRANCH   1  11
ATOM     11  C   UNL     1       2.845   5.883  19.300  0.00  0.00    +0.000 C 
BRANCH  11  12
ATOM     12  N   UNL     1       3.534   4.733  19.916  0.00  0.00    +0.000 NA
ATOM     13  C   UNL     1       2.588   3.773  20.497  0.00  0.00    +0.000 C 
BRANCH  12  14
ATOM     14  C   UNL     1       4.470   4.073  18.985  0.00  0.00    +0.000 C 
BRANCH  14  15
ATOM     15  C   UNL     1       5.768   4.796  18.734  0.00  0.00    +0.000 A 
ATOM     16  N   UNL     1       6.581   5.254  19.671  0.00  0.00    +0.000 NA
ATOM     17  C   UNL     1       7.615   5.863  19.015  0.00  0.00    +0.000 A 
ATOM     18  C   UNL     1       7.425   5.807  17.659  0.00  0.00    +0.000 A 
ATOM     19  N   UNL     1       6.255   5.118  17.488  0.00  0.00    +0.000 N 
ATOM     20  C   UNL     1       5.662   4.816  16.208  0.00  0.00    +0.000 C 
ENDBRANCH  14  15
ENDBRANCH  12  14
ENDBRANCH  11  12
ENDBRANCH   1  11
TORSDOF 6
ENDMDL
MODEL 6
REMARK VINA RESULT:      -6.1      2.974      6.581
REMARK  Name = 
REMARK  10 active torsions:
REMARK  status: ('A' for Active; 'I' for Inactive)
REMARK    1  A    between atoms: C_1  and  C_2
REMARK    2  A    between atoms: C_5  and  O_6
REMARK    3  A    between atoms: O_6  and  C_7
REMARK    4  A    between atoms: C_7  and  C_8
REMARK    5  A    between atoms: C_8  and  N_9
REMARK    6  A    between atoms: N_9  and  C_10
REMARK    7  A    between atoms: N_9  and  C_11
REMARK    8  A    between atoms: C_11  and  C_12
REMARK    9  A    between atoms: N_16  and  C_17
REMARK   10  A    between atoms: C_18  and  C_19
REMARK                            x       y       z     vdW  Elec       q    Type
REMARK                         _______ _______ _______ _____ _____    ______ ____
ROOT
ATOM      1  C   UNL     1       3.840   3.065  18.366  0.00  0.00    +0.000 C 
ENDROOT
BRANCH   1   2
ATOM      2  O   UNL     1       4.700   3.473  17.299  0.00  0.00    +0.000 OA
BRANCH   2   7
ATOM      3  C   UNL     1       8.292   7.805  18.162  0.00  0.00    +0.000 C 
ATOM      4  C   UNL     1       7.320   6.680  17.967  0.00  0.00    +0.000 A 
ATOM      5  C   UNL     1       6.887   5.916  19.049  0.00  0.00    +0.000 A 
ATOM      6  C   UNL     1       6.008   4.850  18.853  0.00  0.00    +0.000 A 
ATOM      7  C   UNL     1       5.538   4.527  17.574  0.00  0.00    +0.000 A 
ATOM      8  C   UNL     1       5.942   5.310  16.479  0.00  0.00    +0.000 A 
ATOM      9  C   UNL     1       5.463   5.048  15.078  0.00  0.00    +0.000 C 
ATOM     10  C   UNL     1       6.838   6.375  16.688  0.00  0.00    +0.000 A 
ENDBRANCH   2   7
ENDBRANCH   1   2
BRANCH   1  11
ATOM     11  C   UNL     1       2.372   3.317  17.987  0.00  0.00    +0.000 C 
BRANCH  11  12
ATOM     12  N   UNL     1       1.665   4.158  18.971  0.00  0.00    +0.000 NA
ATOM     13  C   UNL     1       0.966   3.354  19.979  0.00  0.00    +0.000 C 
BRANCH  12  14
ATOM     14  C   UNL     1       2.552   5.159  19.597  0.00  0.00    +0.000 C 
BRANCH  14  15
ATOM     15  C   UNL     1       2.469   6.555  19.037  0.00  0.00    +0.000 A 
ATOM     16  N   UNL     1       2.956   6.940  17.869  0.00  0.00    +0.000 NA
ATOM     17  C   UNL     1       2.693   8.277  17.767  0.00  0.00    +0.000 A 
ATOM     18  C   UNL     1       2.064   8.731  18.896  0.00  0.00    +0.000 A 
ATOM     19  N   UNL     1       1.915   7.629  19.693  0.00  0.00    +0.000 N 
ATOM     20  C   UNL     1       1.294   7.638  20.996  0.00  0.00    +0.000 C 
ENDBRANCH  14  15
ENDBRANCH  12  14
ENDBRANCH  11  12
ENDBRANCH   1  11
TORSDOF 6
ENDMDL
MODEL 7
REMARK VINA RESULT:      -6.1      2.801      5.139
REMARK  Name = 
REMARK  10 active torsions:
REMARK  status: ('A' for Active; 'I' for Inactive)
REMARK    1  A    between atoms: C_1  and  C_2
REMARK    2  A    between atoms: C_5  and  O_6
REMARK    3  A    between atoms: O_6  and  C_7
REMARK    4  A    between atoms: C_7  and  C_8
REMARK    5  A    between atoms: C_8  and  N_9
REMARK    6  A    between atoms: N_9  and  C_10
REMARK    7  A    between atoms: N_9  and  C_11
REMARK    8  A    between atoms: C_11  and  C_12
REMARK    9  A    between atoms: N_16  and  C_17
REMARK   10  A    between atoms: C_18  and  C_19
REMARK                            x       y       z     vdW  Elec       q    Type
REMARK                         _______ _______ _______ _____ _____    ______ ____
ROOT
ATOM      1  C   UNL     1       2.339   5.662  19.237  0.00  0.00    +0.000 C 
ENDROOT
BRANCH   1   2
ATOM      2  O   UNL     1       2.635   7.053  19.092  0.00  0.00    +0.000 OA
BRANCH   2   7
ATOM      3  C   UNL     1      -0.594  10.855  21.836  0.00  0.00    +0.000 C 
ATOM      4  C   UNL     1       0.226   9.822  21.123  0.00  0.00    +0.000 A 
ATOM      5  C   UNL     1       0.553   8.618  21.743  0.00  0.00    +0.000 A 
ATOM      6  C   UNL     1       1.345   7.677  21.084  0.00  0.00    +0.000 A 
ATOM      7  C   UNL     1       1.823   7.916  19.789  0.00  0.00    +0.000 A 
ATOM      8  C   UNL     1       1.473   9.112  19.140  0.00  0.00    +0.000 A 
ATOM      9  C   UNL     1       1.921   9.433  17.742  0.00  0.00    +0.000 C 
ATOM     10  C   UNL     1       0.684  10.058  19.821  0.00  0.00    +0.000 A 
ENDBRANCH   2   7
ENDBRANCH   1   2
BRANCH   1  11
ATOM     11  C   UNL     1       3.517   4.939  19.908  0.00  0.00    +0.000 C 
BRANCH  11  12
ATOM     12  N   UNL     1       3.888   3.689  19.217  0.00  0.00    +0.000 NA
ATOM     13  C   UNL     1       2.736   2.801  19.031  0.00  0.00    +0.000 C 
BRANCH  12  14
ATOM     14  C   UNL     1       4.590   3.938  17.942  0.00  0.00    +0.000 C 
BRANCH  14  15
ATOM     15  C   UNL     1       5.802   4.829  18.020  0.00  0.00    +0.000 A 
ATOM     16  N   UNL     1       6.853   4.623  18.796  0.00  0.00    +0.000 NA
ATOM     17  C   UNL     1       7.700   5.674  18.582  0.00  0.00    +0.000 A 
ATOM     18  C   UNL     1       7.154   6.556  17.686  0.00  0.00    +0.000 A 
ATOM     19  N   UNL     1       5.954   6.006  17.325  0.00  0.00    +0.000 N 
ATOM     20  C   UNL     1       5.030   6.598  16.388  0.00  0.00    +0.000 C 
ENDBRANCH  14  15
ENDBRANCH  12  14
ENDBRANCH  11  12
ENDBRANCH   1  11
TORSDOF 6
ENDMDL
MODEL 8
REMARK VINA RESULT:      -6.0      3.843      6.720
REMARK  Name = 
REMARK  10 active torsions:
REMARK  status: ('A' for Active; 'I' for Inactive)
REMARK    1  A    between atoms: C_1  and  C_2
REMARK    2  A    between atoms: C_5  and  O_6
REMARK    3  A    between atoms: O_6  and  C_7
REMARK    4  A    between atoms: C_7  and  C_8
REMARK    5  A    between atoms: C_8  and  N_9
REMARK    6  A    between atoms: N_9  and  C_10
REMARK    7  A    between atoms: N_9  and  C_11
REMARK    8  A    between atoms: C_11  and  C_12
REMARK    9  A    between atoms: N_16  and  C_17
REMARK   10  A    between atoms: C_18  and  C_19
REMARK                            x       y       z     vdW  Elec       q    Type
REMARK                         _______ _______ _______ _____ _____    ______ ____
ROOT
ATOM      1  C   UNL     1       2.804   5.833  17.974  0.00  0.00    +0.000 C 
ENDROOT
BRANCH   1   2
ATOM      2  O   UNL     1       2.585   6.560  19.185  0.00  0.00    +0.000 OA
BRANCH   2   7
ATOM      3  C   UNL     1       0.575  11.868  18.736  0.00  0.00    +0.000 C 
ATOM      4  C   UNL     1       1.145  10.486  18.845  0.00  0.00    +0.000 A 
ATOM      5  C   UNL     1       1.931   9.956  17.823  0.00  0.00    +0.000 A 
ATOM      6  C   UNL     1       2.429   8.656  17.918  0.00  0.00    +0.000 A 
ATOM      7  C   UNL     1       2.158   7.859  19.038  0.00  0.00    +0.000 A 
ATOM      8  C   UNL     1       1.395   8.393  20.089  0.00  0.00    +0.000 A 
ATOM      9  C   UNL     1       1.083   7.615  21.337  0.00  0.00    +0.000 C 
ATOM     10  C   UNL     1       0.888   9.701  19.975  0.00  0.00    +0.000 A 
ENDBRANCH   2   7
ENDBRANCH   1   2
BRANCH   1  11
ATOM     11  C   UNL     1       1.793   4.682  17.859  0.00  0.00    +0.000 C 
BRANCH  11  12
ATOM     12  N   UNL     1       2.366   3.480  17.224  0.00  0.00    +0.000 NA
ATOM     13  C   UNL     1       3.788   3.652  16.904  0.00  0.00    +0.000 C 
BRANCH  12  14
ATOM     14  C   UNL     1       2.136   2.258  18.021  0.00  0.00    +0.000 C 
BRANCH  14  15
ATOM     15  C   UNL     1       2.030   2.455  19.511  0.00  0.00    +0.000 A 
ATOM     16  N   UNL     1       0.905   2.657  20.177  0.00  0.00    +0.000 NA
ATOM     17  C   UNL     1       1.259   2.813  21.488  0.00  0.00    +0.000 A 
ATOM     18  C   UNL     1       2.620   2.736  21.631  0.00  0.00    +0.000 A 
ATOM     19  N   UNL     1       3.101   2.497  20.373  0.00  0.00    +0.000 N 
ATOM     20  C   UNL     1       4.498   2.340  20.046  0.00  0.00    +0.000 C 
ENDBRANCH  14  15
ENDBRANCH  12  14
ENDBRANCH  11  12
ENDBRANCH   1  11
TORSDOF 6
ENDMDL
MODEL 9
REMARK VINA RESULT:      -6.0      3.359      6.989
REMARK  Name = 
REMARK  10 active torsions:
REMARK  status: ('A' for Active; 'I' for Inactive)
REMARK    1  A    between atoms: C_1  and  C_2
REMARK    2  A    between atoms: C_5  and  O_6
REMARK    3  A    between atoms: O_6  and  C_7
REMARK    4  A    between atoms: C_7  and  C_8
REMARK    5  A    between atoms: C_8  and  N_9
REMARK    6  A    between atoms: N_9  and  C_10
REMARK    7  A    between atoms: N_9  and  C_11
REMARK    8  A    between atoms: C_11  and  C_12
REMARK    9  A    between atoms: N_16  and  C_17
REMARK   10  A    between atoms: C_18  and  C_19
REMARK                            x       y       z     vdW  Elec       q    Type
REMARK                         _______ _______ _______ _____ _____    ______ ____
ROOT
ATOM      1  C   UNL     1       3.518   3.262  18.002  0.00  0.00    +0.000 C 
ENDROOT
BRANCH   1   2
ATOM      2  O   UNL     1       4.670   3.440  17.174  0.00  0.00    +0.000 OA
BRANCH   2   7
ATOM      3  C   UNL     1       8.283   7.670  18.387  0.00  0.00    +0.000 C 
ATOM      4  C   UNL     1       7.307   6.567  18.103  0.00  0.00    +0.000 A 
ATOM      5  C   UNL     1       6.952   5.656  19.096  0.00  0.00    +0.000 A 
ATOM      6  C   UNL     1       6.069   4.613  18.814  0.00  0.00    +0.000 A 
ATOM      7  C   UNL     1       5.517   4.461  17.535  0.00  0.00    +0.000 A 
ATOM      8  C   UNL     1       5.842   5.391  16.535  0.00  0.00    +0.000 A 
ATOM      9  C   UNL     1       5.272   5.316  15.146  0.00  0.00    +0.000 C 
ATOM     10  C   UNL     1       6.743   6.432  16.829  0.00  0.00    +0.000 A 
ENDBRANCH   2   7
ENDBRANCH   1   2
BRANCH   1  11
ATOM     11  C   UNL     1       2.528   4.417  17.786  0.00  0.00    +0.000 C 
BRANCH  11  12
ATOM     12  N   UNL     1       2.281   5.195  19.015  0.00  0.00    +0.000 NA
ATOM     13  C   UNL     1       2.822   4.529  20.205  0.00  0.00    +0.000 C 
BRANCH  12  14
ATOM     14  C   UNL     1       2.766   6.586  18.907  0.00  0.00    +0.000 C 
BRANCH  14  15
ATOM     15  C   UNL     1       2.008   7.610  19.711  0.00  0.00    +0.000 A 
ATOM     16  N   UNL     1       1.602   7.454  20.960  0.00  0.00    +0.000 NA
ATOM     17  C   UNL     1       0.936   8.601  21.292  0.00  0.00    +0.000 A 
ATOM     18  C   UNL     1       0.903   9.464  20.228  0.00  0.00    +0.000 A 
ATOM     19  N   UNL     1       1.596   8.832  19.231  0.00  0.00    +0.000 N 
ATOM     20  C   UNL     1       1.820   9.380  17.915  0.00  0.00    +0.000 C 
ENDBRANCH  14  15
ENDBRANCH  12  14
ENDBRANCH  11  12
ENDBRANCH   1  11
TORSDOF 6
ENDMDL
