MODEL 1
REMARK VINA RESULT:      -7.9      0.000      0.000
REMARK  Name = 
REMARK  9 active torsions:
REMARK  status: ('A' for Active; 'I' for Inactive)
REMARK    1  A    between atoms: C_1  and  C_2
REMARK    2  A    between atoms: C_5  and  N_6
REMARK    3  A    between atoms: C_7  and  S_8
REMARK    4  A    between atoms: S_8  and  C_9
REMARK    5  A    between atoms: C_9  and  C_10
REMARK    6  A    between atoms: N_12  and  C_13
REMARK    7  A    between atoms: C_14  and  C_15
REMARK    8  A    between atoms: C_19  and  C_20
REMARK    9  A    between atoms: C_22  and  O_23
REMARK                            x       y       z     vdW  Elec       q    Type
REMARK                         _______ _______ _______ _____ _____    ______ ____
ROOT
ATOM      1  N   UNL     1       3.375   4.547  18.423  0.00  0.00    +0.000 N 
ATOM      2  C   UNL     1       2.331   5.091  19.178  0.00  0.00    +0.000 A 
ATOM      3  N   UNL     1       1.252   4.441  19.515  0.00  0.00    +0.000 NA
ATOM      4  C   UNL     1       1.152   3.150  19.070  0.00  0.00    +0.000 A 
ATOM      5  C   UNL     1       2.073   2.512  18.363  0.00  0.00    +0.000 A 
ATOM      6  C   UNL     1       3.295   3.223  17.993  0.00  0.00    +0.000 A 
ATOM      7  O   UNL     1       4.152   2.584  17.387  0.00  0.00    +0.000 OA
ENDROOT
BRANCH   1  12
ATOM      8  C   UNL     1       8.095   7.708  17.572  0.00  0.00    +0.000 C 
ATOM      9  C   UNL     1       6.904   6.816  17.755  0.00  0.00    +0.000 A 
ATOM     10  C   UNL     1       6.782   6.011  18.889  0.00  0.00    +0.000 A 
ATOM     11  C   UNL     1       5.646   5.220  19.072  0.00  0.00    +0.000 A 
ATOM     12  C   UNL     1       4.608   5.215  18.125  0.00  0.00    +0.000 A 
ATOM     13  C   UNL     1       4.748   5.999  16.972  0.00  0.00    +0.000 A 
ATOM     14  C   UNL     1       5.889   6.790  16.790  0.00  0.00    +0.000 A 
ENDBRANCH   1  12
BRANCH   4  15
ATOM     15  O   UNL     1       0.003   2.484  19.400  0.00  0.00    +0.000 OA
ATOM     16  H   UNL     1       0.308   1.630  19.749  0.00  0.00    +0.000 HD
ENDBRANCH   4  15
BRANCH   2  17
ATOM     17  S   UNL     1       2.414   6.805  19.585  0.00  0.00    +0.000 S 
BRANCH  17  18
ATOM     18  C   UNL     1       2.150   7.663  18.025  0.00  0.00    +0.000 C 
BRANCH  18  19
ATOM     19  C   UNL     1       1.531   9.036  18.209  0.00  0.00    +0.000 C 
ATOM     20  O   UNL     1       1.996  10.026  17.647  0.00  0.00    +0.000 OA
ATOM     21  N   UNL     1       0.417   9.033  19.039  0.00  0.00    +0.000 N 
ATOM     22  H   UNL     1       0.489   8.376  19.810  0.00  0.00    +0.000 HD
BRANCH  21  23
ATOM     23  C   UNL     1      -0.322  10.220  19.273  0.00  0.00    +0.000 A 
ATOM     24  C   UNL     1      -1.300  10.667  18.358  0.00  0.00    +0.000 A 
ATOM     25  C   UNL     1      -1.699   9.915  17.117  0.00  0.00    +0.000 C 
ATOM     26  C   UNL     1      -1.981  11.869  18.621  0.00  0.00    +0.000 A 
ATOM     27  C   UNL     1      -1.724  12.601  19.775  0.00  0.00    +0.000 A 
ATOM     28  C   UNL     1      -0.788  12.136  20.694  0.00  0.00    +0.000 A 
ATOM     29  C   UNL     1      -0.088  10.943  20.463  0.00  0.00    +0.000 A 
ATOM     30  C   UNL     1       0.938  10.514  21.471  0.00  0.00    +0.000 C 
ENDBRANCH  21  23
ENDBRANCH  18  19
ENDBRANCH  17  18
ENDBRANCH   2  17
TORSDOF 6
ENDMDL
MODEL 2
REMARK VINA RESULT:      -7.8      0.146      1.654
REMARK  Name = 
REMARK  9 active torsions:
REMARK  status: ('A' for Active; 'I' for Inactive)
REMARK    1  A    between atoms: C_1  and  C_2
REMARK    2  A    between atoms: C_5  and  N_6
REMARK    3  A    between atoms: C_7  and  S_8
REMARK    4  A    between atoms: S_8  and  C_9
REMARK    5  A    between atoms: C_9  and  C_10
REMARK    6  A    between atoms: N_12  and  C_13
REMARK    7  A    between atoms: C_14  and  C_15
REMARK    8  A    between atoms: C_19  and  C_20
REMARK    9  A    between atoms: C_22  and  O_23
REMARK                            x       y       z     vdW  Elec       q    Type
REMARK                         _______ _______ _______ _____ _____    ______ ____
ROOT
ATOM      1  N   UNL     1       3.395   4.619  18.417  0.00  0.00    +0.000 N 
ATOM      2  C   UNL     1       2.365   5.164  19.191  0.00  0.00    +0.000 A 
ATOM      3  N   UNL     1       1.286   4.518  19.538  0.00  0.00    +0.000 NA
ATOM      4  C   UNL     1       1.172   3.232  19.084  0.00  0.00    +0.000 A 
ATOM      5  C   UNL     1       2.078   2.594  18.359  0.00  0.00    +0.000 A 
ATOM      6  C   UNL     1       3.299   3.300  17.979  0.00  0.00    +0.000 A 
ATOM      7  O   UNL     1       4.144   2.660  17.355  0.00  0.00    +0.000 OA
ENDROOT
BRANCH   1  12
ATOM      8  C   UNL     1       8.132   7.747  17.542  0.00  0.00    +0.000 C 
ATOM      9  C   UNL     1       6.935   6.864  17.727  0.00  0.00    +0.000 A 
ATOM     10  C   UNL     1       6.831   6.027  18.840  0.00  0.00    +0.000 A 
ATOM     11  C   UNL     1       5.690   5.244  19.027  0.00  0.00    +0.000 A 
ATOM     12  C   UNL     1       4.629   5.281  18.108  0.00  0.00    +0.000 A 
ATOM     13  C   UNL     1       4.749   6.098  16.976  0.00  0.00    +0.000 A 
ATOM     14  C   UNL     1       5.895   6.880  16.789  0.00  0.00    +0.000 A 
ENDBRANCH   1  12
BRANCH   4  15
ATOM     15  O   UNL     1       0.023   2.572  19.424  0.00  0.00    +0.000 OA
ATOM     16  H   UNL     1       0.261   2.058  20.212  0.00  0.00    +0.000 HD
ENDBRANCH   4  15
BRANCH   2  17
ATOM     17  S   UNL     1       2.466   6.874  19.611  0.00  0.00    +0.000 S 
BRANCH  17  18
ATOM     18  C   UNL     1       2.076   7.748  18.085  0.00  0.00    +0.000 C 
BRANCH  18  19
ATOM     19  C   UNL     1       1.479   9.121  18.333  0.00  0.00    +0.000 C 
ATOM     20  O   UNL     1       2.051  10.141  17.954  0.00  0.00    +0.000 OA
ATOM     21  N   UNL     1       0.258   9.081  18.994  0.00  0.00    +0.000 N 
ATOM     22  H   UNL     1       0.199   8.344  19.690  0.00  0.00    +0.000 HD
BRANCH  21  23
ATOM     23  C   UNL     1      -0.469  10.270  19.254  0.00  0.00    +0.000 A 
ATOM     24  C   UNL     1      -0.208  11.053  20.399  0.00  0.00    +0.000 A 
ATOM     25  C   UNL     1       0.884  10.757  21.392  0.00  0.00    +0.000 C 
ATOM     26  C   UNL     1      -0.981  12.205  20.628  0.00  0.00    +0.000 A 
ATOM     27  C   UNL     1      -1.971  12.594  19.732  0.00  0.00    +0.000 A 
ATOM     28  C   UNL     1      -2.198  11.842  18.584  0.00  0.00    +0.000 A 
ATOM     29  C   UNL     1      -1.448  10.685  18.325  0.00  0.00    +0.000 A 
ATOM     30  C   UNL     1      -1.766   9.892  17.091  0.00  0.00    +0.000 C 
ENDBRANCH  21  23
ENDBRANCH  18  19
ENDBRANCH  17  18
ENDBRANCH   2  17
TORSDOF 6
ENDMDL
MODEL 3
REMARK VINA RESULT:      -7.7      1.282      1.796
REMARK  Name = 
REMARK  9 active torsions:
REMARK  status: ('A' for Active; 'I' for Inactive)
REMARK    1  A    between atoms: C_1  and  C_2
REMARK    2  A    between atoms: C_5  and  N_6
REMARK    3  A    between atoms: C_7  and  S_8
REMARK    4  A    between atoms: S_8  and  C_9
REMARK    5  A    between atoms: C_9  and  C_10
REMARK    6  A    between atoms: N_12  and  C_13
REMARK    7  A    between atoms: C_14  and  C_15
REMARK    8  A    between atoms: C_19  and  C_20
REMARK    9  A    between atoms: C_22  and  O_23
REMARK                            x       y       z     vdW  Elec       q    Type
REMARK                         _______ _______ _______ _____ _____    ______ ____
ROOT
ATOM      1  N   UNL     1       3.529   4.559  18.209  0.00  0.00    +0.000 N 
ATOM      2  C   UNL     1       2.479   4.955  19.043  0.00  0.00    +0.000 A 
ATOM      3  N   UNL     1       1.401   4.251  19.252  0.00  0.00    +0.000 NA
ATOM      4  C   UNL     1       1.309   3.061  18.582  0.00  0.00    +0.000 A 
ATOM      5  C   UNL     1       2.236   2.564  17.776  0.00  0.00    +0.000 A 
ATOM      6  C   UNL     1       3.456   3.333  17.548  0.00  0.00    +0.000 A 
ATOM      7  O   UNL     1       4.319   2.816  16.841  0.00  0.00    +0.000 OA
ENDROOT
BRANCH   1  12
ATOM      8  C   UNL     1       8.237   7.840  17.961  0.00  0.00    +0.000 C 
ATOM      9  C   UNL     1       7.050   6.924  17.976  0.00  0.00    +0.000 A 
ATOM     10  C   UNL     1       6.920   5.939  18.957  0.00  0.00    +0.000 A 
ATOM     11  C   UNL     1       5.788   5.123  18.989  0.00  0.00    +0.000 A 
ATOM     12  C   UNL     1       4.761   5.273  18.042  0.00  0.00    +0.000 A 
ATOM     13  C   UNL     1       4.908   6.241  17.040  0.00  0.00    +0.000 A 
ATOM     14  C   UNL     1       6.046   7.056  17.008  0.00  0.00    +0.000 A 
ENDBRANCH   1  12
BRANCH   4  15
ATOM     15  O   UNL     1       0.161   2.343  18.779  0.00  0.00    +0.000 OA
ATOM     16  H   UNL     1       0.397   1.433  18.534  0.00  0.00    +0.000 HD
ENDBRANCH   4  15
BRANCH   2  17
ATOM     17  S   UNL     1       2.553   6.567  19.752  0.00  0.00    +0.000 S 
BRANCH  17  18
ATOM     18  C   UNL     1       2.010   7.674  18.440  0.00  0.00    +0.000 C 
BRANCH  18  19
ATOM     19  C   UNL     1       1.373   8.945  18.971  0.00  0.00    +0.000 C 
ATOM     20  O   UNL     1       1.249   9.139  20.179  0.00  0.00    +0.000 OA
ATOM     21  N   UNL     1       0.981   9.826  17.970  0.00  0.00    +0.000 N 
ATOM     22  H   UNL     1       0.627   9.362  17.139  0.00  0.00    +0.000 HD
BRANCH  21  23
ATOM     23  C   UNL     1       0.422  11.089  18.289  0.00  0.00    +0.000 A 
ATOM     24  C   UNL     1       1.235  12.234  18.438  0.00  0.00    +0.000 A 
ATOM     25  C   UNL     1       2.723  12.246  18.207  0.00  0.00    +0.000 C 
ATOM     26  C   UNL     1       0.635  13.456  18.787  0.00  0.00    +0.000 A 
ATOM     27  C   UNL     1      -0.741  13.555  18.960  0.00  0.00    +0.000 A 
ATOM     28  C   UNL     1      -1.544  12.434  18.773  0.00  0.00    +0.000 A 
ATOM     29  C   UNL     1      -0.979  11.198  18.427  0.00  0.00    +0.000 A 
ATOM     30  C   UNL     1      -1.891  10.015  18.280  0.00  0.00    +0.000 C 
ENDBRANCH  21  23
ENDBRANCH  18  19
ENDBRANCH  17  18
ENDBRANCH   2  17
TORSDOF 6
ENDMDL
MODEL 4
REMARK VINA RESULT:      -7.7      1.788      1.968
REMARK  Name = 
REMARK  9 active torsions:
REMARK  status: ('A' for Active; 'I' for Inactive)
REMARK    1  A    between atoms: C_1  and  C_2
REMARK    2  A    between atoms: C_5  and  N_6
REMARK    3  A    between atoms: C_7  and  S_8
REMARK    4  A    between atoms: S_8  and  C_9
REMARK    5  A    between atoms: C_9  and  C_10
REMARK    6  A    between atoms: N_12  and  C_13
REMARK    7  A    between atoms: C_14  and  C_15
REMARK    8  A    between atoms: C_19  and  C_20
REMARK    9  A    between atoms: C_22  and  O_23
REMARK                            x       y       z     vdW  Elec       q    Type
REMARK                         _______ _______ _______ _____ _____    ______ ____
ROOT
ATOM      1  N   UNL     1       3.302   4.649  18.627  0.00  0.00    +0.000 N 
ATOM      2  C   UNL     1       2.274   5.237  19.370  0.00  0.00    +0.000 A 
ATOM      3  N   UNL     1       1.219   4.601  19.798  0.00  0.00    +0.000 NA
ATOM      4  C   UNL     1       1.128   3.276  19.465  0.00  0.00    +0.000 A 
ATOM      5  C   UNL     1       2.036   2.596  18.781  0.00  0.00    +0.000 A 
ATOM      6  C   UNL     1       3.231   3.293  18.312  0.00  0.00    +0.000 A 
ATOM      7  O   UNL     1       4.079   2.619  17.731  0.00  0.00    +0.000 OA
ENDROOT
BRANCH   1  12
ATOM      8  C   UNL     1       7.981   7.760  17.437  0.00  0.00    +0.000 C 
ATOM      9  C   UNL     1       6.794   6.883  17.700  0.00  0.00    +0.000 A 
ATOM     10  C   UNL     1       6.776   6.015  18.793  0.00  0.00    +0.000 A 
ATOM     11  C   UNL     1       5.647   5.237  19.056  0.00  0.00    +0.000 A 
ATOM     12  C   UNL     1       4.512   5.308  18.232  0.00  0.00    +0.000 A 
ATOM     13  C   UNL     1       4.544   6.156  17.117  0.00  0.00    +0.000 A 
ATOM     14  C   UNL     1       5.678   6.934  16.854  0.00  0.00    +0.000 A 
ENDBRANCH   1  12
BRANCH   4  15
ATOM     15  O   UNL     1       0.003   2.622  19.889  0.00  0.00    +0.000 OA
ATOM     16  H   UNL     1       0.053   2.654  20.858  0.00  0.00    +0.000 HD
ENDBRANCH   4  15
BRANCH   2  17
ATOM     17  S   UNL     1       2.339   6.980  19.632  0.00  0.00    +0.000 S 
BRANCH  17  18
ATOM     18  C   UNL     1       1.336   7.264  21.100  0.00  0.00    +0.000 C 
BRANCH  18  19
ATOM     19  C   UNL     1       1.292   8.725  21.506  0.00  0.00    +0.000 C 
ATOM     20  O   UNL     1       2.028   9.164  22.388  0.00  0.00    +0.000 OA
ATOM     21  N   UNL     1       0.371   9.472  20.782  0.00  0.00    +0.000 N 
ATOM     22  H   UNL     1      -0.475   8.959  20.553  0.00  0.00    +0.000 HD
BRANCH  21  23
ATOM     23  C   UNL     1       0.240  10.869  20.989  0.00  0.00    +0.000 A 
ATOM     24  C   UNL     1       0.799  11.799  20.086  0.00  0.00    +0.000 A 
ATOM     25  C   UNL     1       1.504  11.417  18.812  0.00  0.00    +0.000 C 
ATOM     26  C   UNL     1       0.670  13.173  20.355  0.00  0.00    +0.000 A 
ATOM     27  C   UNL     1      -0.020  13.622  21.476  0.00  0.00    +0.000 A 
ATOM     28  C   UNL     1      -0.603  12.703  22.343  0.00  0.00    +0.000 A 
ATOM     29  C   UNL     1      -0.492  11.325  22.107  0.00  0.00    +0.000 A 
ATOM     30  C   UNL     1      -1.108  10.381  23.099  0.00  0.00    +0.000 C 
ENDBRANCH  21  23
ENDBRANCH  18  19
ENDBRANCH  17  18
ENDBRANCH   2  17
TORSDOF 6
ENDMDL
MODEL 5
REMARK VINA RESULT:      -7.6      1.294      1.388
REMARK  Name = 
REMARK  9 active torsions:
REMARK  status: ('A' for Active; 'I' for Inactive)
REMARK    1  A    between atoms: C_1  and  C_2
REMARK    2  A    between atoms: C_5  and  N_6
REMARK    3  A    between atoms: C_7  and  S_8
REMARK    4  A    between atoms: S_8  and  C_9
REMARK    5  A    between atoms: C_9  and  C_10
REMARK    6  A    between atoms: N_12  and  C_13
REMARK    7  A    between atoms: C_14  and  C_15
REMARK    8  A    between atoms: C_19  and  C_20
REMARK    9  A    between atoms: C_22  and  O_23
REMARK                            x       y       z     vdW  Elec       q    Type
REMARK                         _______ _______ _______ _____ _____    ______ ____
ROOT
ATOM      1  N   UNL     1       3.410   4.588  18.432  0.00  0.00    +0.000 N 
ATOM      2  C   UNL     1       2.411   5.050  19.294  0.00  0.00    +0.000 A 
ATOM      3  N   UNL     1       1.328   4.384  19.589  0.00  0.00    +0.000 NA
ATOM      4  C   UNL     1       1.178   3.165  18.984  0.00  0.00    +0.000 A 
ATOM      5  C   UNL     1       2.055   2.607  18.162  0.00  0.00    +0.000 A 
ATOM      6  C   UNL     1       3.279   3.334  17.838  0.00  0.00    +0.000 A 
ATOM      7  O   UNL     1       4.095   2.763  17.118  0.00  0.00    +0.000 OA
ENDROOT
BRANCH   1  12
ATOM      8  C   UNL     1       8.174   7.735  17.805  0.00  0.00    +0.000 C 
ATOM      9  C   UNL     1       6.968   6.852  17.919  0.00  0.00    +0.000 A 
ATOM     10  C   UNL     1       6.868   5.911  18.946  0.00  0.00    +0.000 A 
ATOM     11  C   UNL     1       5.720   5.126  19.071  0.00  0.00    +0.000 A 
ATOM     12  C   UNL     1       4.648   5.264  18.173  0.00  0.00    +0.000 A 
ATOM     13  C   UNL     1       4.765   6.186  17.125  0.00  0.00    +0.000 A 
ATOM     14  C   UNL     1       5.918   6.970  17.000  0.00  0.00    +0.000 A 
ENDBRANCH   1  12
BRANCH   4  15
ATOM     15  O   UNL     1       0.026   2.486  19.271  0.00  0.00    +0.000 OA
ATOM     16  H   UNL     1       0.299   1.795  19.896  0.00  0.00    +0.000 HD
ENDBRANCH   4  15
BRANCH   2  17
ATOM     17  S   UNL     1       2.554   6.693  19.918  0.00  0.00    +0.000 S 
BRANCH  17  18
ATOM     18  C   UNL     1       2.016   7.750  18.562  0.00  0.00    +0.000 C 
BRANCH  18  19
ATOM     19  C   UNL     1       1.330   9.015  19.042  0.00  0.00    +0.000 C 
ATOM     20  O   UNL     1       1.097   9.201  20.235  0.00  0.00    +0.000 OA
ATOM     21  N   UNL     1       1.026   9.901  18.016  0.00  0.00    +0.000 N 
ATOM     22  H   UNL     1       0.749   9.442  17.154  0.00  0.00    +0.000 HD
BRANCH  21  23
ATOM     23  C   UNL     1       0.436  11.161  18.292  0.00  0.00    +0.000 A 
ATOM     24  C   UNL     1      -0.957  11.292  18.479  0.00  0.00    +0.000 A 
ATOM     25  C   UNL     1      -1.921  10.135  18.479  0.00  0.00    +0.000 C 
ATOM     26  C   UNL     1      -1.496  12.569  18.717  0.00  0.00    +0.000 A 
ATOM     27  C   UNL     1      -0.676  13.689  18.796  0.00  0.00    +0.000 A 
ATOM     28  C   UNL     1       0.701  13.550  18.651  0.00  0.00    +0.000 A 
ATOM     29  C   UNL     1       1.272  12.292  18.410  0.00  0.00    +0.000 A 
ATOM     30  C   UNL     1       2.759  12.210  18.222  0.00  0.00    +0.000 C 
ENDBRANCH  21  23
ENDBRANCH  18  19
ENDBRANCH  17  18
ENDBRANCH   2  17
TORSDOF 6
ENDMDL
MODEL 6
REMARK VINA RESULT:      -7.5      1.804      2.126
REMARK  Name = 
REMARK  9 active torsions:
REMARK  status: ('A' for Active; 'I' for Inactive)
REMARK    1  A    between atoms: C_1  and  C_2
REMARK    2  A    between atoms: C_5  and  N_6
REMARK    3  A    between atoms: C_7  and  S_8
REMARK    4  A    between atoms: S_8  and  C_9
REMARK    5  A    between atoms: C_9  and  C_10
REMARK    6  A    between atoms: N_12  and  C_13
REMARK    7  A    between atoms: C_14  and  C_15
REMARK    8  A    between atoms: C_19  and  C_20
REMARK    9  A    between atoms: C_22  and  O_23
REMARK                            x       y       z     vdW  Elec       q    Type
REMARK                         _______ _______ _______ _____ _____    ______ ____
ROOT
ATOM      1  N   UNL     1       3.471   3.942  19.430  0.00  0.00    +0.000 N 
ATOM      2  C   UNL     1       2.688   4.822  20.183  0.00  0.00    +0.000 A 
ATOM      3  N   UNL     1       1.963   4.467  21.208  0.00  0.00    +0.000 NA
ATOM      4  C   UNL     1       1.973   3.138  21.532  0.00  0.00    +0.000 A 
ATOM      5  C   UNL     1       2.681   2.205  20.912  0.00  0.00    +0.000 A 
ATOM      6  C   UNL     1       3.511   2.592  19.774  0.00  0.00    +0.000 A 
ATOM      7  O   UNL     1       4.198   1.712  19.259  0.00  0.00    +0.000 OA
ENDROOT
BRANCH   1  12
ATOM      8  C   UNL     1       7.129   4.878  15.102  0.00  0.00    +0.000 C 
ATOM      9  C   UNL     1       6.150   4.718  16.226  0.00  0.00    +0.000 A 
ATOM     10  C   UNL     1       4.823   4.367  15.972  0.00  0.00    +0.000 A 
ATOM     11  C   UNL     1       3.931   4.175  17.029  0.00  0.00    +0.000 A 
ATOM     12  C   UNL     1       4.347   4.329  18.362  0.00  0.00    +0.000 A 
ATOM     13  C   UNL     1       5.671   4.711  18.613  0.00  0.00    +0.000 A 
ATOM     14  C   UNL     1       6.562   4.907  17.551  0.00  0.00    +0.000 A 
ENDBRANCH   1  12
BRANCH   4  15
ATOM     15  O   UNL     1       1.185   2.767  22.587  0.00  0.00    +0.000 OA
ATOM     16  H   UNL     1       1.809   2.611  23.315  0.00  0.00    +0.000 HD
ENDBRANCH   4  15
BRANCH   2  17
ATOM     17  S   UNL     1       2.563   6.492  19.632  0.00  0.00    +0.000 S 
BRANCH  17  18
ATOM     18  C   UNL     1       1.303   7.232  20.684  0.00  0.00    +0.000 C 
BRANCH  18  19
ATOM     19  C   UNL     1       1.030   8.684  20.339  0.00  0.00    +0.000 C 
ATOM     20  O   UNL     1       1.904   9.400  19.855  0.00  0.00    +0.000 OA
ATOM     21  N   UNL     1      -0.274   9.081  20.612  0.00  0.00    +0.000 N 
ATOM     22  H   UNL     1      -0.660   8.653  21.447  0.00  0.00    +0.000 HD
BRANCH  21  23
ATOM     23  C   UNL     1      -0.719  10.390  20.296  0.00  0.00    +0.000 A 
ATOM     24  C   UNL     1      -1.006  10.763  18.965  0.00  0.00    +0.000 A 
ATOM     25  C   UNL     1      -0.944   9.821  17.792  0.00  0.00    +0.000 C 
ATOM     26  C   UNL     1      -1.413  12.083  18.700  0.00  0.00    +0.000 A 
ATOM     27  C   UNL     1      -1.560  13.008  19.729  0.00  0.00    +0.000 A 
ATOM     28  C   UNL     1      -1.314  12.624  21.043  0.00  0.00    +0.000 A 
ATOM     29  C   UNL     1      -0.904  11.317  21.344  0.00  0.00    +0.000 A 
ATOM     30  C   UNL     1      -0.615  10.973  22.776  0.00  0.00    +0.000 C 
ENDBRANCH  21  23
ENDBRANCH  18  19
ENDBRANCH  17  18
ENDBRANCH   2  17
TORSDOF 6
ENDMDL
MODEL 7
REMARK VINA RESULT:      -7.5      1.394      1.680
REMARK  Name = 
REMARK  9 active torsions:
REMARK  status: ('A' for Active; 'I' for Inactive)
REMARK    1  A    between atoms: C_1  and  C_2
REMARK    2  A    between atoms: C_5  and  N_6
REMARK    3  A    between atoms: C_7  and  S_8
REMARK    4  A    between atoms: S_8  and  C_9
REMARK    5  A    between atoms: C_9  and  C_10
REMARK    6  A    between atoms: N_12  and  C_13
REMARK    7  A    between atoms: C_14  and  C_15
REMARK    8  A    between atoms: C_19  and  C_20
REMARK    9  A    between atoms: C_22  and  O_23
REMARK                            x       y       z     vdW  Elec       q    Type
REMARK                         _______ _______ _______ _____ _____    ______ ____
ROOT
ATOM      1  N   UNL     1       3.342   4.707  18.478  0.00  0.00    +0.000 N 
ATOM      2  C   UNL     1       2.370   5.216  19.346  0.00  0.00    +0.000 A 
ATOM      3  N   UNL     1       1.296   4.570  19.706  0.00  0.00    +0.000 NA
ATOM      4  C   UNL     1       1.123   3.323  19.167  0.00  0.00    +0.000 A 
ATOM      5  C   UNL     1       1.972   2.721  18.347  0.00  0.00    +0.000 A 
ATOM      6  C   UNL     1       3.188   3.426  17.951  0.00  0.00    +0.000 A 
ATOM      7  O   UNL     1       3.981   2.816  17.236  0.00  0.00    +0.000 OA
ENDROOT
BRANCH   1  12
ATOM      8  C   UNL     1       8.102   7.789  17.563  0.00  0.00    +0.000 C 
ATOM      9  C   UNL     1       6.894   6.921  17.753  0.00  0.00    +0.000 A 
ATOM     10  C   UNL     1       6.830   6.008  18.807  0.00  0.00    +0.000 A 
ATOM     11  C   UNL     1       5.681   5.238  19.003  0.00  0.00    +0.000 A 
ATOM     12  C   UNL     1       4.573   5.363  18.148  0.00  0.00    +0.000 A 
ATOM     13  C   UNL     1       4.653   6.256  17.072  0.00  0.00    +0.000 A 
ATOM     14  C   UNL     1       5.807   7.025  16.876  0.00  0.00    +0.000 A 
ENDBRANCH   1  12
BRANCH   4  15
ATOM     15  O   UNL     1      -0.022   2.665  19.522  0.00  0.00    +0.000 OA
ATOM     16  H   UNL     1      -0.738   3.192  19.132  0.00  0.00    +0.000 HD
ENDBRANCH   4  15
BRANCH   2  17
ATOM     17  S   UNL     1       2.538   6.887  19.883  0.00  0.00    +0.000 S 
BRANCH  17  18
ATOM     18  C   UNL     1       1.900   7.876  18.519  0.00  0.00    +0.000 C 
BRANCH  18  19
ATOM     19  C   UNL     1       1.089   9.068  18.989  0.00  0.00    +0.000 C 
ATOM     20  O   UNL     1       0.196   9.547  18.292  0.00  0.00    +0.000 OA
ATOM     21  N   UNL     1       1.452   9.520  20.252  0.00  0.00    +0.000 N 
ATOM     22  H   UNL     1       2.448   9.451  20.435  0.00  0.00    +0.000 HD
BRANCH  21  23
ATOM     23  C   UNL     1       0.756  10.589  20.872  0.00  0.00    +0.000 A 
ATOM     24  C   UNL     1       0.980  11.929  20.486  0.00  0.00    +0.000 A 
ATOM     25  C   UNL     1       1.894  12.342  19.363  0.00  0.00    +0.000 C 
ATOM     26  C   UNL     1       0.289  12.955  21.155  0.00  0.00    +0.000 A 
ATOM     27  C   UNL     1      -0.623  12.665  22.164  0.00  0.00    +0.000 A 
ATOM     28  C   UNL     1      -0.870  11.342  22.513  0.00  0.00    +0.000 A 
ATOM     29  C   UNL     1      -0.197  10.293  21.869  0.00  0.00    +0.000 A 
ATOM     30  C   UNL     1      -0.476   8.888  22.317  0.00  0.00    +0.000 C 
ENDBRANCH  21  23
ENDBRANCH  18  19
ENDBRANCH  17  18
ENDBRANCH   2  17
TORSDOF 6
ENDMDL
MODEL 8
REMARK VINA RESULT:      -7.5      2.067      4.521
REMARK  Name = 
REMARK  9 active torsions:
REMARK  status: ('A' for Active; 'I' for Inactive)
REMARK    1  A    between atoms: C_1  and  C_2
REMARK    2  A    between atoms: C_5  and  N_6
REMARK    3  A    between atoms: C_7  and  S_8
REMARK    4  A    between atoms: S_8  and  C_9
REMARK    5  A    between atoms: C_9  and  C_10
REMARK    6  A    between atoms: N_12  and  C_13
REMARK    7  A    between atoms: C_14  and  C_15
REMARK    8  A    between atoms: C_19  and  C_20
REMARK    9  A    between atoms: C_22  and  O_23
REMARK                            x       y       z     vdW  Elec       q    Type
REMARK                         _______ _______ _______ _____ _____    ______ ____
ROOT
ATOM      1  N   UNL     1       4.646   5.623  18.788  0.00  0.00    +0.000 N 
ATOM      2  C   UNL     1       4.352   6.604  17.835  0.00  0.00    +0.000 A 
ATOM      3  N   UNL     1       5.251   7.275  17.170  0.00  0.00    +0.000 NA
ATOM      4  C   UNL     1       6.559   6.995  17.458  0.00  0.00    +0.000 A 
ATOM      5  C   UNL     1       6.973   6.081  18.324  0.00  0.00    +0.000 A 
ATOM      6  C   UNL     1       5.976   5.310  19.063  0.00  0.00    +0.000 A 
ATOM      7  O   UNL     1       6.394   4.432  19.815  0.00  0.00    +0.000 OA
ENDROOT
BRANCH   1  12
ATOM      8  C   UNL     1       1.179   2.292  21.930  0.00  0.00    +0.000 C 
ATOM      9  C   UNL     1       2.016   3.176  21.056  0.00  0.00    +0.000 A 
ATOM     10  C   UNL     1       2.077   4.553  21.282  0.00  0.00    +0.000 A 
ATOM     11  C   UNL     1       2.897   5.360  20.491  0.00  0.00    +0.000 A 
ATOM     12  C   UNL     1       3.673   4.810  19.457  0.00  0.00    +0.000 A 
ATOM     13  C   UNL     1       3.586   3.434  19.212  0.00  0.00    +0.000 A 
ATOM     14  C   UNL     1       2.761   2.626  20.005  0.00  0.00    +0.000 A 
ENDBRANCH   1  12
BRANCH   4  15
ATOM     15  O   UNL     1       7.497   7.725  16.781  0.00  0.00    +0.000 OA
ATOM     16  H   UNL     1       6.999   8.164  16.072  0.00  0.00    +0.000 HD
ENDBRANCH   4  15
BRANCH   2  17
ATOM     17  S   UNL     1       2.663   7.061  17.616  0.00  0.00    +0.000 S 
BRANCH  17  18
ATOM     18  C   UNL     1       2.650   8.857  17.741  0.00  0.00    +0.000 C 
BRANCH  18  19
ATOM     19  C   UNL     1       1.475   9.381  18.545  0.00  0.00    +0.000 C 
ATOM     20  O   UNL     1       1.175   8.887  19.631  0.00  0.00    +0.000 OA
ATOM     21  N   UNL     1       0.821  10.445  17.937  0.00  0.00    +0.000 N 
ATOM     22  H   UNL     1       0.780  10.370  16.926  0.00  0.00    +0.000 HD
BRANCH  21  23
ATOM     23  C   UNL     1      -0.264  11.096  18.578  0.00  0.00    +0.000 A 
ATOM     24  C   UNL     1      -0.050  12.018  19.626  0.00  0.00    +0.000 A 
ATOM     25  C   UNL     1       1.311  12.448  20.105  0.00  0.00    +0.000 C 
ATOM     26  C   UNL     1      -1.161  12.611  20.250  0.00  0.00    +0.000 A 
ATOM     27  C   UNL     1      -2.456  12.322  19.833  0.00  0.00    +0.000 A 
ATOM     28  C   UNL     1      -2.662  11.444  18.774  0.00  0.00    +0.000 A 
ATOM     29  C   UNL     1      -1.576  10.832  18.130  0.00  0.00    +0.000 A 
ATOM     30  C   UNL     1      -1.863   9.862  17.021  0.00  0.00    +0.000 C 
ENDBRANCH  21  23
ENDBRANCH  18  19
ENDBRANCH  17  18
ENDBRANCH   2  17
TORSDOF 6
ENDMDL
MODEL 9
REMARK VINA RESULT:      -7.4      1.989      2.411
REMARK  Name = 
REMARK  9 active torsions:
REMARK  status: ('A' for Active; 'I' for Inactive)
REMARK    1  A    between atoms: C_1  and  C_2
REMARK    2  A    between atoms: C_5  and  N_6
REMARK    3  A    between atoms: C_7  and  S_8
REMARK    4  A    between atoms: S_8  and  C_9
REMARK    5  A    between atoms: C_9  and  C_10
REMARK    6  A    between atoms: N_12  and  C_13
REMARK    7  A    between atoms: C_14  and  C_15
REMARK    8  A    between atoms: C_19  and  C_20
REMARK    9  A    between atoms: C_22  and  O_23
REMARK                            x       y       z     vdW  Elec       q    Type
REMARK                         _______ _______ _______ _____ _____    ______ ____
ROOT
ATOM      1  N   UNL     1       3.551   4.585  19.435  0.00  0.00    +0.000 N 
ATOM      2  C   UNL     1       2.535   5.237  20.142  0.00  0.00    +0.000 A 
ATOM      3  N   UNL     1       1.611   4.627  20.832  0.00  0.00    +0.000 NA
ATOM      4  C   UNL     1       1.650   3.259  20.828  0.00  0.00    +0.000 A 
ATOM      5  C   UNL     1       2.564   2.522  20.214  0.00  0.00    +0.000 A 
ATOM      6  C   UNL     1       3.615   3.193  19.453  0.00  0.00    +0.000 A 
ATOM      7  O   UNL     1       4.478   2.481  18.945  0.00  0.00    +0.000 OA
ENDROOT
BRANCH   1  12
ATOM      8  C   UNL     1       7.768   7.699  17.089  0.00  0.00    +0.000 C 
ATOM      9  C   UNL     1       6.693   6.819  17.652  0.00  0.00    +0.000 A 
ATOM     10  C   UNL     1       6.935   6.028  18.777  0.00  0.00    +0.000 A 
ATOM     11  C   UNL     1       5.912   5.248  19.321  0.00  0.00    +0.000 A 
ATOM     12  C   UNL     1       4.628   5.240  18.752  0.00  0.00    +0.000 A 
ATOM     13  C   UNL     1       4.398   6.009  17.605  0.00  0.00    +0.000 A 
ATOM     14  C   UNL     1       5.424   6.789  17.059  0.00  0.00    +0.000 A 
ENDBRANCH   1  12
BRANCH   4  15
ATOM     15  O   UNL     1       0.659   2.625  21.526  0.00  0.00    +0.000 OA
ATOM     16  H   UNL     1       0.163   3.343  21.953  0.00  0.00    +0.000 HD
ENDBRANCH   4  15
BRANCH   2  17
ATOM     17  S   UNL     1       2.414   6.989  19.982  0.00  0.00    +0.000 S 
BRANCH  17  18
ATOM     18  C   UNL     1       1.053   7.458  21.065  0.00  0.00    +0.000 C 
BRANCH  18  19
ATOM     19  C   UNL     1       1.092   8.924  21.454  0.00  0.00    +0.000 C 
ATOM     20  O   UNL     1       1.870   9.335  22.313  0.00  0.00    +0.000 OA
ATOM     21  N   UNL     1       0.192   9.708  20.744  0.00  0.00    +0.000 N 
ATOM     22  H   UNL     1      -0.684   9.236  20.542  0.00  0.00    +0.000 HD
BRANCH  21  23
ATOM     23  C   UNL     1       0.136  11.111  20.937  0.00  0.00    +0.000 A 
ATOM     24  C   UNL     1      -0.546  11.672  22.039  0.00  0.00    +0.000 A 
ATOM     25  C   UNL     1      -1.200  10.862  23.127  0.00  0.00    +0.000 C 
ATOM     26  C   UNL     1      -0.600  13.071  22.168  0.00  0.00    +0.000 A 
ATOM     27  C   UNL     1       0.029  13.900  21.245  0.00  0.00    +0.000 A 
ATOM     28  C   UNL     1       0.734  13.343  20.183  0.00  0.00    +0.000 A 
ATOM     29  C   UNL     1       0.806  11.952  20.022  0.00  0.00    +0.000 A 
ATOM     30  C   UNL     1       1.547  11.410  18.834  0.00  0.00    +0.000 C 
ENDBRANCH  21  23
ENDBRANCH  18  19
ENDBRANCH  17  18
ENDBRANCH   2  17
TORSDOF 6
ENDMDL
