MODEL 1
REMARK VINA RESULT:      -7.7      0.000      0.000
REMARK  Name = 
REMARK  7 active torsions:
REMARK  status: ('A' for Active; 'I' for Inactive)
REMARK    1  A    between atoms: N_1  and  C_2
REMARK    2  A    between atoms: C_7  and  C_8
REMARK    3  A    between atoms: C_10  and  C_11
REMARK    4  A    between atoms: C_11  and  S_12
REMARK    5  A    between atoms: S_12  and  C_13
REMARK    6  A    between atoms: C_20  and  O_21
REMARK    7  A    between atoms: C_22  and  O_23
REMARK                            x       y       z     vdW  Elec       q    Type
REMARK                         _______ _______ _______ _____ _____    ______ ____
ROOT
ATOM      1  C   UNL     1       2.788   5.895  18.678  0.00  0.00    +0.000 C 
ATOM      2  N   UNL     1       3.555   5.682  19.918  0.00  0.00    +0.000 NA
ATOM      3  C   UNL     1       3.565   4.222  20.091  0.00  0.00    +0.000 C 
ATOM      4  C   UNL     1       2.151   3.787  19.674  0.00  0.00    +0.000 C 
ATOM      5  C   UNL     1       1.658   4.845  18.670  0.00  0.00    +0.000 C 
ATOM      6  H   UNL     1       3.027   6.084  20.725  0.00  0.00    +0.000 HD
ENDROOT
BRANCH   1  12
ATOM      7  C   UNL     1       1.011  10.384  19.795  0.00  0.00    +0.000 A 
ATOM      8  N   UNL     1       0.691  10.061  21.089  0.00  0.00    +0.000 N 
ATOM      9  C   UNL     1       0.877   8.797  21.591  0.00  0.00    +0.000 A 
ATOM     10  N   UNL     1       1.410   7.800  20.823  0.00  0.00    +0.000 NA
ATOM     11  C   UNL     1       1.734   8.091  19.543  0.00  0.00    +0.000 A 
ATOM     12  C   UNL     1       2.310   7.323  18.563  0.00  0.00    +0.000 A 
ATOM     13  C   UNL     1       2.405   8.160  17.446  0.00  0.00    +0.000 A 
ATOM     14  N   UNL     1       1.936   9.413  17.707  0.00  0.00    +0.000 NA
ATOM     15  C   UNL     1       1.534   9.379  18.992  0.00  0.00    +0.000 A 
ATOM     16  H   UNL     1       0.291  10.793  21.716  0.00  0.00    +0.000 HD
BRANCH   7  17
ATOM     17  N   UNL     1       0.820  11.701  19.308  0.00  0.00    +0.000 N 
ATOM     18  H   UNL     1       1.084  12.511  19.885  0.00  0.00    +0.000 HD
ATOM     19  H   UNL     1       0.427  11.865  18.370  0.00  0.00    +0.000 HD
ENDBRANCH   7  17
ENDBRANCH   1  12
BRANCH   4  20
ATOM     20  O   UNL     1       1.991   2.441  19.311  0.00  0.00    +0.000 OA
ATOM     21  H   UNL     1       2.424   1.889  20.012  0.00  0.00    +0.000 HD
ENDBRANCH   4  20
BRANCH   5  22
ATOM     22  O   UNL     1       1.375   4.357  17.381  0.00  0.00    +0.000 OA
ATOM     23  H   UNL     1       1.276   5.133  16.771  0.00  0.00    +0.000 HD
ENDBRANCH   5  22
BRANCH   3  24
ATOM     24  C   UNL     1       4.756   3.594  19.327  0.00  0.00    +0.000 C 
BRANCH  24  25
ATOM     25  S   UNL     1       5.911   4.957  18.911  0.00  0.00    +0.000 S 
BRANCH  25  26
ATOM     26  C   UNL     1       6.027   4.722  17.133  0.00  0.00    +0.000 A 
ATOM     27  C   UNL     1       7.195   5.091  16.453  0.00  0.00    +0.000 A 
ATOM     28  C   UNL     1       7.326   4.834  15.084  0.00  0.00    +0.000 A 
ATOM     29  C   UNL     1       6.289   4.205  14.387  0.00  0.00    +0.000 A 
ATOM     30 CL   UNL     1       6.465   3.859  12.675  0.00  0.00    +0.000 Cl
ATOM     31  C   UNL     1       5.118   3.838  15.060  0.00  0.00    +0.000 A 
ATOM     32  C   UNL     1       4.986   4.096  16.431  0.00  0.00    +0.000 A 
ENDBRANCH  25  26
ENDBRANCH  24  25
ENDBRANCH   3  24
TORSDOF 7
ENDMDL
MODEL 2
REMARK VINA RESULT:      -7.3      3.790      7.031
REMARK  Name = 
REMARK  7 active torsions:
REMARK  status: ('A' for Active; 'I' for Inactive)
REMARK    1  A    between atoms: N_1  and  C_2
REMARK    2  A    between atoms: C_7  and  C_8
REMARK    3  A    between atoms: C_10  and  C_11
REMARK    4  A    between atoms: C_11  and  S_12
REMARK    5  A    between atoms: S_12  and  C_13
REMARK    6  A    between atoms: C_20  and  O_21
REMARK    7  A    between atoms: C_22  and  O_23
REMARK                            x       y       z     vdW  Elec       q    Type
REMARK                         _______ _______ _______ _____ _____    ______ ____
ROOT
ATOM      1  C   UNL     1       4.465   4.310  17.746  0.00  0.00    +0.000 C 
ATOM      2  N   UNL     1       3.184   4.647  17.100  0.00  0.00    +0.000 NA
ATOM      3  C   UNL     1       2.196   3.809  17.796  0.00  0.00    +0.000 C 
ATOM      4  C   UNL     1       2.919   2.468  17.997  0.00  0.00    +0.000 C 
ATOM      5  C   UNL     1       4.422   2.798  18.052  0.00  0.00    +0.000 C 
ATOM      6  H   UNL     1       3.206   4.334  16.104  0.00  0.00    +0.000 HD
ENDROOT
BRANCH   1  12
ATOM      7  C   UNL     1       7.464   5.095  13.881  0.00  0.00    +0.000 A 
ATOM      8  N   UNL     1       6.713   4.358  13.002  0.00  0.00    +0.000 N 
ATOM      9  C   UNL     1       5.577   3.693  13.395  0.00  0.00    +0.000 A 
ATOM     10  N   UNL     1       5.132   3.752  14.685  0.00  0.00    +0.000 NA
ATOM     11  C   UNL     1       5.853   4.471  15.573  0.00  0.00    +0.000 A 
ATOM     12  C   UNL     1       5.639   4.740  16.901  0.00  0.00    +0.000 A 
ATOM     13  C   UNL     1       6.718   5.539  17.295  0.00  0.00    +0.000 A 
ATOM     14  N   UNL     1       7.569   5.792  16.260  0.00  0.00    +0.000 NA
ATOM     15  C   UNL     1       7.039   5.150  15.202  0.00  0.00    +0.000 A 
ATOM     16  H   UNL     1       7.009   4.293  12.004  0.00  0.00    +0.000 HD
BRANCH   7  17
ATOM     17  N   UNL     1       8.625   5.782  13.445  0.00  0.00    +0.000 N 
ATOM     18  H   UNL     1       8.576   6.782  13.204  0.00  0.00    +0.000 HD
ATOM     19  H   UNL     1       9.530   5.296  13.375  0.00  0.00    +0.000 HD
ENDBRANCH   7  17
ENDBRANCH   1  12
BRANCH   4  20
ATOM     20  O   UNL     1       2.414   1.628  19.002  0.00  0.00    +0.000 OA
ATOM     21  H   UNL     1       1.429   1.590  18.893  0.00  0.00    +0.000 HD
ENDBRANCH   4  20
BRANCH   5  22
ATOM     22  O   UNL     1       5.061   2.467  19.261  0.00  0.00    +0.000 OA
ATOM     23  H   UNL     1       6.037   2.423  19.092  0.00  0.00    +0.000 HD
ENDBRANCH   5  22
BRANCH   3  24
ATOM     24  C   UNL     1       1.669   4.529  19.061  0.00  0.00    +0.000 C 
BRANCH  24  25
ATOM     25  S   UNL     1       3.005   5.645  19.643  0.00  0.00    +0.000 S 
BRANCH  25  26
ATOM     26  C   UNL     1       2.204   7.233  19.383  0.00  0.00    +0.000 A 
ATOM     27  C   UNL     1       1.590   7.891  20.457  0.00  0.00    +0.000 A 
ATOM     28  C   UNL     1       1.039   9.165  20.283  0.00  0.00    +0.000 A 
ATOM     29  C   UNL     1       1.100   9.789  19.033  0.00  0.00    +0.000 A 
ATOM     30 CL   UNL     1       0.431  11.399  18.822  0.00  0.00    +0.000 Cl
ATOM     31  C   UNL     1       1.708   9.136  17.955  0.00  0.00    +0.000 A 
ATOM     32  C   UNL     1       2.260   7.859  18.129  0.00  0.00    +0.000 A 
ENDBRANCH  25  26
ENDBRANCH  24  25
ENDBRANCH   3  24
TORSDOF 7
ENDMDL
MODEL 3
REMARK VINA RESULT:      -7.2      4.250      7.753
REMARK  Name = 
REMARK  7 active torsions:
REMARK  status: ('A' for Active; 'I' for Inactive)
REMARK    1  A    between atoms: N_1  and  C_2
REMARK    2  A    between atoms: C_7  and  C_8
REMARK    3  A    between atoms: C_10  and  C_11
REMARK    4  A    between atoms: C_11  and  S_12
REMARK    5  A    between atoms: S_12  and  C_13
REMARK    6  A    between atoms: C_20  and  O_21
REMARK    7  A    between atoms: C_22  and  O_23
REMARK                            x       y       z     vdW  Elec       q    Type
REMARK                         _______ _______ _______ _____ _____    ______ ____
ROOT
ATOM      1  C   UNL     1       4.769   5.498  18.298  0.00  0.00    +0.000 C 
ATOM      2  N   UNL     1       3.436   5.767  17.729  0.00  0.00    +0.000 NA
ATOM      3  C   UNL     1       2.502   5.182  18.703  0.00  0.00    +0.000 C 
ATOM      4  C   UNL     1       3.186   3.877  19.140  0.00  0.00    +0.000 C 
ATOM      5  C   UNL     1       4.697   4.105  18.956  0.00  0.00    +0.000 C 
ATOM      6  H   UNL     1       3.326   5.231  16.838  0.00  0.00    +0.000 HD
ENDROOT
BRANCH   1  12
ATOM      7  C   UNL     1       7.332   5.137  14.073  0.00  0.00    +0.000 A 
ATOM      8  N   UNL     1       6.462   4.254  13.487  0.00  0.00    +0.000 N 
ATOM      9  C   UNL     1       5.357   3.773  14.147  0.00  0.00    +0.000 A 
ATOM     10  N   UNL     1       5.064   4.172  15.421  0.00  0.00    +0.000 NA
ATOM     11  C   UNL     1       5.905   5.042  16.022  0.00  0.00    +0.000 A 
ATOM     12  C   UNL     1       5.853   5.639  17.257  0.00  0.00    +0.000 A 
ATOM     13  C   UNL     1       6.994   6.444  17.326  0.00  0.00    +0.000 A 
ATOM     14  N   UNL     1       7.730   6.386  16.180  0.00  0.00    +0.000 NA
ATOM     15  C   UNL     1       7.062   5.538  15.375  0.00  0.00    +0.000 A 
ATOM     16  H   UNL     1       6.640   3.930  12.511  0.00  0.00    +0.000 HD
BRANCH   7  17
ATOM     17  N   UNL     1       8.456   5.627  13.362  0.00  0.00    +0.000 N 
ATOM     18  H   UNL     1       8.407   5.763  12.343  0.00  0.00    +0.000 HD
ATOM     19  H   UNL     1       9.330   5.862  13.854  0.00  0.00    +0.000 HD
ENDBRANCH   7  17
ENDBRANCH   1  12
BRANCH   4  20
ATOM     20  O   UNL     1       2.767   3.329  20.362  0.00  0.00    +0.000 OA
ATOM     21  H   UNL     1       3.257   2.476  20.490  0.00  0.00    +0.000 HD
ENDBRANCH   4  20
BRANCH   5  22
ATOM     22  O   UNL     1       5.460   4.017  20.135  0.00  0.00    +0.000 OA
ATOM     23  H   UNL     1       4.966   3.450  20.781  0.00  0.00    +0.000 HD
ENDBRANCH   5  22
BRANCH   3  24
ATOM     24  C   UNL     1       2.161   6.210  19.810  0.00  0.00    +0.000 C 
BRANCH  24  25
ATOM     25  S   UNL     1       2.198   7.873  19.034  0.00  0.00    +0.000 S 
BRANCH  25  26
ATOM     26  C   UNL     1       1.144   8.765  20.185  0.00  0.00    +0.000 A 
ATOM     27  C   UNL     1       1.194   8.468  21.554  0.00  0.00    +0.000 A 
ATOM     28  C   UNL     1       0.440   9.215  22.465  0.00  0.00    +0.000 A 
ATOM     29  C   UNL     1      -0.367  10.264  22.014  0.00  0.00    +0.000 A 
ATOM     30 CL   UNL     1      -1.292  11.217  23.162  0.00  0.00    +0.000 Cl
ATOM     31  C   UNL     1      -0.425  10.563  20.648  0.00  0.00    +0.000 A 
ATOM     32  C   UNL     1       0.329   9.815  19.733  0.00  0.00    +0.000 A 
ENDBRANCH  25  26
ENDBRANCH  24  25
ENDBRANCH   3  24
TORSDOF 7
ENDMDL
MODEL 4
REMARK VINA RESULT:      -6.9      7.592      9.952
REMARK  Name = 
REMARK  7 active torsions:
REMARK  status: ('A' for Active; 'I' for Inactive)
REMARK    1  A    between atoms: N_1  and  C_2
REMARK    2  A    between atoms: C_7  and  C_8
REMARK    3  A    between atoms: C_10  and  C_11
REMARK    4  A    between atoms: C_11  and  S_12
REMARK    5  A    between atoms: S_12  and  C_13
REMARK    6  A    between atoms: C_20  and  O_21
REMARK    7  A    between atoms: C_22  and  O_23
REMARK                            x       y       z     vdW  Elec       q    Type
REMARK                         _______ _______ _______ _____ _____    ______ ____
ROOT
ATOM      1  C   UNL     1      -4.436  12.302  20.446  0.00  0.00    +0.000 C 
ATOM      2  N   UNL     1      -3.490  13.382  20.780  0.00  0.00    +0.000 NA
ATOM      3  C   UNL     1      -3.920  13.843  22.109  0.00  0.00    +0.000 C 
ATOM      4  C   UNL     1      -5.455  13.812  22.036  0.00  0.00    +0.000 C 
ATOM      5  C   UNL     1      -5.811  12.733  20.997  0.00  0.00    +0.000 C 
ATOM      6  H   UNL     1      -3.627  14.180  20.119  0.00  0.00    +0.000 HD
ENDROOT
BRANCH   1  12
ATOM      7  C   UNL     1      -3.108  10.611  15.982  0.00  0.00    +0.000 A 
ATOM      8  N   UNL     1      -1.874  10.171  16.389  0.00  0.00    +0.000 N 
ATOM      9  C   UNL     1      -1.428  10.344  17.676  0.00  0.00    +0.000 A 
ATOM     10  N   UNL     1      -2.206  10.952  18.621  0.00  0.00    +0.000 NA
ATOM     11  C   UNL     1      -3.427  11.395  18.246  0.00  0.00    +0.000 A 
ATOM     12  C   UNL     1      -4.427  11.998  18.967  0.00  0.00    +0.000 A 
ATOM     13  C   UNL     1      -5.457  12.227  18.049  0.00  0.00    +0.000 A 
ATOM     14  N   UNL     1      -5.142  11.769  16.805  0.00  0.00    +0.000 NA
ATOM     15  C   UNL     1      -3.905  11.250  16.922  0.00  0.00    +0.000 A 
ATOM     16  H   UNL     1      -1.249   9.691  15.704  0.00  0.00    +0.000 HD
BRANCH   7  17
ATOM     17  N   UNL     1      -3.547  10.406  14.650  0.00  0.00    +0.000 N 
ATOM     18  H   UNL     1      -2.884  10.484  13.867  0.00  0.00    +0.000 HD
ATOM     19  H   UNL     1      -4.529  10.168  14.449  0.00  0.00    +0.000 HD
ENDBRANCH   7  17
ENDBRANCH   1  12
BRANCH   4  20
ATOM     20  O   UNL     1      -6.140  13.769  23.260  0.00  0.00    +0.000 OA
ATOM     21  H   UNL     1      -7.058  13.441  23.077  0.00  0.00    +0.000 HD
ENDBRANCH   4  20
BRANCH   5  22
ATOM     22  O   UNL     1      -6.563  11.652  21.494  0.00  0.00    +0.000 OA
ATOM     23  H   UNL     1      -6.345  11.540  22.455  0.00  0.00    +0.000 HD
ENDBRANCH   5  22
BRANCH   3  24
ATOM     24  C   UNL     1      -3.245  13.000  23.219  0.00  0.00    +0.000 C 
BRANCH  24  25
ATOM     25  S   UNL     1      -1.456  13.406  23.194  0.00  0.00    +0.000 S 
BRANCH  25  26
ATOM     26  C   UNL     1      -0.805  11.861  22.544  0.00  0.00    +0.000 A 
ATOM     27  C   UNL     1       0.024  11.871  21.415  0.00  0.00    +0.000 A 
ATOM     28  C   UNL     1       0.603  10.683  20.954  0.00  0.00    +0.000 A 
ATOM     29  C   UNL     1       0.356   9.479  21.621  0.00  0.00    +0.000 A 
ATOM     30 CL   UNL     1       1.103   7.994  21.057  0.00  0.00    +0.000 Cl
ATOM     31  C   UNL     1      -0.476   9.462  22.747  0.00  0.00    +0.000 A 
ATOM     32  C   UNL     1      -1.056  10.651  23.209  0.00  0.00    +0.000 A 
ENDBRANCH  25  26
ENDBRANCH  24  25
ENDBRANCH   3  24
TORSDOF 7
ENDMDL
MODEL 5
REMARK VINA RESULT:      -6.9      0.982      1.808
REMARK  Name = 
REMARK  7 active torsions:
REMARK  status: ('A' for Active; 'I' for Inactive)
REMARK    1  A    between atoms: N_1  and  C_2
REMARK    2  A    between atoms: C_7  and  C_8
REMARK    3  A    between atoms: C_10  and  C_11
REMARK    4  A    between atoms: C_11  and  S_12
REMARK    5  A    between atoms: S_12  and  C_13
REMARK    6  A    between atoms: C_20  and  O_21
REMARK    7  A    between atoms: C_22  and  O_23
REMARK                            x       y       z     vdW  Elec       q    Type
REMARK                         _______ _______ _______ _____ _____    ______ ____
ROOT
ATOM      1  C   UNL     1       2.497   5.197  19.428  0.00  0.00    +0.000 C 
ATOM      2  N   UNL     1       3.131   4.453  20.531  0.00  0.00    +0.000 NA
ATOM      3  C   UNL     1       3.177   3.064  20.052  0.00  0.00    +0.000 C 
ATOM      4  C   UNL     1       1.834   2.875  19.328  0.00  0.00    +0.000 C 
ATOM      5  C   UNL     1       1.415   4.272  18.835  0.00  0.00    +0.000 C 
ATOM      6  H   UNL     1       2.503   4.470  21.366  0.00  0.00    +0.000 HD
ENDROOT
BRANCH   1  12
ATOM      7  C   UNL     1       1.090   9.948  19.497  0.00  0.00    +0.000 A 
ATOM      8  N   UNL     1       1.542  10.219  18.231  0.00  0.00    +0.000 N 
ATOM      9  C   UNL     1       2.185   9.274  17.469  0.00  0.00    +0.000 A 
ATOM     10  N   UNL     1       2.388   8.006  17.936  0.00  0.00    +0.000 NA
ATOM     11  C   UNL     1       1.953   7.712  19.181  0.00  0.00    +0.000 A 
ATOM     12  C   UNL     1       1.981   6.538  19.892  0.00  0.00    +0.000 A 
ATOM     13  C   UNL     1       1.384   6.837  21.121  0.00  0.00    +0.000 A 
ATOM     14  N   UNL     1       0.970   8.134  21.185  0.00  0.00    +0.000 NA
ATOM     15  C   UNL     1       1.307   8.671  19.997  0.00  0.00    +0.000 A 
ATOM     16  H   UNL     1       1.399  11.172  17.828  0.00  0.00    +0.000 HD
BRANCH   7  17
ATOM     17  N   UNL     1       0.418  10.940  20.255  0.00  0.00    +0.000 N 
ATOM     18  H   UNL     1      -0.610  10.990  20.247  0.00  0.00    +0.000 HD
ATOM     19  H   UNL     1       0.945  11.612  20.829  0.00  0.00    +0.000 HD
ENDBRANCH   7  17
ENDBRANCH   1  12
BRANCH   4  20
ATOM     20  O   UNL     1       1.766   1.824  18.400  0.00  0.00    +0.000 OA
ATOM     21  H   UNL     1       0.854   1.436  18.455  0.00  0.00    +0.000 HD
ENDBRANCH   4  20
BRANCH   5  22
ATOM     22  O   UNL     1       1.293   4.399  17.439  0.00  0.00    +0.000 OA
ATOM     23  H   UNL     1       1.641   5.290  17.178  0.00  0.00    +0.000 HD
ENDBRANCH   5  22
BRANCH   3  24
ATOM     24  C   UNL     1       4.467   2.816  19.232  0.00  0.00    +0.000 C 
BRANCH  24  25
ATOM     25  S   UNL     1       5.388   4.402  19.180  0.00  0.00    +0.000 S 
BRANCH  25  26
ATOM     26  C   UNL     1       5.767   4.472  17.424  0.00  0.00    +0.000 A 
ATOM     27  C   UNL     1       7.069   4.771  17.001  0.00  0.00    +0.000 A 
ATOM     28  C   UNL     1       7.392   4.744  15.640  0.00  0.00    +0.000 A 
ATOM     29  C   UNL     1       6.415   4.416  14.694  0.00  0.00    +0.000 A 
ATOM     30 CL   UNL     1       6.829   4.357  12.989  0.00  0.00    +0.000 Cl
ATOM     31  C   UNL     1       5.112   4.120  15.110  0.00  0.00    +0.000 A 
ATOM     32  C   UNL     1       4.787   4.147  16.473  0.00  0.00    +0.000 A 
ENDBRANCH  25  26
ENDBRANCH  24  25
ENDBRANCH   3  24
TORSDOF 7
ENDMDL
MODEL 6
REMARK VINA RESULT:      -6.9      4.991      6.920
REMARK  Name = 
REMARK  7 active torsions:
REMARK  status: ('A' for Active; 'I' for Inactive)
REMARK    1  A    between atoms: N_1  and  C_2
REMARK    2  A    between atoms: C_7  and  C_8
REMARK    3  A    between atoms: C_10  and  C_11
REMARK    4  A    between atoms: C_11  and  S_12
REMARK    5  A    between atoms: S_12  and  C_13
REMARK    6  A    between atoms: C_20  and  O_21
REMARK    7  A    between atoms: C_22  and  O_23
REMARK                            x       y       z     vdW  Elec       q    Type
REMARK                         _______ _______ _______ _____ _____    ______ ____
ROOT
ATOM      1  C   UNL     1      -1.287  10.561  18.703  0.00  0.00    +0.000 C 
ATOM      2  N   UNL     1      -0.237  10.250  17.717  0.00  0.00    +0.000 NA
ATOM      3  C   UNL     1       1.021  10.433  18.457  0.00  0.00    +0.000 C 
ATOM      4  C   UNL     1       0.766  11.675  19.325  0.00  0.00    +0.000 C 
ATOM      5  C   UNL     1      -0.753  11.723  19.566  0.00  0.00    +0.000 C 
ATOM      6  H   UNL     1      -0.253  10.967  16.956  0.00  0.00    +0.000 HD
ENDROOT
BRANCH   1  12
ATOM      7  C   UNL     1      -5.766  12.423  17.688  0.00  0.00    +0.000 A 
ATOM      8  N   UNL     1      -5.879  13.101  18.874  0.00  0.00    +0.000 N 
ATOM      9  C   UNL     1      -4.911  13.035  19.846  0.00  0.00    +0.000 A 
ATOM     10  N   UNL     1      -3.774  12.299  19.665  0.00  0.00    +0.000 NA
ATOM     11  C   UNL     1      -3.636  11.620  18.504  0.00  0.00    +0.000 A 
ATOM     12  C   UNL     1      -2.609  10.842  18.031  0.00  0.00    +0.000 A 
ATOM     13  C   UNL     1      -3.029  10.405  16.770  0.00  0.00    +0.000 A 
ATOM     14  N   UNL     1      -4.255  10.900  16.441  0.00  0.00    +0.000 NA
ATOM     15  C   UNL     1      -4.627  11.652  17.494  0.00  0.00    +0.000 A 
ATOM     16  H   UNL     1      -6.725  13.685  19.053  0.00  0.00    +0.000 HD
BRANCH   7  17
ATOM     17  N   UNL     1      -6.775  12.520  16.698  0.00  0.00    +0.000 N 
ATOM     18  H   UNL     1      -6.537  12.823  15.742  0.00  0.00    +0.000 HD
ATOM     19  H   UNL     1      -7.752  12.281  16.915  0.00  0.00    +0.000 HD
ENDBRANCH   7  17
ENDBRANCH   1  12
BRANCH   4  20
ATOM     20  O   UNL     1       1.595  11.837  20.446  0.00  0.00    +0.000 OA
ATOM     21  H   UNL     1       1.994  12.744  20.394  0.00  0.00    +0.000 HD
ENDBRANCH   4  20
BRANCH   5  22
ATOM     22  O   UNL     1      -1.146  11.628  20.914  0.00  0.00    +0.000 OA
ATOM     23  H   UNL     1      -0.342  11.419  21.456  0.00  0.00    +0.000 HD
ENDBRANCH   5  22
BRANCH   3  24
ATOM     24  C   UNL     1       1.414   9.125  19.187  0.00  0.00    +0.000 C 
BRANCH  24  25
ATOM     25  S   UNL     1       2.489   8.170  18.047  0.00  0.00    +0.000 S 
BRANCH  25  26
ATOM     26  C   UNL     1       2.303   6.531  18.759  0.00  0.00    +0.000 A 
ATOM     27  C   UNL     1       2.140   6.384  20.143  0.00  0.00    +0.000 A 
ATOM     28  C   UNL     1       1.910   5.120  20.696  0.00  0.00    +0.000 A 
ATOM     29  C   UNL     1       1.840   3.995  19.868  0.00  0.00    +0.000 A 
ATOM     30 CL   UNL     1       1.525   2.413  20.560  0.00  0.00    +0.000 Cl
ATOM     31  C   UNL     1       2.007   4.134  18.485  0.00  0.00    +0.000 A 
ATOM     32  C   UNL     1       2.238   5.400  17.930  0.00  0.00    +0.000 A 
ENDBRANCH  25  26
ENDBRANCH  24  25
ENDBRANCH   3  24
TORSDOF 7
ENDMDL
MODEL 7
REMARK VINA RESULT:      -6.9      2.207      2.994
REMARK  Name = 
REMARK  7 active torsions:
REMARK  status: ('A' for Active; 'I' for Inactive)
REMARK    1  A    between atoms: N_1  and  C_2
REMARK    2  A    between atoms: C_7  and  C_8
REMARK    3  A    between atoms: C_10  and  C_11
REMARK    4  A    between atoms: C_11  and  S_12
REMARK    5  A    between atoms: S_12  and  C_13
REMARK    6  A    between atoms: C_20  and  O_21
REMARK    7  A    between atoms: C_22  and  O_23
REMARK                            x       y       z     vdW  Elec       q    Type
REMARK                         _______ _______ _______ _____ _____    ______ ____
ROOT
ATOM      1  C   UNL     1       2.075   5.982  19.588  0.00  0.00    +0.000 C 
ATOM      2  N   UNL     1       3.498   5.990  19.203  0.00  0.00    +0.000 NA
ATOM      3  C   UNL     1       3.862   4.568  19.129  0.00  0.00    +0.000 C 
ATOM      4  C   UNL     1       3.126   3.931  20.319  0.00  0.00    +0.000 C 
ATOM      5  C   UNL     1       1.892   4.814  20.578  0.00  0.00    +0.000 C 
ATOM      6  H   UNL     1       4.063   6.412  19.975  0.00  0.00    +0.000 HD
ENDROOT
BRANCH   1  12
ATOM      7  C   UNL     1       0.902  10.786  19.898  0.00  0.00    +0.000 A 
ATOM      8  N   UNL     1       1.325  11.089  18.629  0.00  0.00    +0.000 N 
ATOM      9  C   UNL     1       1.896  10.148  17.808  0.00  0.00    +0.000 A 
ATOM     10  N   UNL     1       2.053   8.853  18.216  0.00  0.00    +0.000 NA
ATOM     11  C   UNL     1       1.646   8.528  19.462  0.00  0.00    +0.000 A 
ATOM     12  C   UNL     1       1.640   7.325  20.123  0.00  0.00    +0.000 A 
ATOM     13  C   UNL     1       1.099   7.599  21.384  0.00  0.00    +0.000 A 
ATOM     14  N   UNL     1       0.751   8.910  21.515  0.00  0.00    +0.000 NA
ATOM     15  C   UNL     1       1.073   9.480  20.339  0.00  0.00    +0.000 A 
ATOM     16  H   UNL     1       1.215  12.063  18.271  0.00  0.00    +0.000 HD
BRANCH   7  17
ATOM     17  N   UNL     1       0.304  11.775  20.719  0.00  0.00    +0.000 N 
ATOM     18  H   UNL     1       0.886  12.485  21.184  0.00  0.00    +0.000 HD
ATOM     19  H   UNL     1      -0.717  11.804  20.852  0.00  0.00    +0.000 HD
ENDBRANCH   7  17
ENDBRANCH   1  12
BRANCH   4  20
ATOM     20  O   UNL     1       2.917   2.545  20.258  0.00  0.00    +0.000 OA
ATOM     21  H   UNL     1       3.808   2.111  20.206  0.00  0.00    +0.000 HD
ENDBRANCH   4  20
BRANCH   5  22
ATOM     22  O   UNL     1       0.653   4.163  20.432  0.00  0.00    +0.000 OA
ATOM     23  H   UNL     1       0.590   3.824  19.502  0.00  0.00    +0.000 HD
ENDBRANCH   5  22
BRANCH   3  24
ATOM     24  C   UNL     1       3.554   4.003  17.720  0.00  0.00    +0.000 C 
BRANCH  24  25
ATOM     25  S   UNL     1       5.152   3.472  16.990  0.00  0.00    +0.000 S 
BRANCH  25  26
ATOM     26  C   UNL     1       6.122   4.958  17.275  0.00  0.00    +0.000 A 
ATOM     27  C   UNL     1       5.823   6.134  16.576  0.00  0.00    +0.000 A 
ATOM     28  C   UNL     1       6.517   7.316  16.853  0.00  0.00    +0.000 A 
ATOM     29  C   UNL     1       7.515   7.329  17.833  0.00  0.00    +0.000 A 
ATOM     30 CL   UNL     1       8.367   8.820  18.198  0.00  0.00    +0.000 Cl
ATOM     31  C   UNL     1       7.822   6.156  18.533  0.00  0.00    +0.000 A 
ATOM     32  C   UNL     1       7.127   4.971  18.255  0.00  0.00    +0.000 A 
ENDBRANCH  25  26
ENDBRANCH  24  25
ENDBRANCH   3  24
TORSDOF 7
ENDMDL
MODEL 8
REMARK VINA RESULT:      -6.9      2.364      3.239
REMARK  Name = 
REMARK  7 active torsions:
REMARK  status: ('A' for Active; 'I' for Inactive)
REMARK    1  A    between atoms: N_1  and  C_2
REMARK    2  A    between atoms: C_7  and  C_8
REMARK    3  A    between atoms: C_10  and  C_11
REMARK    4  A    between atoms: C_11  and  S_12
REMARK    5  A    between atoms: S_12  and  C_13
REMARK    6  A    between atoms: C_20  and  O_21
REMARK    7  A    between atoms: C_22  and  O_23
REMARK                            x       y       z     vdW  Elec       q    Type
REMARK                         _______ _______ _______ _____ _____    ______ ____
ROOT
ATOM      1  C   UNL     1       2.706   5.608  18.409  0.00  0.00    +0.000 C 
ATOM      2  N   UNL     1       4.144   5.378  18.638  0.00  0.00    +0.000 NA
ATOM      3  C   UNL     1       4.405   4.071  18.016  0.00  0.00    +0.000 C 
ATOM      4  C   UNL     1       3.165   3.235  18.370  0.00  0.00    +0.000 C 
ATOM      5  C   UNL     1       2.011   4.238  18.549  0.00  0.00    +0.000 C 
ATOM      6  H   UNL     1       4.319   5.272  19.662  0.00  0.00    +0.000 HD
ENDROOT
BRANCH   1  12
ATOM      7  C   UNL     1       0.999   9.926  20.139  0.00  0.00    +0.000 A 
ATOM      8  N   UNL     1       1.262  10.622  18.988  0.00  0.00    +0.000 N 
ATOM      9  C   UNL     1       1.863  10.034  17.902  0.00  0.00    +0.000 A 
ATOM     10  N   UNL     1       2.212   8.713  17.915  0.00  0.00    +0.000 NA
ATOM     11  C   UNL     1       1.964   8.002  19.037  0.00  0.00    +0.000 A 
ATOM     12  C   UNL     1       2.165   6.676  19.328  0.00  0.00    +0.000 A 
ATOM     13  C   UNL     1       1.714   6.514  20.642  0.00  0.00    +0.000 A 
ATOM     14  N   UNL     1       1.225   7.675  21.160  0.00  0.00    +0.000 NA
ATOM     15  C   UNL     1       1.366   8.587  20.179  0.00  0.00    +0.000 A 
ATOM     16  H   UNL     1       1.003  11.631  18.928  0.00  0.00    +0.000 HD
BRANCH   7  17
ATOM     17  N   UNL     1       0.365  10.556  21.240  0.00  0.00    +0.000 N 
ATOM     18  H   UNL     1       0.521  11.557  21.424  0.00  0.00    +0.000 HD
ATOM     19  H   UNL     1      -0.264  10.027  21.860  0.00  0.00    +0.000 HD
ENDBRANCH   7  17
ENDBRANCH   1  12
BRANCH   4  20
ATOM     20  O   UNL     1       2.916   2.113  17.565  0.00  0.00    +0.000 OA
ATOM     21  H   UNL     1       3.750   1.577  17.532  0.00  0.00    +0.000 HD
ENDBRANCH   4  20
BRANCH   5  22
ATOM     22  O   UNL     1       0.937   4.075  17.655  0.00  0.00    +0.000 OA
ATOM     23  H   UNL     1       1.136   3.299  17.071  0.00  0.00    +0.000 HD
ENDBRANCH   5  22
BRANCH   3  24
ATOM     24  C   UNL     1       4.741   4.243  16.514  0.00  0.00    +0.000 C 
BRANCH  24  25
ATOM     25  S   UNL     1       6.554   4.019  16.336  0.00  0.00    +0.000 S 
BRANCH  25  26
ATOM     26  C   UNL     1       7.123   5.513  17.157  0.00  0.00    +0.000 A 
ATOM     27  C   UNL     1       7.734   5.430  18.416  0.00  0.00    +0.000 A 
ATOM     28  C   UNL     1       8.256   6.576  19.024  0.00  0.00    +0.000 A 
ATOM     29  C   UNL     1       8.172   7.813  18.376  0.00  0.00    +0.000 A 
ATOM     30 CL   UNL     1       8.851   9.247  19.128  0.00  0.00    +0.000 Cl
ATOM     31  C   UNL     1       7.559   7.904  17.121  0.00  0.00    +0.000 A 
ATOM     32  C   UNL     1       7.035   6.755  16.511  0.00  0.00    +0.000 A 
ENDBRANCH  25  26
ENDBRANCH  24  25
ENDBRANCH   3  24
TORSDOF 7
ENDMDL
MODEL 9
REMARK VINA RESULT:      -6.8      4.100      7.477
REMARK  Name = 
REMARK  7 active torsions:
REMARK  status: ('A' for Active; 'I' for Inactive)
REMARK    1  A    between atoms: N_1  and  C_2
REMARK    2  A    between atoms: C_7  and  C_8
REMARK    3  A    between atoms: C_10  and  C_11
REMARK    4  A    between atoms: C_11  and  S_12
REMARK    5  A    between atoms: S_12  and  C_13
REMARK    6  A    between atoms: C_20  and  O_21
REMARK    7  A    between atoms: C_22  and  O_23
REMARK                            x       y       z     vdW  Elec       q    Type
REMARK                         _______ _______ _______ _____ _____    ______ ____
ROOT
ATOM      1  C   UNL     1       3.395   4.636  18.879  0.00  0.00    +0.000 C 
ATOM      2  N   UNL     1       2.130   5.320  18.554  0.00  0.00    +0.000 NA
ATOM      3  C   UNL     1       1.225   4.946  19.650  0.00  0.00    +0.000 C 
ATOM      4  C   UNL     1       1.551   3.467  19.916  0.00  0.00    +0.000 C 
ATOM      5  C   UNL     1       3.016   3.270  19.488  0.00  0.00    +0.000 C 
ATOM      6  H   UNL     1       1.734   4.916  17.676  0.00  0.00    +0.000 HD
ENDROOT
BRANCH   1  12
ATOM      7  C   UNL     1       7.092   5.457  15.683  0.00  0.00    +0.000 A 
ATOM      8  N   UNL     1       7.572   6.558  16.344  0.00  0.00    +0.000 N 
ATOM      9  C   UNL     1       6.963   7.053  17.471  0.00  0.00    +0.000 A 
ATOM     10  N   UNL     1       5.854   6.455  17.998  0.00  0.00    +0.000 NA
ATOM     11  C   UNL     1       5.359   5.368  17.366  0.00  0.00    +0.000 A 
ATOM     12  C   UNL     1       4.301   4.550  17.674  0.00  0.00    +0.000 A 
ATOM     13  C   UNL     1       4.271   3.588  16.659  0.00  0.00    +0.000 A 
ATOM     14  N   UNL     1       5.277   3.766  15.758  0.00  0.00    +0.000 NA
ATOM     15  C   UNL     1       5.952   4.847  16.192  0.00  0.00    +0.000 A 
ATOM     16  H   UNL     1       8.424   7.042  15.984  0.00  0.00    +0.000 HD
BRANCH   7  17
ATOM     17  N   UNL     1       7.749   4.960  14.530  0.00  0.00    +0.000 N 
ATOM     18  H   UNL     1       8.287   5.596  13.924  0.00  0.00    +0.000 HD
ATOM     19  H   UNL     1       7.707   3.960  14.288  0.00  0.00    +0.000 HD
ENDBRANCH   7  17
ENDBRANCH   1  12
BRANCH   4  20
ATOM     20  O   UNL     1       1.180   2.960  21.171  0.00  0.00    +0.000 OA
ATOM     21  H   UNL     1       0.218   3.163  21.303  0.00  0.00    +0.000 HD
ENDBRANCH   4  20
BRANCH   5  22
ATOM     22  O   UNL     1       3.889   2.869  20.516  0.00  0.00    +0.000 OA
ATOM     23  H   UNL     1       4.671   3.478  20.512  0.00  0.00    +0.000 HD
ENDBRANCH   5  22
BRANCH   3  24
ATOM     24  C   UNL     1       1.374   5.930  20.836  0.00  0.00    +0.000 C 
BRANCH  24  25
ATOM     25  S   UNL     1       2.034   7.501  20.156  0.00  0.00    +0.000 S 
BRANCH  25  26
ATOM     26  C   UNL     1       0.940   8.668  20.975  0.00  0.00    +0.000 A 
ATOM     27  C   UNL     1       0.854   8.683  22.374  0.00  0.00    +0.000 A 
ATOM     28  C   UNL     1       0.071   9.643  23.023  0.00  0.00    +0.000 A 
ATOM     29  C   UNL     1      -0.631  10.595  22.276  0.00  0.00    +0.000 A 
ATOM     30 CL   UNL     1      -1.594  11.815  23.093  0.00  0.00    +0.000 Cl
ATOM     31  C   UNL     1      -0.554  10.583  20.879  0.00  0.00    +0.000 A 
ATOM     32  C   UNL     1       0.231   9.621  20.228  0.00  0.00    +0.000 A 
ENDBRANCH  25  26
ENDBRANCH  24  25
ENDBRANCH   3  24
TORSDOF 7
ENDMDL
