MODEL 1
REMARK VINA RESULT:      -7.7      0.000      0.000
REMARK  Name = 
REMARK  9 active torsions:
REMARK  status: ('A' for Active; 'I' for Inactive)
REMARK    1  A    between atoms: C_1  and  C_2
REMARK    2  A    between atoms: C_2  and  C_3
REMARK    3  A    between atoms: C_3  and  C_4
REMARK    4  A    between atoms: C_4  and  C_5
REMARK    5  A    between atoms: C_5  and  N_6
REMARK    6  A    between atoms: C_14  and  O_15
REMARK    7  A    between atoms: O_15  and  C_16
REMARK    8  A    between atoms: N_20  and  C_21
REMARK    9  A    between atoms: C_21  and  C_22
REMARK                            x       y       z     vdW  Elec       q    Type
REMARK                         _______ _______ _______ _____ _____    ______ ____
ROOT
ATOM      1  N   UNL     1       5.381   5.364  16.100  0.00  0.00    +0.000 N 
ATOM      2  C   UNL     1       4.670   6.561  16.233  0.00  0.00    +0.000 A 
ATOM      3  O   UNL     1       4.652   7.445  15.384  0.00  0.00    +0.000 OA
ATOM      4  C   UNL     1       3.952   6.651  17.453  0.00  0.00    +0.000 A 
ATOM      5  C   UNL     1       3.946   5.662  18.389  0.00  0.00    +0.000 A 
ATOM      6  N   UNL     1       3.183   5.984  19.471  0.00  0.00    +0.000 NA
ATOM      7  C   UNL     1       2.689   7.172  19.181  0.00  0.00    +0.000 A 
ATOM      8  C   UNL     1       1.779   8.008  19.898  0.00  0.00    +0.000 A 
ATOM      9  C   UNL     1       1.381   9.188  19.368  0.00  0.00    +0.000 A 
ATOM     10  C   UNL     1       1.881   9.626  18.068  0.00  0.00    +0.000 A 
ATOM     11  C   UNL     1       2.746   8.848  17.392  0.00  0.00    +0.000 A 
ATOM     12  N   UNL     1       3.137   7.634  17.939  0.00  0.00    +0.000 N 
ATOM     13  N   UNL     1       4.604   4.470  18.184  0.00  0.00    +0.000 N 
ATOM     14  C   UNL     1       5.277   4.262  16.976  0.00  0.00    +0.000 A 
ATOM     15  O   UNL     1       5.749   3.160  16.686  0.00  0.00    +0.000 OA
ENDROOT
BRANCH   9  16
ATOM     16  O   UNL     1       0.502  10.090  19.910  0.00  0.00    +0.000 OA
ATOM     17  C   UNL     1       0.919  11.448  19.982  0.00  0.00    +0.000 C 
ENDBRANCH   9  16
BRANCH   1  18
ATOM     18  C   UNL     1       6.194   5.210  14.894  0.00  0.00    +0.000 C 
BRANCH  18  19
ATOM     19  C   UNL     1       5.503   4.402  13.781  0.00  0.00    +0.000 C 
BRANCH  19  20
ATOM     20  C   UNL     1       6.489   3.612  12.922  0.00  0.00    +0.000 C 
BRANCH  20  22
ATOM     21  C   UNL     1       4.357   3.345  11.615  0.00  0.00    +0.000 C 
ATOM     22  C   UNL     1       5.767   2.820  11.832  0.00  0.00    +0.000 C 
ENDBRANCH  20  22
ENDBRANCH  19  20
ENDBRANCH  18  19
ENDBRANCH   1  18
BRANCH  13  23
ATOM     23  C   UNL     1       4.616   3.425  19.206  0.00  0.00    +0.000 C 
BRANCH  23  24
ATOM     24  C   UNL     1       3.212   2.979  19.563  0.00  0.00    +0.000 A 
ATOM     25  C   UNL     1       2.302   2.627  18.554  0.00  0.00    +0.000 A 
ATOM     26  C   UNL     1       0.976   2.326  18.868  0.00  0.00    +0.000 A 
ATOM     27  C   UNL     1       0.546   2.365  20.193  0.00  0.00    +0.000 A 
ATOM     28  C   UNL     1       1.448   2.679  21.208  0.00  0.00    +0.000 A 
ATOM     29  C   UNL     1       2.775   2.983  20.895  0.00  0.00    +0.000 A 
ENDBRANCH  23  24
ENDBRANCH  13  23
TORSDOF 7
ENDMDL
MODEL 2
REMARK VINA RESULT:      -7.6      2.758      5.497
REMARK  Name = 
REMARK  9 active torsions:
REMARK  status: ('A' for Active; 'I' for Inactive)
REMARK    1  A    between atoms: C_1  and  C_2
REMARK    2  A    between atoms: C_2  and  C_3
REMARK    3  A    between atoms: C_3  and  C_4
REMARK    4  A    between atoms: C_4  and  C_5
REMARK    5  A    between atoms: C_5  and  N_6
REMARK    6  A    between atoms: C_14  and  O_15
REMARK    7  A    between atoms: O_15  and  C_16
REMARK    8  A    between atoms: N_20  and  C_21
REMARK    9  A    between atoms: C_21  and  C_22
REMARK                            x       y       z     vdW  Elec       q    Type
REMARK                         _______ _______ _______ _____ _____    ______ ____
ROOT
ATOM      1  N   UNL     1       2.471   5.295  20.374  0.00  0.00    +0.000 N 
ATOM      2  C   UNL     1       1.755   6.485  20.547  0.00  0.00    +0.000 A 
ATOM      3  O   UNL     1       0.967   6.682  21.464  0.00  0.00    +0.000 OA
ATOM      4  C   UNL     1       2.042   7.457  19.555  0.00  0.00    +0.000 A 
ATOM      5  C   UNL     1       2.936   7.254  18.549  0.00  0.00    +0.000 A 
ATOM      6  N   UNL     1       3.036   8.336  17.726  0.00  0.00    +0.000 NA
ATOM      7  C   UNL     1       2.216   9.225  18.252  0.00  0.00    +0.000 A 
ATOM      8  C   UNL     1       1.925  10.570  17.872  0.00  0.00    +0.000 A 
ATOM      9  C   UNL     1       1.062  11.311  18.605  0.00  0.00    +0.000 A 
ATOM     10  C   UNL     1       0.412  10.745  19.784  0.00  0.00    +0.000 A 
ATOM     11  C   UNL     1       0.674   9.475  20.142  0.00  0.00    +0.000 A 
ATOM     12  N   UNL     1       1.571   8.729  19.390  0.00  0.00    +0.000 N 
ATOM     13  N   UNL     1       3.671   6.093  18.458  0.00  0.00    +0.000 N 
ATOM     14  C   UNL     1       3.510   5.108  19.438  0.00  0.00    +0.000 A 
ATOM     15  O   UNL     1       4.252   4.123  19.485  0.00  0.00    +0.000 OA
ENDROOT
BRANCH   9  16
ATOM     16  O   UNL     1       0.694  12.615  18.393  0.00  0.00    +0.000 OA
ATOM     17  C   UNL     1       1.311  13.609  19.201  0.00  0.00    +0.000 C 
ENDBRANCH   9  16
BRANCH   1  18
ATOM     18  C   UNL     1       2.197   4.216  21.323  0.00  0.00    +0.000 C 
BRANCH  18  19
ATOM     19  C   UNL     1       1.058   3.280  20.883  0.00  0.00    +0.000 C 
BRANCH  19  20
ATOM     20  C   UNL     1       1.544   2.121  20.014  0.00  0.00    +0.000 C 
BRANCH  20  22
ATOM     21  C   UNL     1       2.358   2.159  17.635  0.00  0.00    +0.000 C 
ATOM     22  C   UNL     1       1.155   2.321  18.550  0.00  0.00    +0.000 C 
ENDBRANCH  20  22
ENDBRANCH  19  20
ENDBRANCH  18  19
ENDBRANCH   1  18
BRANCH  13  23
ATOM     23  C   UNL     1       4.608   5.873  17.359  0.00  0.00    +0.000 C 
BRANCH  23  24
ATOM     24  C   UNL     1       5.986   6.413  17.684  0.00  0.00    +0.000 A 
ATOM     25  C   UNL     1       6.820   5.733  18.585  0.00  0.00    +0.000 A 
ATOM     26  C   UNL     1       8.042   6.283  18.976  0.00  0.00    +0.000 A 
ATOM     27  C   UNL     1       8.447   7.515  18.466  0.00  0.00    +0.000 A 
ATOM     28  C   UNL     1       7.645   8.185  17.544  0.00  0.00    +0.000 A 
ATOM     29  C   UNL     1       6.421   7.636  17.153  0.00  0.00    +0.000 A 
ENDBRANCH  23  24
ENDBRANCH  13  23
TORSDOF 7
ENDMDL
MODEL 3
REMARK VINA RESULT:      -6.9      4.094     10.786
REMARK  Name = 
REMARK  9 active torsions:
REMARK  status: ('A' for Active; 'I' for Inactive)
REMARK    1  A    between atoms: C_1  and  C_2
REMARK    2  A    between atoms: C_2  and  C_3
REMARK    3  A    between atoms: C_3  and  C_4
REMARK    4  A    between atoms: C_4  and  C_5
REMARK    5  A    between atoms: C_5  and  N_6
REMARK    6  A    between atoms: C_14  and  O_15
REMARK    7  A    between atoms: O_15  and  C_16
REMARK    8  A    between atoms: N_20  and  C_21
REMARK    9  A    between atoms: C_21  and  C_22
REMARK                            x       y       z     vdW  Elec       q    Type
REMARK                         _______ _______ _______ _____ _____    ______ ____
ROOT
ATOM      1  N   UNL     1      -0.588  11.853  21.826  0.00  0.00    +0.000 N 
ATOM      2  C   UNL     1      -0.028  10.571  21.820  0.00  0.00    +0.000 A 
ATOM      3  O   UNL     1      -0.057   9.806  22.778  0.00  0.00    +0.000 OA
ATOM      4  C   UNL     1       0.573  10.230  20.581  0.00  0.00    +0.000 A 
ATOM      5  C   UNL     1       0.586  11.064  19.505  0.00  0.00    +0.000 A 
ATOM      6  N   UNL     1       1.221  10.510  18.434  0.00  0.00    +0.000 NA
ATOM      7  C   UNL     1       1.575   9.308  18.850  0.00  0.00    +0.000 A 
ATOM      8  C   UNL     1       2.227   8.237  18.167  0.00  0.00    +0.000 A 
ATOM      9  C   UNL     1       2.450   7.063  18.803  0.00  0.00    +0.000 A 
ATOM     10  C   UNL     1       2.040   6.881  20.193  0.00  0.00    +0.000 A 
ATOM     11  C   UNL     1       1.434   7.890  20.845  0.00  0.00    +0.000 A 
ATOM     12  N   UNL     1       1.198   9.084  20.178  0.00  0.00    +0.000 N 
ATOM     13  N   UNL     1      -0.040  12.290  19.534  0.00  0.00    +0.000 N 
ATOM     14  C   UNL     1      -0.725  12.678  20.690  0.00  0.00    +0.000 A 
ATOM     15  O   UNL     1      -1.425  13.694  20.709  0.00  0.00    +0.000 OA
ENDROOT
BRANCH   9  16
ATOM     16  O   UNL     1       3.038   5.936  18.290  0.00  0.00    +0.000 OA
ATOM     17  C   UNL     1       4.082   5.339  19.048  0.00  0.00    +0.000 C 
ENDBRANCH   9  16
BRANCH   1  18
ATOM     18  C   UNL     1      -1.183  12.307  23.083  0.00  0.00    +0.000 C 
BRANCH  18  19
ATOM     19  C   UNL     1      -2.604  11.768  23.324  0.00  0.00    +0.000 C 
BRANCH  19  20
ATOM     20  C   UNL     1      -3.636  12.880  23.516  0.00  0.00    +0.000 C 
BRANCH  20  22
ATOM     21  C   UNL     1      -6.082  12.816  24.095  0.00  0.00    +0.000 C 
ATOM     22  C   UNL     1      -4.674  12.500  24.571  0.00  0.00    +0.000 C 
ENDBRANCH  20  22
ENDBRANCH  19  20
ENDBRANCH  18  19
ENDBRANCH   1  18
BRANCH  13  23
ATOM     23  C   UNL     1       0.003  13.190  18.383  0.00  0.00    +0.000 C 
BRANCH  23  24
ATOM     24  C   UNL     1       1.152  14.172  18.485  0.00  0.00    +0.000 A 
ATOM     25  C   UNL     1       0.913  15.509  18.839  0.00  0.00    +0.000 A 
ATOM     26  C   UNL     1       1.949  16.444  18.825  0.00  0.00    +0.000 A 
ATOM     27  C   UNL     1       3.238  16.052  18.463  0.00  0.00    +0.000 A 
ATOM     28  C   UNL     1       3.496  14.720  18.144  0.00  0.00    +0.000 A 
ATOM     29  C   UNL     1       2.459  13.784  18.156  0.00  0.00    +0.000 A 
ENDBRANCH  23  24
ENDBRANCH  13  23
TORSDOF 7
ENDMDL
MODEL 4
REMARK VINA RESULT:      -6.8      2.337      5.376
REMARK  Name = 
REMARK  9 active torsions:
REMARK  status: ('A' for Active; 'I' for Inactive)
REMARK    1  A    between atoms: C_1  and  C_2
REMARK    2  A    between atoms: C_2  and  C_3
REMARK    3  A    between atoms: C_3  and  C_4
REMARK    4  A    between atoms: C_4  and  C_5
REMARK    5  A    between atoms: C_5  and  N_6
REMARK    6  A    between atoms: C_14  and  O_15
REMARK    7  A    between atoms: O_15  and  C_16
REMARK    8  A    between atoms: N_20  and  C_21
REMARK    9  A    between atoms: C_21  and  C_22
REMARK                            x       y       z     vdW  Elec       q    Type
REMARK                         _______ _______ _______ _____ _____    ______ ____
ROOT
ATOM      1  N   UNL     1       2.240   6.119  19.932  0.00  0.00    +0.000 N 
ATOM      2  C   UNL     1       1.646   7.314  20.355  0.00  0.00    +0.000 A 
ATOM      3  O   UNL     1       1.048   7.442  21.417  0.00  0.00    +0.000 OA
ATOM      4  C   UNL     1       1.815   8.378  19.432  0.00  0.00    +0.000 A 
ATOM      5  C   UNL     1       2.501   8.248  18.263  0.00  0.00    +0.000 A 
ATOM      6  N   UNL     1       2.524   9.410  17.551  0.00  0.00    +0.000 NA
ATOM      7  C   UNL     1       1.871  10.271  18.308  0.00  0.00    +0.000 A 
ATOM      8  C   UNL     1       1.606  11.663  18.127  0.00  0.00    +0.000 A 
ATOM      9  C   UNL     1       0.937  12.355  19.079  0.00  0.00    +0.000 A 
ATOM     10  C   UNL     1       0.471  11.690  20.293  0.00  0.00    +0.000 A 
ATOM     11  C   UNL     1       0.709  10.377  20.465  0.00  0.00    +0.000 A 
ATOM     12  N   UNL     1       1.407   9.680  19.488  0.00  0.00    +0.000 N 
ATOM     13  N   UNL     1       3.130   7.072  17.920  0.00  0.00    +0.000 N 
ATOM     14  C   UNL     1       3.081   5.991  18.806  0.00  0.00    +0.000 A 
ATOM     15  O   UNL     1       3.754   4.975  18.614  0.00  0.00    +0.000 OA
ENDROOT
BRANCH   9  16
ATOM     16  O   UNL     1       0.624  13.690  19.073  0.00  0.00    +0.000 OA
ATOM     17  C   UNL     1       1.153  14.491  20.122  0.00  0.00    +0.000 C 
ENDBRANCH   9  16
BRANCH   1  18
ATOM     18  C   UNL     1       2.069   4.954  20.799  0.00  0.00    +0.000 C 
BRANCH  18  19
ATOM     19  C   UNL     1       0.865   4.073  20.421  0.00  0.00    +0.000 C 
BRANCH  19  20
ATOM     20  C   UNL     1       1.272   2.660  20.005  0.00  0.00    +0.000 C 
BRANCH  20  22
ATOM     21  C   UNL     1       2.583   1.990  17.966  0.00  0.00    +0.000 C 
ATOM     22  C   UNL     1       1.248   2.498  18.485  0.00  0.00    +0.000 C 
ENDBRANCH  20  22
ENDBRANCH  19  20
ENDBRANCH  18  19
ENDBRANCH   1  18
BRANCH  13  23
ATOM     23  C   UNL     1       3.840   6.935  16.650  0.00  0.00    +0.000 C 
BRANCH  23  24
ATOM     24  C   UNL     1       5.199   6.291  16.839  0.00  0.00    +0.000 A 
ATOM     25  C   UNL     1       5.492   5.063  16.227  0.00  0.00    +0.000 A 
ATOM     26  C   UNL     1       6.698   4.409  16.487  0.00  0.00    +0.000 A 
ATOM     27  C   UNL     1       7.627   4.979  17.356  0.00  0.00    +0.000 A 
ATOM     28  C   UNL     1       7.363   6.215  17.943  0.00  0.00    +0.000 A 
ATOM     29  C   UNL     1       6.155   6.869  17.685  0.00  0.00    +0.000 A 
ENDBRANCH  23  24
ENDBRANCH  13  23
TORSDOF 7
ENDMDL
MODEL 5
REMARK VINA RESULT:      -6.7      1.632      4.994
REMARK  Name = 
REMARK  9 active torsions:
REMARK  status: ('A' for Active; 'I' for Inactive)
REMARK    1  A    between atoms: C_1  and  C_2
REMARK    2  A    between atoms: C_2  and  C_3
REMARK    3  A    between atoms: C_3  and  C_4
REMARK    4  A    between atoms: C_4  and  C_5
REMARK    5  A    between atoms: C_5  and  N_6
REMARK    6  A    between atoms: C_14  and  O_15
REMARK    7  A    between atoms: O_15  and  C_16
REMARK    8  A    between atoms: N_20  and  C_21
REMARK    9  A    between atoms: C_21  and  C_22
REMARK                            x       y       z     vdW  Elec       q    Type
REMARK                         _______ _______ _______ _____ _____    ______ ____
ROOT
ATOM      1  N   UNL     1       4.356   4.431  19.400  0.00  0.00    +0.000 N 
ATOM      2  C   UNL     1       3.280   5.262  19.733  0.00  0.00    +0.000 A 
ATOM      3  O   UNL     1       2.456   4.999  20.602  0.00  0.00    +0.000 OA
ATOM      4  C   UNL     1       3.240   6.456  18.969  0.00  0.00    +0.000 A 
ATOM      5  C   UNL     1       4.167   6.765  18.022  0.00  0.00    +0.000 A 
ATOM      6  N   UNL     1       3.913   7.966  17.428  0.00  0.00    +0.000 NA
ATOM      7  C   UNL     1       2.833   8.412  18.042  0.00  0.00    +0.000 A 
ATOM      8  C   UNL     1       2.115   9.638  17.898  0.00  0.00    +0.000 A 
ATOM      9  C   UNL     1       1.041   9.891  18.682  0.00  0.00    +0.000 A 
ATOM     10  C   UNL     1       0.599   8.915  19.674  0.00  0.00    +0.000 A 
ATOM     11  C   UNL     1       1.266   7.754  19.808  0.00  0.00    +0.000 A 
ATOM     12  N   UNL     1       2.373   7.511  19.007  0.00  0.00    +0.000 N 
ATOM     13  N   UNL     1       5.250   5.951  17.776  0.00  0.00    +0.000 N 
ATOM     14  C   UNL     1       5.413   4.788  18.536  0.00  0.00    +0.000 A 
ATOM     15  O   UNL     1       6.441   4.110  18.459  0.00  0.00    +0.000 OA
ENDROOT
BRANCH   9  16
ATOM     16  O   UNL     1       0.261  11.018  18.688  0.00  0.00    +0.000 OA
ATOM     17  C   UNL     1      -1.126  10.853  18.953  0.00  0.00    +0.000 C 
ENDBRANCH   9  16
BRANCH   1  18
ATOM     18  C   UNL     1       4.443   3.151  20.103  0.00  0.00    +0.000 C 
BRANCH  18  19
ATOM     19  C   UNL     1       4.254   1.929  19.188  0.00  0.00    +0.000 C 
BRANCH  19  20
ATOM     20  C   UNL     1       2.936   1.965  18.414  0.00  0.00    +0.000 C 
BRANCH  20  22
ATOM     21  C   UNL     1       0.549   2.660  18.791  0.00  0.00    +0.000 C 
ATOM     22  C   UNL     1       1.735   1.896  19.356  0.00  0.00    +0.000 C 
ENDBRANCH  20  22
ENDBRANCH  19  20
ENDBRANCH  18  19
ENDBRANCH   1  18
BRANCH  13  23
ATOM     23  C   UNL     1       6.225   6.278  16.738  0.00  0.00    +0.000 C 
BRANCH  23  24
ATOM     24  C   UNL     1       6.135   5.320  15.567  0.00  0.00    +0.000 A 
ATOM     25  C   UNL     1       7.221   5.164  14.693  0.00  0.00    +0.000 A 
ATOM     26  C   UNL     1       7.105   4.372  13.549  0.00  0.00    +0.000 A 
ATOM     27  C   UNL     1       5.905   3.721  13.271  0.00  0.00    +0.000 A 
ATOM     28  C   UNL     1       4.829   3.839  14.149  0.00  0.00    +0.000 A 
ATOM     29  C   UNL     1       4.943   4.634  15.293  0.00  0.00    +0.000 A 
ENDBRANCH  23  24
ENDBRANCH  13  23
TORSDOF 7
ENDMDL
MODEL 6
REMARK VINA RESULT:      -6.7      1.913      6.313
REMARK  Name = 
REMARK  9 active torsions:
REMARK  status: ('A' for Active; 'I' for Inactive)
REMARK    1  A    between atoms: C_1  and  C_2
REMARK    2  A    between atoms: C_2  and  C_3
REMARK    3  A    between atoms: C_3  and  C_4
REMARK    4  A    between atoms: C_4  and  C_5
REMARK    5  A    between atoms: C_5  and  N_6
REMARK    6  A    between atoms: C_14  and  O_15
REMARK    7  A    between atoms: O_15  and  C_16
REMARK    8  A    between atoms: N_20  and  C_21
REMARK    9  A    between atoms: C_21  and  C_22
REMARK                            x       y       z     vdW  Elec       q    Type
REMARK                         _______ _______ _______ _____ _____    ______ ____
ROOT
ATOM      1  N   UNL     1       1.668   8.723  19.071  0.00  0.00    +0.000 N 
ATOM      2  C   UNL     1       2.523   8.464  17.994  0.00  0.00    +0.000 A 
ATOM      3  O   UNL     1       2.719   9.248  17.072  0.00  0.00    +0.000 OA
ATOM      4  C   UNL     1       3.160   7.200  18.079  0.00  0.00    +0.000 A 
ATOM      5  C   UNL     1       2.967   6.336  19.113  0.00  0.00    +0.000 A 
ATOM      6  N   UNL     1       3.689   5.190  18.966  0.00  0.00    +0.000 NA
ATOM      7  C   UNL     1       4.358   5.366  17.843  0.00  0.00    +0.000 A 
ATOM      8  C   UNL     1       5.319   4.539  17.187  0.00  0.00    +0.000 A 
ATOM      9  C   UNL     1       5.909   4.961  16.043  0.00  0.00    +0.000 A 
ATOM     10  C   UNL     1       5.565   6.255  15.462  0.00  0.00    +0.000 A 
ATOM     11  C   UNL     1       4.652   7.035  16.071  0.00  0.00    +0.000 A 
ATOM     12  N   UNL     1       4.064   6.598  17.249  0.00  0.00    +0.000 N 
ATOM     13  N   UNL     1       2.170   6.662  20.188  0.00  0.00    +0.000 N 
ATOM     14  C   UNL     1       1.561   7.921  20.227  0.00  0.00    +0.000 A 
ATOM     15  O   UNL     1       0.966   8.315  21.233  0.00  0.00    +0.000 OA
ENDROOT
BRANCH   9  16
ATOM     16  O   UNL     1       6.861   4.305  15.306  0.00  0.00    +0.000 OA
ATOM     17  C   UNL     1       7.071   4.743  13.970  0.00  0.00    +0.000 C 
ENDBRANCH   9  16
BRANCH   1  18
ATOM     18  C   UNL     1       0.928   9.985  19.037  0.00  0.00    +0.000 C 
BRANCH  18  19
ATOM     19  C   UNL     1      -0.386   9.910  18.239  0.00  0.00    +0.000 C 
BRANCH  19  20
ATOM     20  C   UNL     1      -1.250  11.161  18.400  0.00  0.00    +0.000 C 
BRANCH  20  22
ATOM     21  C   UNL     1      -2.395   9.924  16.533  0.00  0.00    +0.000 C 
ATOM     22  C   UNL     1      -2.384  11.189  17.377  0.00  0.00    +0.000 C 
ENDBRANCH  20  22
ENDBRANCH  19  20
ENDBRANCH  18  19
ENDBRANCH   1  18
BRANCH  13  23
ATOM     23  C   UNL     1       1.946   5.718  21.281  0.00  0.00    +0.000 C 
BRANCH  23  24
ATOM     24  C   UNL     1       1.690   4.316  20.763  0.00  0.00    +0.000 A 
ATOM     25  C   UNL     1       2.460   3.238  21.225  0.00  0.00    +0.000 A 
ATOM     26  C   UNL     1       2.306   1.967  20.671  0.00  0.00    +0.000 A 
ATOM     27  C   UNL     1       1.377   1.757  19.653  0.00  0.00    +0.000 A 
ATOM     28  C   UNL     1       0.581   2.811  19.209  0.00  0.00    +0.000 A 
ATOM     29  C   UNL     1       0.736   4.086  19.762  0.00  0.00    +0.000 A 
ENDBRANCH  23  24
ENDBRANCH  13  23
TORSDOF 7
ENDMDL
MODEL 7
REMARK VINA RESULT:      -6.7      1.632      4.848
REMARK  Name = 
REMARK  9 active torsions:
REMARK  status: ('A' for Active; 'I' for Inactive)
REMARK    1  A    between atoms: C_1  and  C_2
REMARK    2  A    between atoms: C_2  and  C_3
REMARK    3  A    between atoms: C_3  and  C_4
REMARK    4  A    between atoms: C_4  and  C_5
REMARK    5  A    between atoms: C_5  and  N_6
REMARK    6  A    between atoms: C_14  and  O_15
REMARK    7  A    between atoms: O_15  and  C_16
REMARK    8  A    between atoms: N_20  and  C_21
REMARK    9  A    between atoms: C_21  and  C_22
REMARK                            x       y       z     vdW  Elec       q    Type
REMARK                         _______ _______ _______ _____ _____    ______ ____
ROOT
ATOM      1  N   UNL     1       4.516   4.419  19.407  0.00  0.00    +0.000 N 
ATOM      2  C   UNL     1       3.420   5.225  19.737  0.00  0.00    +0.000 A 
ATOM      3  O   UNL     1       2.605   4.948  20.610  0.00  0.00    +0.000 OA
ATOM      4  C   UNL     1       3.348   6.412  18.965  0.00  0.00    +0.000 A 
ATOM      5  C   UNL     1       4.264   6.738  18.012  0.00  0.00    +0.000 A 
ATOM      6  N   UNL     1       3.977   7.927  17.410  0.00  0.00    +0.000 NA
ATOM      7  C   UNL     1       2.889   8.350  18.023  0.00  0.00    +0.000 A 
ATOM      8  C   UNL     1       2.139   9.556  17.872  0.00  0.00    +0.000 A 
ATOM      9  C   UNL     1       1.061   9.788  18.658  0.00  0.00    +0.000 A 
ATOM     10  C   UNL     1       0.647   8.809  19.659  0.00  0.00    +0.000 A 
ATOM     11  C   UNL     1       1.343   7.666  19.800  0.00  0.00    +0.000 A 
ATOM     12  N   UNL     1       2.454   7.445  18.997  0.00  0.00    +0.000 N 
ATOM     13  N   UNL     1       5.366   5.949  17.770  0.00  0.00    +0.000 N 
ATOM     14  C   UNL     1       5.561   4.796  18.537  0.00  0.00    +0.000 A 
ATOM     15  O   UNL     1       6.606   4.144  18.462  0.00  0.00    +0.000 OA
ENDROOT
BRANCH   9  16
ATOM     16  O   UNL     1       0.253  10.895  18.659  0.00  0.00    +0.000 OA
ATOM     17  C   UNL     1       0.276  11.721  19.815  0.00  0.00    +0.000 C 
ENDBRANCH   9  16
BRANCH   1  18
ATOM     18  C   UNL     1       4.637   3.147  20.120  0.00  0.00    +0.000 C 
BRANCH  18  19
ATOM     19  C   UNL     1       3.802   2.012  19.504  0.00  0.00    +0.000 C 
BRANCH  19  20
ATOM     20  C   UNL     1       3.660   2.133  17.987  0.00  0.00    +0.000 C 
BRANCH  20  22
ATOM     21  C   UNL     1       1.269   2.268  18.755  0.00  0.00    +0.000 C 
ATOM     22  C   UNL     1       2.222   2.461  17.587  0.00  0.00    +0.000 C 
ENDBRANCH  20  22
ENDBRANCH  19  20
ENDBRANCH  18  19
ENDBRANCH   1  18
BRANCH  13  23
ATOM     23  C   UNL     1       6.330   6.293  16.726  0.00  0.00    +0.000 C 
BRANCH  23  24
ATOM     24  C   UNL     1       6.153   5.424  15.496  0.00  0.00    +0.000 A 
ATOM     25  C   UNL     1       4.966   4.702  15.303  0.00  0.00    +0.000 A 
ATOM     26  C   UNL     1       4.841   3.814  14.234  0.00  0.00    +0.000 A 
ATOM     27  C   UNL     1       5.898   3.642  13.342  0.00  0.00    +0.000 A 
ATOM     28  C   UNL     1       7.070   4.379  13.502  0.00  0.00    +0.000 A 
ATOM     29  C   UNL     1       7.197   5.268  14.573  0.00  0.00    +0.000 A 
ENDBRANCH  23  24
ENDBRANCH  13  23
TORSDOF 7
ENDMDL
MODEL 8
REMARK VINA RESULT:      -6.7      1.909      3.161
REMARK  Name = 
REMARK  9 active torsions:
REMARK  status: ('A' for Active; 'I' for Inactive)
REMARK    1  A    between atoms: C_1  and  C_2
REMARK    2  A    between atoms: C_2  and  C_3
REMARK    3  A    between atoms: C_3  and  C_4
REMARK    4  A    between atoms: C_4  and  C_5
REMARK    5  A    between atoms: C_5  and  N_6
REMARK    6  A    between atoms: C_14  and  O_15
REMARK    7  A    between atoms: O_15  and  C_16
REMARK    8  A    between atoms: N_20  and  C_21
REMARK    9  A    between atoms: C_21  and  C_22
REMARK                            x       y       z     vdW  Elec       q    Type
REMARK                         _______ _______ _______ _____ _____    ______ ____
ROOT
ATOM      1  N   UNL     1       3.413   7.248  17.863  0.00  0.00    +0.000 N 
ATOM      2  C   UNL     1       2.683   8.431  18.023  0.00  0.00    +0.000 A 
ATOM      3  O   UNL     1       2.676   9.347  17.207  0.00  0.00    +0.000 OA
ATOM      4  C   UNL     1       1.933   8.466  19.226  0.00  0.00    +0.000 A 
ATOM      5  C   UNL     1       1.915   7.442  20.122  0.00  0.00    +0.000 A 
ATOM      6  N   UNL     1       1.120   7.713  21.196  0.00  0.00    +0.000 NA
ATOM      7  C   UNL     1       0.619   8.906  20.938  0.00  0.00    +0.000 A 
ATOM      8  C   UNL     1      -0.319   9.703  21.662  0.00  0.00    +0.000 A 
ATOM      9  C   UNL     1      -0.718  10.898  21.168  0.00  0.00    +0.000 A 
ATOM     10  C   UNL     1      -0.190  11.392  19.899  0.00  0.00    +0.000 A 
ATOM     11  C   UNL     1       0.702  10.650  19.216  0.00  0.00    +0.000 A 
ATOM     12  N   UNL     1       1.093   9.420  19.727  0.00  0.00    +0.000 N 
ATOM     13  N   UNL     1       2.594   6.266  19.890  0.00  0.00    +0.000 N 
ATOM     14  C   UNL     1       3.300   6.112  18.693  0.00  0.00    +0.000 A 
ATOM     15  O   UNL     1       3.793   5.028  18.374  0.00  0.00    +0.000 OA
ENDROOT
BRANCH   9  16
ATOM     16  O   UNL     1      -1.622  11.769  21.720  0.00  0.00    +0.000 OA
ATOM     17  C   UNL     1      -1.175  12.576  22.803  0.00  0.00    +0.000 C 
ENDBRANCH   9  16
BRANCH   1  18
ATOM     18  C   UNL     1       4.259   7.150  16.673  0.00  0.00    +0.000 C 
BRANCH  18  19
ATOM     19  C   UNL     1       5.763   7.077  16.988  0.00  0.00    +0.000 C 
BRANCH  19  20
ATOM     20  C   UNL     1       6.447   5.874  16.340  0.00  0.00    +0.000 C 
BRANCH  20  22
ATOM     21  C   UNL     1       6.303   4.415  14.296  0.00  0.00    +0.000 C 
ATOM     22  C   UNL     1       5.515   5.165  15.358  0.00  0.00    +0.000 C 
ENDBRANCH  20  22
ENDBRANCH  19  20
ENDBRANCH  18  19
ENDBRANCH   1  18
BRANCH  13  23
ATOM     23  C   UNL     1       2.591   5.183  20.872  0.00  0.00    +0.000 C 
BRANCH  23  24
ATOM     24  C   UNL     1       2.141   3.873  20.256  0.00  0.00    +0.000 A 
ATOM     25  C   UNL     1       3.043   2.807  20.120  0.00  0.00    +0.000 A 
ATOM     26  C   UNL     1       2.668   1.640  19.452  0.00  0.00    +0.000 A 
ATOM     27  C   UNL     1       1.386   1.524  18.918  0.00  0.00    +0.000 A 
ATOM     28  C   UNL     1       0.469   2.561  19.076  0.00  0.00    +0.000 A 
ATOM     29  C   UNL     1       0.844   3.731  19.743  0.00  0.00    +0.000 A 
ENDBRANCH  23  24
ENDBRANCH  13  23
TORSDOF 7
ENDMDL
MODEL 9
REMARK VINA RESULT:      -6.6      6.033     10.493
REMARK  Name = 
REMARK  9 active torsions:
REMARK  status: ('A' for Active; 'I' for Inactive)
REMARK    1  A    between atoms: C_1  and  C_2
REMARK    2  A    between atoms: C_2  and  C_3
REMARK    3  A    between atoms: C_3  and  C_4
REMARK    4  A    between atoms: C_4  and  C_5
REMARK    5  A    between atoms: C_5  and  N_6
REMARK    6  A    between atoms: C_14  and  O_15
REMARK    7  A    between atoms: O_15  and  C_16
REMARK    8  A    between atoms: N_20  and  C_21
REMARK    9  A    between atoms: C_21  and  C_22
REMARK                            x       y       z     vdW  Elec       q    Type
REMARK                         _______ _______ _______ _____ _____    ______ ____
ROOT
ATOM      1  N   UNL     1      -2.252  12.691  21.471  0.00  0.00    +0.000 N 
ATOM      2  C   UNL     1      -3.187  12.456  20.456  0.00  0.00    +0.000 A 
ATOM      3  O   UNL     1      -4.375  12.747  20.540  0.00  0.00    +0.000 OA
ATOM      4  C   UNL     1      -2.620  11.853  19.304  0.00  0.00    +0.000 A 
ATOM      5  C   UNL     1      -1.297  11.552  19.196  0.00  0.00    +0.000 A 
ATOM      6  N   UNL     1      -0.998  10.981  17.994  0.00  0.00    +0.000 NA
ATOM      7  C   UNL     1      -2.147  10.962  17.346  0.00  0.00    +0.000 A 
ATOM      8  C   UNL     1      -2.468  10.531  16.023  0.00  0.00    +0.000 A 
ATOM      9  C   UNL     1      -3.734  10.649  15.559  0.00  0.00    +0.000 A 
ATOM     10  C   UNL     1      -4.787  11.204  16.405  0.00  0.00    +0.000 A 
ATOM     11  C   UNL     1      -4.493  11.603  17.657  0.00  0.00    +0.000 A 
ATOM     12  N   UNL     1      -3.188  11.490  18.116  0.00  0.00    +0.000 N 
ATOM     13  N   UNL     1      -0.400  11.866  20.192  0.00  0.00    +0.000 N 
ATOM     14  C   UNL     1      -0.857  12.531  21.334  0.00  0.00    +0.000 A 
ATOM     15  O   UNL     1      -0.071  12.967  22.179  0.00  0.00    +0.000 OA
ENDROOT
BRANCH   9  16
ATOM     16  O   UNL     1      -4.201  10.308  14.316  0.00  0.00    +0.000 OA
ATOM     17  C   UNL     1      -3.256   9.816  13.374  0.00  0.00    +0.000 C 
ENDBRANCH   9  16
BRANCH   1  18
ATOM     18  C   UNL     1      -2.761  13.262  22.718  0.00  0.00    +0.000 C 
BRANCH  18  19
ATOM     19  C   UNL     1      -3.071  12.211  23.798  0.00  0.00    +0.000 C 
BRANCH  19  20
ATOM     20  C   UNL     1      -4.341  12.527  24.587  0.00  0.00    +0.000 C 
BRANCH  20  22
ATOM     21  C   UNL     1      -6.716  13.010  23.914  0.00  0.00    +0.000 C 
ATOM     22  C   UNL     1      -5.267  13.456  23.802  0.00  0.00    +0.000 C 
ENDBRANCH  20  22
ENDBRANCH  19  20
ENDBRANCH  18  19
ENDBRANCH   1  18
BRANCH  13  23
ATOM     23  C   UNL     1       1.014  11.514  20.078  0.00  0.00    +0.000 C 
BRANCH  23  24
ATOM     24  C   UNL     1       1.216  10.012  20.079  0.00  0.00    +0.000 A 
ATOM     25  C   UNL     1       0.915   9.257  21.222  0.00  0.00    +0.000 A 
ATOM     26  C   UNL     1       1.206   7.892  21.269  0.00  0.00    +0.000 A 
ATOM     27  C   UNL     1       1.793   7.266  20.172  0.00  0.00    +0.000 A 
ATOM     28  C   UNL     1       2.065   7.997  19.016  0.00  0.00    +0.000 A 
ATOM     29  C   UNL     1       1.777   9.363  18.969  0.00  0.00    +0.000 A 
ENDBRANCH  23  24
ENDBRANCH  13  23
TORSDOF 7
ENDMDL
