MODEL 1
REMARK VINA RESULT:      -7.9      0.000      0.000
REMARK  Name = 
REMARK  9 active torsions:
REMARK  status: ('A' for Active; 'I' for Inactive)
REMARK    1  A    between atoms: C_1  and  O_2
REMARK    2  A    between atoms: O_2  and  C_3
REMARK    3  A    between atoms: C_6  and  C_7
REMARK    4  A    between atoms: C_9  and  C_10
REMARK    5  A    between atoms: C_10  and  O_12
REMARK    6  A    between atoms: O_12  and  C_13
REMARK    7  A    between atoms: C_13  and  C_14
REMARK    8  A    between atoms: C_23  and  O_24
REMARK    9  A    between atoms: O_24  and  C_25
REMARK                            x       y       z     vdW  Elec       q    Type
REMARK                         _______ _______ _______ _____ _____    ______ ____
ROOT
ATOM      1  C   UNL     1       8.391   8.698  18.394  0.00  0.00    +0.000 A 
ATOM      2  N   UNL     1       8.514   7.474  18.878  0.00  0.00    +0.000 NA
ATOM      3  C   UNL     1       7.699   6.702  18.060  0.00  0.00    +0.000 A 
ATOM      4  C   UNL     1       7.131   7.516  17.108  0.00  0.00    +0.000 A 
ATOM      5  O   UNL     1       7.560   8.786  17.307  0.00  0.00    +0.000 OA
ENDROOT
BRANCH   1   9
ATOM      6  C   UNL     1      10.350  12.307  19.623  0.00  0.00    +0.000 A 
ATOM      7  C   UNL     1       9.836  11.401  20.568  0.00  0.00    +0.000 A 
ATOM      8  C   UNL     1       9.204  10.220  20.173  0.00  0.00    +0.000 A 
ATOM      9  C   UNL     1       9.008   9.949  18.821  0.00  0.00    +0.000 A 
ATOM     10  C   UNL     1       9.427  10.910  17.887  0.00  0.00    +0.000 A 
ATOM     11  C   UNL     1      10.088  12.089  18.264  0.00  0.00    +0.000 A 
BRANCH   6  13
ATOM     12  C   UNL     1      10.431  14.255  20.962  0.00  0.00    +0.000 C 
ATOM     13  O   UNL     1      11.081  13.395  20.018  0.00  0.00    +0.000 OA
ENDBRANCH   6  13
BRANCH  11  14
ATOM     14  O   UNL     1      10.414  12.838  17.168  0.00  0.00    +0.000 OA
ATOM     15  C   UNL     1      11.763  13.171  16.899  0.00  0.00    +0.000 C 
ENDBRANCH  11  14
ENDBRANCH   1   9
BRANCH   3  16
ATOM     16  C   UNL     1       7.456   5.280  18.170  0.00  0.00    +0.000 C 
ATOM     17  O   UNL     1       7.827   4.501  17.294  0.00  0.00    +0.000 OA
BRANCH  16  18
ATOM     18  O   UNL     1       6.764   4.921  19.283  0.00  0.00    +0.000 OA
BRANCH  18  19
ATOM     19  C   UNL     1       5.394   5.336  19.323  0.00  0.00    +0.000 C 
BRANCH  19  20
ATOM     20  C   UNL     1       4.513   4.227  18.807  0.00  0.00    +0.000 A 
ATOM     21  C   UNL     1       4.484   2.983  19.450  0.00  0.00    +0.000 A 
ATOM     22  C   UNL     1       3.675   1.953  18.963  0.00  0.00    +0.000 A 
ATOM     23  C   UNL     1       2.886   2.160  17.832  0.00  0.00    +0.000 A 
ATOM     24  C   UNL     1       2.901   3.397  17.191  0.00  0.00    +0.000 A 
ATOM     25  C   UNL     1       3.709   4.426  17.675  0.00  0.00    +0.000 A 
ENDBRANCH  19  20
ENDBRANCH  18  19
ENDBRANCH  16  18
ENDBRANCH   3  16
TORSDOF 7
ENDMDL
MODEL 2
REMARK VINA RESULT:      -7.8      1.055      1.227
REMARK  Name = 
REMARK  9 active torsions:
REMARK  status: ('A' for Active; 'I' for Inactive)
REMARK    1  A    between atoms: C_1  and  O_2
REMARK    2  A    between atoms: O_2  and  C_3
REMARK    3  A    between atoms: C_6  and  C_7
REMARK    4  A    between atoms: C_9  and  C_10
REMARK    5  A    between atoms: C_10  and  O_12
REMARK    6  A    between atoms: O_12  and  C_13
REMARK    7  A    between atoms: C_13  and  C_14
REMARK    8  A    between atoms: C_23  and  O_24
REMARK    9  A    between atoms: O_24  and  C_25
REMARK                            x       y       z     vdW  Elec       q    Type
REMARK                         _______ _______ _______ _____ _____    ______ ____
ROOT
ATOM      1  C   UNL     1       8.088   8.507  18.083  0.00  0.00    +0.000 A 
ATOM      2  N   UNL     1       8.386   7.323  18.589  0.00  0.00    +0.000 NA
ATOM      3  C   UNL     1       7.590   6.439  17.874  0.00  0.00    +0.000 A 
ATOM      4  C   UNL     1       6.853   7.150  16.955  0.00  0.00    +0.000 A 
ATOM      5  O   UNL     1       7.159   8.464  17.076  0.00  0.00    +0.000 OA
ENDROOT
BRANCH   1   9
ATOM      6  C   UNL     1       9.704  12.385  18.931  0.00  0.00    +0.000 A 
ATOM      7  C   UNL     1      10.068  11.264  19.698  0.00  0.00    +0.000 A 
ATOM      8  C   UNL     1       9.550   9.996  19.420  0.00  0.00    +0.000 A 
ATOM      9  C   UNL     1       8.602   9.832  18.413  0.00  0.00    +0.000 A 
ATOM     10  C   UNL     1       8.164  10.975  17.725  0.00  0.00    +0.000 A 
ATOM     11  C   UNL     1       8.693  12.251  17.971  0.00  0.00    +0.000 A 
BRANCH   6  13
ATOM     12  C   UNL     1      10.099  14.186  20.413  0.00  0.00    +0.000 C 
ATOM     13  O   UNL     1      10.314  13.596  19.126  0.00  0.00    +0.000 OA
ENDBRANCH   6  13
BRANCH  11  14
ATOM     14  O   UNL     1       8.121  13.183  17.152  0.00  0.00    +0.000 OA
ATOM     15  C   UNL     1       7.191  14.119  17.665  0.00  0.00    +0.000 C 
ENDBRANCH  11  14
ENDBRANCH   1   9
BRANCH   3  16
ATOM     16  C   UNL     1       7.513   5.003  18.048  0.00  0.00    +0.000 C 
ATOM     17  O   UNL     1       8.015   4.235  17.231  0.00  0.00    +0.000 OA
BRANCH  16  18
ATOM     18  O   UNL     1       6.816   4.617  19.149  0.00  0.00    +0.000 OA
BRANCH  18  19
ATOM     19  C   UNL     1       5.486   5.136  19.257  0.00  0.00    +0.000 C 
BRANCH  19  20
ATOM     20  C   UNL     1       4.499   4.110  18.763  0.00  0.00    +0.000 A 
ATOM     21  C   UNL     1       4.330   2.898  19.446  0.00  0.00    +0.000 A 
ATOM     22  C   UNL     1       3.423   1.943  18.980  0.00  0.00    +0.000 A 
ATOM     23  C   UNL     1       2.674   2.194  17.831  0.00  0.00    +0.000 A 
ATOM     24  C   UNL     1       2.827   3.399  17.151  0.00  0.00    +0.000 A 
ATOM     25  C   UNL     1       3.733   4.353  17.614  0.00  0.00    +0.000 A 
ENDBRANCH  19  20
ENDBRANCH  18  19
ENDBRANCH  16  18
ENDBRANCH   3  16
TORSDOF 7
ENDMDL
MODEL 3
REMARK VINA RESULT:      -7.7      2.029      2.368
REMARK  Name = 
REMARK  9 active torsions:
REMARK  status: ('A' for Active; 'I' for Inactive)
REMARK    1  A    between atoms: C_1  and  O_2
REMARK    2  A    between atoms: O_2  and  C_3
REMARK    3  A    between atoms: C_6  and  C_7
REMARK    4  A    between atoms: C_9  and  C_10
REMARK    5  A    between atoms: C_10  and  O_12
REMARK    6  A    between atoms: O_12  and  C_13
REMARK    7  A    between atoms: C_13  and  C_14
REMARK    8  A    between atoms: C_23  and  O_24
REMARK    9  A    between atoms: O_24  and  C_25
REMARK                            x       y       z     vdW  Elec       q    Type
REMARK                         _______ _______ _______ _____ _____    ______ ____
ROOT
ATOM      1  C   UNL     1       7.974   8.650  17.996  0.00  0.00    +0.000 A 
ATOM      2  N   UNL     1       7.006   8.351  17.146  0.00  0.00    +0.000 NA
ATOM      3  C   UNL     1       6.822   6.985  17.310  0.00  0.00    +0.000 A 
ATOM      4  C   UNL     1       7.696   6.533  18.271  0.00  0.00    +0.000 A 
ATOM      5  O   UNL     1       8.434   7.578  18.716  0.00  0.00    +0.000 OA
ENDROOT
BRANCH   1   9
ATOM      6  C   UNL     1       9.927  12.392  18.741  0.00  0.00    +0.000 A 
ATOM      7  C   UNL     1      10.293  11.230  19.443  0.00  0.00    +0.000 A 
ATOM      8  C   UNL     1       9.665  10.006  19.198  0.00  0.00    +0.000 A 
ATOM      9  C   UNL     1       8.607   9.931  18.295  0.00  0.00    +0.000 A 
ATOM     10  C   UNL     1       8.178  11.117  17.679  0.00  0.00    +0.000 A 
ATOM     11  C   UNL     1       8.814  12.349  17.891  0.00  0.00    +0.000 A 
BRANCH   6  13
ATOM     12  C   UNL     1      11.772  13.468  19.758  0.00  0.00    +0.000 C 
ATOM     13  O   UNL     1      10.634  13.555  18.892  0.00  0.00    +0.000 OA
ENDBRANCH   6  13
BRANCH  11  14
ATOM     14  O   UNL     1       8.223  13.337  17.155  0.00  0.00    +0.000 OA
ATOM     15  C   UNL     1       7.120  14.058  17.673  0.00  0.00    +0.000 C 
ENDBRANCH  11  14
ENDBRANCH   1   9
BRANCH   3  16
ATOM     16  C   UNL     1       5.885   6.143  16.596  0.00  0.00    +0.000 C 
ATOM     17  O   UNL     1       5.920   6.048  15.371  0.00  0.00    +0.000 OA
BRANCH  16  18
ATOM     18  O   UNL     1       4.976   5.527  17.396  0.00  0.00    +0.000 OA
BRANCH  18  19
ATOM     19  C   UNL     1       3.797   6.285  17.693  0.00  0.00    +0.000 C 
BRANCH  19  20
ATOM     20  C   UNL     1       2.836   5.438  18.487  0.00  0.00    +0.000 A 
ATOM     21  C   UNL     1       2.214   4.327  17.903  0.00  0.00    +0.000 A 
ATOM     22  C   UNL     1       1.315   3.551  18.638  0.00  0.00    +0.000 A 
ATOM     23  C   UNL     1       1.034   3.876  19.964  0.00  0.00    +0.000 A 
ATOM     24  C   UNL     1       1.654   4.973  20.558  0.00  0.00    +0.000 A 
ATOM     25  C   UNL     1       2.551   5.750  19.825  0.00  0.00    +0.000 A 
ENDBRANCH  19  20
ENDBRANCH  18  19
ENDBRANCH  16  18
ENDBRANCH   3  16
TORSDOF 7
ENDMDL
MODEL 4
REMARK VINA RESULT:      -7.6      6.134      9.475
REMARK  Name = 
REMARK  9 active torsions:
REMARK  status: ('A' for Active; 'I' for Inactive)
REMARK    1  A    between atoms: C_1  and  O_2
REMARK    2  A    between atoms: O_2  and  C_3
REMARK    3  A    between atoms: C_6  and  C_7
REMARK    4  A    between atoms: C_9  and  C_10
REMARK    5  A    between atoms: C_10  and  O_12
REMARK    6  A    between atoms: O_12  and  C_13
REMARK    7  A    between atoms: C_13  and  C_14
REMARK    8  A    between atoms: C_23  and  O_24
REMARK    9  A    between atoms: O_24  and  C_25
REMARK                            x       y       z     vdW  Elec       q    Type
REMARK                         _______ _______ _______ _____ _____    ______ ____
ROOT
ATOM      1  C   UNL     1       2.675   7.172  18.663  0.00  0.00    +0.000 A 
ATOM      2  N   UNL     1       2.208   8.381  18.403  0.00  0.00    +0.000 NA
ATOM      3  C   UNL     1       1.528   8.736  19.561  0.00  0.00    +0.000 A 
ATOM      4  C   UNL     1       1.636   7.709  20.470  0.00  0.00    +0.000 A 
ATOM      5  O   UNL     1       2.361   6.709  19.914  0.00  0.00    +0.000 OA
ENDROOT
BRANCH   1   9
ATOM      6  C   UNL     1       5.136   4.512  16.372  0.00  0.00    +0.000 A 
ATOM      7  C   UNL     1       5.234   5.906  16.217  0.00  0.00    +0.000 A 
ATOM      8  C   UNL     1       4.440   6.778  16.967  0.00  0.00    +0.000 A 
ATOM      9  C   UNL     1       3.479   6.273  17.840  0.00  0.00    +0.000 A 
ATOM     10  C   UNL     1       3.313   4.881  17.908  0.00  0.00    +0.000 A 
ATOM     11  C   UNL     1       4.120   3.991  17.183  0.00  0.00    +0.000 A 
BRANCH   6  13
ATOM     12  C   UNL     1       6.194   3.939  14.336  0.00  0.00    +0.000 C 
ATOM     13  O   UNL     1       6.006   3.672  15.731  0.00  0.00    +0.000 OA
ENDBRANCH   6  13
BRANCH  11  14
ATOM     14  O   UNL     1       3.775   2.694  17.447  0.00  0.00    +0.000 OA
ATOM     15  C   UNL     1       2.460   2.369  17.858  0.00  0.00    +0.000 C 
ENDBRANCH  11  14
ENDBRANCH   1   9
BRANCH   3  16
ATOM     16  C   UNL     1       0.806   9.968  19.801  0.00  0.00    +0.000 C 
ATOM     17  O   UNL     1       0.902  10.564  20.872  0.00  0.00    +0.000 OA
BRANCH  16  18
ATOM     18  O   UNL     1       0.012  10.353  18.768  0.00  0.00    +0.000 OA
BRANCH  18  19
ATOM     19  C   UNL     1      -1.303  10.793  19.126  0.00  0.00    +0.000 C 
BRANCH  19  20
ATOM     20  C   UNL     1      -2.205  10.729  17.921  0.00  0.00    +0.000 A 
ATOM     21  C   UNL     1      -1.899   9.885  16.845  0.00  0.00    +0.000 A 
ATOM     22  C   UNL     1      -2.731   9.836  15.724  0.00  0.00    +0.000 A 
ATOM     23  C   UNL     1      -3.878  10.627  15.671  0.00  0.00    +0.000 A 
ATOM     24  C   UNL     1      -4.197  11.462  16.738  0.00  0.00    +0.000 A 
ATOM     25  C   UNL     1      -3.366  11.514  17.858  0.00  0.00    +0.000 A 
ENDBRANCH  19  20
ENDBRANCH  18  19
ENDBRANCH  16  18
ENDBRANCH   3  16
TORSDOF 7
ENDMDL
MODEL 5
REMARK VINA RESULT:      -7.6      0.857      2.159
REMARK  Name = 
REMARK  9 active torsions:
REMARK  status: ('A' for Active; 'I' for Inactive)
REMARK    1  A    between atoms: C_1  and  O_2
REMARK    2  A    between atoms: O_2  and  C_3
REMARK    3  A    between atoms: C_6  and  C_7
REMARK    4  A    between atoms: C_9  and  C_10
REMARK    5  A    between atoms: C_10  and  O_12
REMARK    6  A    between atoms: O_12  and  C_13
REMARK    7  A    between atoms: C_13  and  C_14
REMARK    8  A    between atoms: C_23  and  O_24
REMARK    9  A    between atoms: O_24  and  C_25
REMARK                            x       y       z     vdW  Elec       q    Type
REMARK                         _______ _______ _______ _____ _____    ______ ____
ROOT
ATOM      1  C   UNL     1       8.386   8.715  18.381  0.00  0.00    +0.000 A 
ATOM      2  N   UNL     1       8.523   7.502  18.888  0.00  0.00    +0.000 NA
ATOM      3  C   UNL     1       7.677   6.716  18.117  0.00  0.00    +0.000 A 
ATOM      4  C   UNL     1       7.077   7.510  17.168  0.00  0.00    +0.000 A 
ATOM      5  O   UNL     1       7.516   8.782  17.323  0.00  0.00    +0.000 OA
ENDROOT
BRANCH   1   9
ATOM      6  C   UNL     1      10.106  12.483  19.485  0.00  0.00    +0.000 A 
ATOM      7  C   UNL     1      10.146  12.029  18.155  0.00  0.00    +0.000 A 
ATOM      8  C   UNL     1       9.580  10.805  17.788  0.00  0.00    +0.000 A 
ATOM      9  C   UNL     1       9.021   9.974  18.757  0.00  0.00    +0.000 A 
ATOM     10  C   UNL     1       9.082  10.387  20.097  0.00  0.00    +0.000 A 
ATOM     11  C   UNL     1       9.621  11.625  20.480  0.00  0.00    +0.000 A 
BRANCH   6  13
ATOM     12  C   UNL     1       9.567  14.778  19.689  0.00  0.00    +0.000 C 
ATOM     13  O   UNL     1      10.546  13.739  19.811  0.00  0.00    +0.000 OA
ENDBRANCH   6  13
BRANCH  11  14
ATOM     14  O   UNL     1       9.535  11.797  21.833  0.00  0.00    +0.000 OA
ATOM     15  C   UNL     1       8.331  12.251  22.425  0.00  0.00    +0.000 C 
ENDBRANCH  11  14
ENDBRANCH   1   9
BRANCH   3  16
ATOM     16  C   UNL     1       7.434   5.296  18.267  0.00  0.00    +0.000 C 
ATOM     17  O   UNL     1       7.898   4.483  17.470  0.00  0.00    +0.000 OA
BRANCH  16  18
ATOM     18  O   UNL     1       6.636   4.981  19.321  0.00  0.00    +0.000 OA
BRANCH  18  19
ATOM     19  C   UNL     1       5.277   5.423  19.225  0.00  0.00    +0.000 C 
BRANCH  19  20
ATOM     20  C   UNL     1       4.405   4.286  18.761  0.00  0.00    +0.000 A 
ATOM     21  C   UNL     1       3.500   4.466  17.706  0.00  0.00    +0.000 A 
ATOM     22  C   UNL     1       2.685   3.413  17.286  0.00  0.00    +0.000 A 
ATOM     23  C   UNL     1       2.769   2.170  17.913  0.00  0.00    +0.000 A 
ATOM     24  C   UNL     1       3.672   1.978  18.956  0.00  0.00    +0.000 A 
ATOM     25  C   UNL     1       4.487   3.028  19.378  0.00  0.00    +0.000 A 
ENDBRANCH  19  20
ENDBRANCH  18  19
ENDBRANCH  16  18
ENDBRANCH   3  16
TORSDOF 7
ENDMDL
MODEL 6
REMARK VINA RESULT:      -7.6      5.769      7.198
REMARK  Name = 
REMARK  9 active torsions:
REMARK  status: ('A' for Active; 'I' for Inactive)
REMARK    1  A    between atoms: C_1  and  O_2
REMARK    2  A    between atoms: O_2  and  C_3
REMARK    3  A    between atoms: C_6  and  C_7
REMARK    4  A    between atoms: C_9  and  C_10
REMARK    5  A    between atoms: C_10  and  O_12
REMARK    6  A    between atoms: O_12  and  C_13
REMARK    7  A    between atoms: C_13  and  C_14
REMARK    8  A    between atoms: C_23  and  O_24
REMARK    9  A    between atoms: O_24  and  C_25
REMARK                            x       y       z     vdW  Elec       q    Type
REMARK                         _______ _______ _______ _____ _____    ______ ____
ROOT
ATOM      1  C   UNL     1       2.696   7.254  18.606  0.00  0.00    +0.000 A 
ATOM      2  N   UNL     1       2.795   5.936  18.592  0.00  0.00    +0.000 NA
ATOM      3  C   UNL     1       3.760   5.678  17.628  0.00  0.00    +0.000 A 
ATOM      4  C   UNL     1       4.203   6.875  17.115  0.00  0.00    +0.000 A 
ATOM      5  O   UNL     1       3.537   7.884  17.725  0.00  0.00    +0.000 OA
ENDROOT
BRANCH   1   9
ATOM      6  C   UNL     1       0.356   9.923  21.009  0.00  0.00    +0.000 A 
ATOM      7  C   UNL     1       0.828   8.704  21.527  0.00  0.00    +0.000 A 
ATOM      8  C   UNL     1       1.598   7.834  20.751  0.00  0.00    +0.000 A 
ATOM      9  C   UNL     1       1.855   8.131  19.414  0.00  0.00    +0.000 A 
ATOM     10  C   UNL     1       1.288   9.296  18.874  0.00  0.00    +0.000 A 
ATOM     11  C   UNL     1       0.536  10.195  19.647  0.00  0.00    +0.000 A 
BRANCH   6  13
ATOM     12  C   UNL     1      -0.822  10.288  23.027  0.00  0.00    +0.000 C 
ATOM     13  O   UNL     1      -0.286  10.826  21.813  0.00  0.00    +0.000 OA
ENDBRANCH   6  13
BRANCH  11  14
ATOM     14  O   UNL     1       0.124  11.259  18.894  0.00  0.00    +0.000 OA
ATOM     15  C   UNL     1      -1.198  11.317  18.393  0.00  0.00    +0.000 C 
ENDBRANCH  11  14
ENDBRANCH   1   9
BRANCH   3  16
ATOM     16  C   UNL     1       4.236   4.379  17.201  0.00  0.00    +0.000 C 
ATOM     17  O   UNL     1       5.438   4.151  17.075  0.00  0.00    +0.000 OA
BRANCH  16  18
ATOM     18  O   UNL     1       3.245   3.490  16.928  0.00  0.00    +0.000 OA
BRANCH  18  19
ATOM     19  C   UNL     1       3.262   2.285  17.702  0.00  0.00    +0.000 C 
BRANCH  19  20
ATOM     20  C   UNL     1       2.594   2.526  19.031  0.00  0.00    +0.000 A 
ATOM     21  C   UNL     1       1.222   2.803  19.099  0.00  0.00    +0.000 A 
ATOM     22  C   UNL     1       0.608   3.038  20.332  0.00  0.00    +0.000 A 
ATOM     23  C   UNL     1       1.358   2.994  21.505  0.00  0.00    +0.000 A 
ATOM     24  C   UNL     1       2.721   2.710  21.450  0.00  0.00    +0.000 A 
ATOM     25  C   UNL     1       3.337   2.477  20.220  0.00  0.00    +0.000 A 
ENDBRANCH  19  20
ENDBRANCH  18  19
ENDBRANCH  16  18
ENDBRANCH   3  16
TORSDOF 7
ENDMDL
MODEL 7
REMARK VINA RESULT:      -7.6      4.355      7.435
REMARK  Name = 
REMARK  9 active torsions:
REMARK  status: ('A' for Active; 'I' for Inactive)
REMARK    1  A    between atoms: C_1  and  O_2
REMARK    2  A    between atoms: O_2  and  C_3
REMARK    3  A    between atoms: C_6  and  C_7
REMARK    4  A    between atoms: C_9  and  C_10
REMARK    5  A    between atoms: C_10  and  O_12
REMARK    6  A    between atoms: O_12  and  C_13
REMARK    7  A    between atoms: C_13  and  C_14
REMARK    8  A    between atoms: C_23  and  O_24
REMARK    9  A    between atoms: O_24  and  C_25
REMARK                            x       y       z     vdW  Elec       q    Type
REMARK                         _______ _______ _______ _____ _____    ______ ____
ROOT
ATOM      1  C   UNL     1       3.825   4.073  17.415  0.00  0.00    +0.000 A 
ATOM      2  N   UNL     1       3.696   4.253  18.719  0.00  0.00    +0.000 NA
ATOM      3  C   UNL     1       2.413   3.802  18.998  0.00  0.00    +0.000 A 
ATOM      4  C   UNL     1       1.836   3.359  17.830  0.00  0.00    +0.000 A 
ATOM      5  O   UNL     1       2.720   3.525  16.817  0.00  0.00    +0.000 OA
ENDROOT
BRANCH   1   9
ATOM      6  C   UNL     1       7.050   5.002  14.749  0.00  0.00    +0.000 A 
ATOM      7  C   UNL     1       6.169   3.939  14.481  0.00  0.00    +0.000 A 
ATOM      8  C   UNL     1       5.112   3.637  15.342  0.00  0.00    +0.000 A 
ATOM      9  C   UNL     1       4.952   4.348  16.530  0.00  0.00    +0.000 A 
ATOM     10  C   UNL     1       5.900   5.335  16.842  0.00  0.00    +0.000 A 
ATOM     11  C   UNL     1       6.951   5.670  15.976  0.00  0.00    +0.000 A 
BRANCH   6  13
ATOM     12  C   UNL     1       7.699   5.048  12.475  0.00  0.00    +0.000 C 
ATOM     13  O   UNL     1       8.002   5.372  13.837  0.00  0.00    +0.000 OA
ENDBRANCH   6  13
BRANCH  11  14
ATOM     14  O   UNL     1       7.713   6.677  16.500  0.00  0.00    +0.000 OA
ATOM     15  C   UNL     1       7.474   7.153  17.811  0.00  0.00    +0.000 C 
ENDBRANCH  11  14
ENDBRANCH   1   9
BRANCH   3  16
ATOM     16  C   UNL     1       1.756   3.796  20.288  0.00  0.00    +0.000 C 
ATOM     17  O   UNL     1       1.684   2.770  20.961  0.00  0.00    +0.000 OA
BRANCH  16  18
ATOM     18  O   UNL     1       1.215   4.992  20.638  0.00  0.00    +0.000 OA
BRANCH  18  19
ATOM     19  C   UNL     1       2.152   6.019  20.987  0.00  0.00    +0.000 C 
BRANCH  19  20
ATOM     20  C   UNL     1       1.871   7.258  20.177  0.00  0.00    +0.000 A 
ATOM     21  C   UNL     1       1.098   8.298  20.710  0.00  0.00    +0.000 A 
ATOM     22  C   UNL     1       0.830   9.440  19.953  0.00  0.00    +0.000 A 
ATOM     23  C   UNL     1       1.336   9.555  18.659  0.00  0.00    +0.000 A 
ATOM     24  C   UNL     1       2.115   8.532  18.123  0.00  0.00    +0.000 A 
ATOM     25  C   UNL     1       2.382   7.389  18.878  0.00  0.00    +0.000 A 
ENDBRANCH  19  20
ENDBRANCH  18  19
ENDBRANCH  16  18
ENDBRANCH   3  16
TORSDOF 7
ENDMDL
MODEL 8
REMARK VINA RESULT:      -7.5      1.620      2.444
REMARK  Name = 
REMARK  9 active torsions:
REMARK  status: ('A' for Active; 'I' for Inactive)
REMARK    1  A    between atoms: C_1  and  O_2
REMARK    2  A    between atoms: O_2  and  C_3
REMARK    3  A    between atoms: C_6  and  C_7
REMARK    4  A    between atoms: C_9  and  C_10
REMARK    5  A    between atoms: C_10  and  O_12
REMARK    6  A    between atoms: O_12  and  C_13
REMARK    7  A    between atoms: C_13  and  C_14
REMARK    8  A    between atoms: C_23  and  O_24
REMARK    9  A    between atoms: O_24  and  C_25
REMARK                            x       y       z     vdW  Elec       q    Type
REMARK                         _______ _______ _______ _____ _____    ______ ____
ROOT
ATOM      1  C   UNL     1       8.180   8.608  18.073  0.00  0.00    +0.000 A 
ATOM      2  N   UNL     1       7.513   8.085  17.060  0.00  0.00    +0.000 NA
ATOM      3  C   UNL     1       7.433   6.734  17.369  0.00  0.00    +0.000 A 
ATOM      4  C   UNL     1       8.057   6.518  18.576  0.00  0.00    +0.000 A 
ATOM      5  O   UNL     1       8.537   7.699  19.035  0.00  0.00    +0.000 OA
ENDROOT
BRANCH   1   9
ATOM      6  C   UNL     1       9.205  12.684  18.918  0.00  0.00    +0.000 A 
ATOM      7  C   UNL     1       8.656  12.316  17.677  0.00  0.00    +0.000 A 
ATOM      8  C   UNL     1       8.314  10.990  17.399  0.00  0.00    +0.000 A 
ATOM      9  C   UNL     1       8.576   9.989  18.332  0.00  0.00    +0.000 A 
ATOM     10  C   UNL     1       9.223  10.350  19.525  0.00  0.00    +0.000 A 
ATOM     11  C   UNL     1       9.549  11.680  19.831  0.00  0.00    +0.000 A 
BRANCH   6  13
ATOM     12  C   UNL     1      10.137  14.751  18.244  0.00  0.00    +0.000 C 
ATOM     13  O   UNL     1       9.416  14.001  19.229  0.00  0.00    +0.000 OA
ENDBRANCH   6  13
BRANCH  11  14
ATOM     14  O   UNL     1      10.144  11.765  21.059  0.00  0.00    +0.000 OA
ATOM     15  C   UNL     1       9.441  12.305  22.163  0.00  0.00    +0.000 C 
ENDBRANCH  11  14
ENDBRANCH   1   9
BRANCH   3  16
ATOM     16  C   UNL     1       6.814   5.695  16.572  0.00  0.00    +0.000 C 
ATOM     17  O   UNL     1       7.491   4.847  15.994  0.00  0.00    +0.000 OA
BRANCH  16  18
ATOM     18  O   UNL     1       5.460   5.785  16.504  0.00  0.00    +0.000 OA
BRANCH  18  19
ATOM     19  C   UNL     1       4.778   5.847  17.762  0.00  0.00    +0.000 C 
BRANCH  19  20
ATOM     20  C   UNL     1       3.767   4.733  17.848  0.00  0.00    +0.000 A 
ATOM     21  C   UNL     1       2.397   5.017  17.920  0.00  0.00    +0.000 A 
ATOM     22  C   UNL     1       1.463   3.982  18.011  0.00  0.00    +0.000 A 
ATOM     23  C   UNL     1       1.890   2.655  18.026  0.00  0.00    +0.000 A 
ATOM     24  C   UNL     1       3.249   2.361  17.945  0.00  0.00    +0.000 A 
ATOM     25  C   UNL     1       4.184   3.393  17.856  0.00  0.00    +0.000 A 
ENDBRANCH  19  20
ENDBRANCH  18  19
ENDBRANCH  16  18
ENDBRANCH   3  16
TORSDOF 7
ENDMDL
MODEL 9
REMARK VINA RESULT:      -7.5      5.671      6.770
REMARK  Name = 
REMARK  9 active torsions:
REMARK  status: ('A' for Active; 'I' for Inactive)
REMARK    1  A    between atoms: C_1  and  O_2
REMARK    2  A    between atoms: O_2  and  C_3
REMARK    3  A    between atoms: C_6  and  C_7
REMARK    4  A    between atoms: C_9  and  C_10
REMARK    5  A    between atoms: C_10  and  O_12
REMARK    6  A    between atoms: O_12  and  C_13
REMARK    7  A    between atoms: C_13  and  C_14
REMARK    8  A    between atoms: C_23  and  O_24
REMARK    9  A    between atoms: O_24  and  C_25
REMARK                            x       y       z     vdW  Elec       q    Type
REMARK                         _______ _______ _______ _____ _____    ______ ____
ROOT
ATOM      1  C   UNL     1       3.033   7.070  18.227  0.00  0.00    +0.000 A 
ATOM      2  N   UNL     1       3.231   5.763  18.241  0.00  0.00    +0.000 NA
ATOM      3  C   UNL     1       4.183   5.554  17.252  0.00  0.00    +0.000 A 
ATOM      4  C   UNL     1       4.519   6.768  16.698  0.00  0.00    +0.000 A 
ATOM      5  O   UNL     1       3.797   7.739  17.306  0.00  0.00    +0.000 OA
ENDROOT
BRANCH   1   9
ATOM      6  C   UNL     1       0.577   9.600  20.665  0.00  0.00    +0.000 A 
ATOM      7  C   UNL     1       0.987   8.332  21.116  0.00  0.00    +0.000 A 
ATOM      8  C   UNL     1       1.794   7.507  20.328  0.00  0.00    +0.000 A 
ATOM      9  C   UNL     1       2.153   7.902  19.042  0.00  0.00    +0.000 A 
ATOM     10  C   UNL     1       1.650   9.120  18.559  0.00  0.00    +0.000 A 
ATOM     11  C   UNL     1       0.862   9.974  19.346  0.00  0.00    +0.000 A 
BRANCH   6  13
ATOM     12  C   UNL     1      -0.297   9.979  22.830  0.00  0.00    +0.000 C 
ATOM     13  O   UNL     1      -0.103  10.453  21.493  0.00  0.00    +0.000 OA
ENDBRANCH   6  13
BRANCH  11  14
ATOM     14  O   UNL     1       0.527  11.104  18.654  0.00  0.00    +0.000 OA
ATOM     15  C   UNL     1       1.337  12.263  18.733  0.00  0.00    +0.000 C 
ENDBRANCH  11  14
ENDBRANCH   1   9
BRANCH   3  16
ATOM     16  C   UNL     1       4.743   4.285  16.840  0.00  0.00    +0.000 C 
ATOM     17  O   UNL     1       5.132   4.104  15.687  0.00  0.00    +0.000 OA
BRANCH  16  18
ATOM     18  O   UNL     1       4.753   3.341  17.818  0.00  0.00    +0.000 OA
BRANCH  18  19
ATOM     19  C   UNL     1       3.662   2.414  17.797  0.00  0.00    +0.000 C 
BRANCH  19  20
ATOM     20  C   UNL     1       2.819   2.594  19.033  0.00  0.00    +0.000 A 
ATOM     21  C   UNL     1       3.409   2.599  20.304  0.00  0.00    +0.000 A 
ATOM     22  C   UNL     1       2.625   2.754  21.449  0.00  0.00    +0.000 A 
ATOM     23  C   UNL     1       1.244   2.910  21.333  0.00  0.00    +0.000 A 
ATOM     24  C   UNL     1       0.648   2.917  20.074  0.00  0.00    +0.000 A 
ATOM     25  C   UNL     1       1.430   2.760  18.930  0.00  0.00    +0.000 A 
ENDBRANCH  19  20
ENDBRANCH  18  19
ENDBRANCH  16  18
ENDBRANCH   3  16
TORSDOF 7
ENDMDL
