MODEL 1
REMARK VINA RESULT:      -7.9      0.000      0.000
REMARK  Name = 
REMARK  6 active torsions:
REMARK  status: ('A' for Active; 'I' for Inactive)
REMARK    1  A    between atoms: C_1  and  N_2
REMARK    2  A    between atoms: C_6  and  C_7
REMARK    3  A    between atoms: C_7  and  N_8
REMARK    4  A    between atoms: N_11  and  C_12
REMARK    5  A    between atoms: N_11  and  C_13
REMARK    6  A    between atoms: C_16  and  C_17
REMARK                            x       y       z     vdW  Elec       q    Type
REMARK                         _______ _______ _______ _____ _____    ______ ____
ROOT
ATOM      1  C   UNL     1       3.241   1.892  17.996  0.00  0.00    +0.000 C 
ATOM      2  N   UNL     1       2.756   3.184  18.525  0.00  0.00    +0.000 NA
ATOM      3  C   UNL     1       1.715   2.883  19.528  0.00  0.00    +0.000 C 
ATOM      4  C   UNL     1       1.159   4.131  20.203  0.00  0.00    +0.000 C 
ATOM      5  C   UNL     1       2.279   4.934  20.852  0.00  0.00    +0.000 C 
ATOM      6  C   UNL     1       3.368   5.301  19.824  0.00  0.00    +0.000 C 
ATOM      7  C   UNL     1       3.861   3.991  19.121  0.00  0.00    +0.000 C 
ENDROOT
BRANCH   7   8
ATOM      8  C   UNL     1       4.997   4.277  18.124  0.00  0.00    +0.000 A 
ATOM      9  C   UNL     1       6.271   4.637  18.598  0.00  0.00    +0.000 A 
ATOM     10  C   UNL     1       7.325   4.859  17.707  0.00  0.00    +0.000 A 
ATOM     11  C   UNL     1       7.119   4.733  16.335  0.00  0.00    +0.000 A 
ATOM     12  C   UNL     1       5.862   4.384  15.855  0.00  0.00    +0.000 A 
ATOM     13 CL   UNL     1       5.606   4.213  14.161  0.00  0.00    +0.000 Cl
ATOM     14  C   UNL     1       4.803   4.162  16.739  0.00  0.00    +0.000 A 
ENDBRANCH   7   8
BRANCH   6  15
ATOM     15  C   UNL     1       2.866   6.409  18.868  0.00  0.00    +0.000 C 
BRANCH  15  16
ATOM     16  N   UNL     1       2.180   7.451  19.649  0.00  0.00    +0.000 NA
ATOM     17  C   UNL     1       1.678   8.474  19.047  0.00  0.00    +0.000 C 
ATOM     18  N   UNL     1       1.674   8.672  17.696  0.00  0.00    +0.000 N 
ATOM     19  N   UNL     1       1.016   9.495  19.714  0.00  0.00    +0.000 N 
ATOM     20  C   UNL     1       0.594   9.319  21.094  0.00  0.00    +0.000 C 
ATOM     21  H   UNL     1       1.843   7.839  17.151  0.00  0.00    +0.000 HD
ATOM     22  H   UNL     1       0.825   9.138  17.400  0.00  0.00    +0.000 HD
BRANCH  19  23
ATOM     23  C   UNL     1       1.290  10.898  19.299  0.00  0.00    +0.000 C 
ATOM     24  C   UNL     1       0.160  11.773  18.824  0.00  0.00    +0.000 C 
ATOM     25  C   UNL     1       0.879  12.110  20.094  0.00  0.00    +0.000 C 
ENDBRANCH  19  23
ENDBRANCH  15  16
ENDBRANCH   6  15
TORSDOF 4
ENDMDL
MODEL 2
REMARK VINA RESULT:      -7.4      1.291      1.618
REMARK  Name = 
REMARK  6 active torsions:
REMARK  status: ('A' for Active; 'I' for Inactive)
REMARK    1  A    between atoms: C_1  and  N_2
REMARK    2  A    between atoms: C_6  and  C_7
REMARK    3  A    between atoms: C_7  and  N_8
REMARK    4  A    between atoms: N_11  and  C_12
REMARK    5  A    between atoms: N_11  and  C_13
REMARK    6  A    between atoms: C_16  and  C_17
REMARK                            x       y       z     vdW  Elec       q    Type
REMARK                         _______ _______ _______ _____ _____    ______ ____
ROOT
ATOM      1  C   UNL     1       3.342   2.082  17.926  0.00  0.00    +0.000 C 
ATOM      2  N   UNL     1       2.710   3.294  18.488  0.00  0.00    +0.000 NA
ATOM      3  C   UNL     1       1.621   2.846  19.380  0.00  0.00    +0.000 C 
ATOM      4  C   UNL     1       0.911   3.999  20.078  0.00  0.00    +0.000 C 
ATOM      5  C   UNL     1       1.904   4.843  20.866  0.00  0.00    +0.000 C 
ATOM      6  C   UNL     1       3.037   5.362  19.958  0.00  0.00    +0.000 C 
ATOM      7  C   UNL     1       3.692   4.144  19.222  0.00  0.00    +0.000 C 
ENDROOT
BRANCH   7   8
ATOM      8  C   UNL     1       4.876   4.584  18.344  0.00  0.00    +0.000 A 
ATOM      9  C   UNL     1       4.914   4.218  16.986  0.00  0.00    +0.000 A 
ATOM     10  C   UNL     1       5.961   4.643  16.164  0.00  0.00    +0.000 A 
ATOM     11  C   UNL     1       6.984   5.432  16.687  0.00  0.00    +0.000 A 
ATOM     12  C   UNL     1       6.959   5.795  18.028  0.00  0.00    +0.000 A 
ATOM     13 CL   UNL     1       8.214   6.781  18.675  0.00  0.00    +0.000 Cl
ATOM     14  C   UNL     1       5.917   5.371  18.857  0.00  0.00    +0.000 A 
ENDBRANCH   7   8
BRANCH   6  15
ATOM     15  C   UNL     1       2.522   6.488  19.030  0.00  0.00    +0.000 C 
BRANCH  15  16
ATOM     16  N   UNL     1       1.904   7.545  19.847  0.00  0.00    +0.000 NA
ATOM     17  C   UNL     1       1.494   8.630  19.283  0.00  0.00    +0.000 C 
ATOM     18  N   UNL     1       1.529   8.885  17.943  0.00  0.00    +0.000 N 
ATOM     19  N   UNL     1       0.900   9.669  19.986  0.00  0.00    +0.000 N 
ATOM     20  C   UNL     1       0.442   9.468  21.350  0.00  0.00    +0.000 C 
ATOM     21  H   UNL     1       1.642   8.066  17.364  0.00  0.00    +0.000 HD
ATOM     22  H   UNL     1       0.724   9.428  17.655  0.00  0.00    +0.000 HD
BRANCH  19  23
ATOM     23  C   UNL     1       1.290  11.064  19.637  0.00  0.00    +0.000 C 
ATOM     24  C   UNL     1       0.267  12.004  19.057  0.00  0.00    +0.000 C 
ATOM     25  C   UNL     1       0.851  12.281  20.408  0.00  0.00    +0.000 C 
ENDBRANCH  19  23
ENDBRANCH  15  16
ENDBRANCH   6  15
TORSDOF 4
ENDMDL
MODEL 3
REMARK VINA RESULT:      -7.1      1.164      1.208
REMARK  Name = 
REMARK  6 active torsions:
REMARK  status: ('A' for Active; 'I' for Inactive)
REMARK    1  A    between atoms: C_1  and  N_2
REMARK    2  A    between atoms: C_6  and  C_7
REMARK    3  A    between atoms: C_7  and  N_8
REMARK    4  A    between atoms: N_11  and  C_12
REMARK    5  A    between atoms: N_11  and  C_13
REMARK    6  A    between atoms: C_16  and  C_17
REMARK                            x       y       z     vdW  Elec       q    Type
REMARK                         _______ _______ _______ _____ _____    ______ ____
ROOT
ATOM      1  C   UNL     1       3.225   2.476  17.711  0.00  0.00    +0.000 C 
ATOM      2  N   UNL     1       2.617   3.587  18.472  0.00  0.00    +0.000 NA
ATOM      3  C   UNL     1       1.581   3.002  19.349  0.00  0.00    +0.000 C 
ATOM      4  C   UNL     1       0.903   4.035  20.240  0.00  0.00    +0.000 C 
ATOM      5  C   UNL     1       1.932   4.773  21.086  0.00  0.00    +0.000 C 
ATOM      6  C   UNL     1       3.010   5.431  20.201  0.00  0.00    +0.000 C 
ATOM      7  C   UNL     1       3.632   4.339  19.267  0.00  0.00    +0.000 C 
ENDROOT
BRANCH   7   8
ATOM      8  C   UNL     1       4.763   4.916  18.397  0.00  0.00    +0.000 A 
ATOM      9  C   UNL     1       6.103   4.759  18.797  0.00  0.00    +0.000 A 
ATOM     10  C   UNL     1       7.143   5.240  17.998  0.00  0.00    +0.000 A 
ATOM     11  C   UNL     1       6.862   5.887  16.798  0.00  0.00    +0.000 A 
ATOM     12  C   UNL     1       5.541   6.053  16.396  0.00  0.00    +0.000 A 
ATOM     13 CL   UNL     1       5.188   6.841  14.906  0.00  0.00    +0.000 Cl
ATOM     14  C   UNL     1       4.495   5.577  17.190  0.00  0.00    +0.000 A 
ENDBRANCH   7   8
BRANCH   6  15
ATOM     15  C   UNL     1       2.437   6.669  19.471  0.00  0.00    +0.000 C 
BRANCH  15  16
ATOM     16  N   UNL     1       1.638   7.464  20.417  0.00  0.00    +0.000 NA
ATOM     17  C   UNL     1       1.208   8.629  20.070  0.00  0.00    +0.000 C 
ATOM     18  N   UNL     1       1.384   9.201  18.843  0.00  0.00    +0.000 N 
ATOM     19  N   UNL     1       0.448   9.436  20.905  0.00  0.00    +0.000 N 
ATOM     20  C   UNL     1      -0.154   8.887  22.109  0.00  0.00    +0.000 C 
ATOM     21  H   UNL     1       1.636   8.553  18.111  0.00  0.00    +0.000 HD
ATOM     22  H   UNL     1       0.577   9.754  18.581  0.00  0.00    +0.000 HD
BRANCH  19  23
ATOM     23  C   UNL     1       0.758  10.892  20.946  0.00  0.00    +0.000 C 
ATOM     24  C   UNL     1      -0.122  11.865  20.207  0.00  0.00    +0.000 C 
ATOM     25  C   UNL     1      -0.058  11.907  21.703  0.00  0.00    +0.000 C 
ENDBRANCH  19  23
ENDBRANCH  15  16
ENDBRANCH   6  15
TORSDOF 4
ENDMDL
MODEL 4
REMARK VINA RESULT:      -6.5      8.586     10.634
REMARK  Name = 
REMARK  6 active torsions:
REMARK  status: ('A' for Active; 'I' for Inactive)
REMARK    1  A    between atoms: C_1  and  N_2
REMARK    2  A    between atoms: C_6  and  C_7
REMARK    3  A    between atoms: C_7  and  N_8
REMARK    4  A    between atoms: N_11  and  C_12
REMARK    5  A    between atoms: N_11  and  C_13
REMARK    6  A    between atoms: C_16  and  C_17
REMARK                            x       y       z     vdW  Elec       q    Type
REMARK                         _______ _______ _______ _____ _____    ______ ____
ROOT
ATOM      1  C   UNL     1      11.989  13.722  16.818  0.00  0.00    +0.000 C 
ATOM      2  N   UNL     1      11.149  14.666  17.583  0.00  0.00    +0.000 NA
ATOM      3  C   UNL     1      11.130  15.941  16.836  0.00  0.00    +0.000 C 
ATOM      4  C   UNL     1      10.249  16.999  17.486  0.00  0.00    +0.000 C 
ATOM      5  C   UNL     1       8.826  16.484  17.656  0.00  0.00    +0.000 C 
ATOM      6  C   UNL     1       8.802  15.172  18.467  0.00  0.00    +0.000 C 
ATOM      7  C   UNL     1       9.767  14.141  17.789  0.00  0.00    +0.000 C 
ENDROOT
BRANCH   7   8
ATOM      8  C   UNL     1       9.745  12.784  18.512  0.00  0.00    +0.000 A 
ATOM      9  C   UNL     1      10.374  12.647  19.762  0.00  0.00    +0.000 A 
ATOM     10  C   UNL     1      10.329  11.432  20.452  0.00  0.00    +0.000 A 
ATOM     11  C   UNL     1       9.661  10.341  19.901  0.00  0.00    +0.000 A 
ATOM     12  C   UNL     1       9.040  10.463  18.664  0.00  0.00    +0.000 A 
ATOM     13 CL   UNL     1       8.203   9.121  17.985  0.00  0.00    +0.000 Cl
ATOM     14  C   UNL     1       9.084  11.674  17.967  0.00  0.00    +0.000 A 
ENDBRANCH   7   8
BRANCH   6  15
ATOM     15  C   UNL     1       9.085  15.449  19.962  0.00  0.00    +0.000 C 
BRANCH  15  16
ATOM     16  N   UNL     1       7.995  14.886  20.775  0.00  0.00    +0.000 NA
ATOM     17  C   UNL     1       8.204  14.598  22.014  0.00  0.00    +0.000 C 
ATOM     18  N   UNL     1       9.370  14.820  22.690  0.00  0.00    +0.000 N 
ATOM     19  N   UNL     1       7.226  14.067  22.843  0.00  0.00    +0.000 N 
ATOM     20  C   UNL     1       5.830  14.083  22.438  0.00  0.00    +0.000 C 
ATOM     21  H   UNL     1       9.990  15.482  22.247  0.00  0.00    +0.000 HD
ATOM     22  H   UNL     1       9.188  15.076  23.653  0.00  0.00    +0.000 HD
BRANCH  19  23
ATOM     23  C   UNL     1       7.615  12.971  23.772  0.00  0.00    +0.000 C 
ATOM     24  C   UNL     1       6.654  11.843  24.043  0.00  0.00    +0.000 C 
ATOM     25  C   UNL     1       7.942  11.567  23.331  0.00  0.00    +0.000 C 
ENDBRANCH  19  23
ENDBRANCH  15  16
ENDBRANCH   6  15
TORSDOF 4
ENDMDL
MODEL 5
REMARK VINA RESULT:      -6.4      1.791      2.101
REMARK  Name = 
REMARK  6 active torsions:
REMARK  status: ('A' for Active; 'I' for Inactive)
REMARK    1  A    between atoms: C_1  and  N_2
REMARK    2  A    between atoms: C_6  and  C_7
REMARK    3  A    between atoms: C_7  and  N_8
REMARK    4  A    between atoms: N_11  and  C_12
REMARK    5  A    between atoms: N_11  and  C_13
REMARK    6  A    between atoms: C_16  and  C_17
REMARK                            x       y       z     vdW  Elec       q    Type
REMARK                         _______ _______ _______ _____ _____    ______ ____
ROOT
ATOM      1  C   UNL     1       4.386   2.122  19.675  0.00  0.00    +0.000 C 
ATOM      2  N   UNL     1       3.364   3.171  19.476  0.00  0.00    +0.000 NA
ATOM      3  C   UNL     1       2.270   2.905  20.432  0.00  0.00    +0.000 C 
ATOM      4  C   UNL     1       1.163   3.949  20.376  0.00  0.00    +0.000 C 
ATOM      5  C   UNL     1       1.726   5.344  20.618  0.00  0.00    +0.000 C 
ATOM      6  C   UNL     1       2.847   5.673  19.611  0.00  0.00    +0.000 C 
ATOM      7  C   UNL     1       3.927   4.540  19.668  0.00  0.00    +0.000 C 
ENDROOT
BRANCH   7   8
ATOM      8  C   UNL     1       5.110   4.837  18.731  0.00  0.00    +0.000 A 
ATOM      9  C   UNL     1       5.191   4.197  17.481  0.00  0.00    +0.000 A 
ATOM     10  C   UNL     1       6.236   4.486  16.600  0.00  0.00    +0.000 A 
ATOM     11  C   UNL     1       7.215   5.411  16.957  0.00  0.00    +0.000 A 
ATOM     12  C   UNL     1       7.149   6.045  18.192  0.00  0.00    +0.000 A 
ATOM     13 CL   UNL     1       8.349   7.199  18.633  0.00  0.00    +0.000 Cl
ATOM     14  C   UNL     1       6.107   5.759  19.079  0.00  0.00    +0.000 A 
ENDBRANCH   7   8
BRANCH   6  15
ATOM     15  C   UNL     1       2.257   5.946  18.207  0.00  0.00    +0.000 C 
BRANCH  15  16
ATOM     16  N   UNL     1       1.508   7.212  18.232  0.00  0.00    +0.000 NA
ATOM     17  C   UNL     1       2.113   8.318  17.967  0.00  0.00    +0.000 C 
ATOM     18  N   UNL     1       3.423   8.433  17.598  0.00  0.00    +0.000 N 
ATOM     19  N   UNL     1       1.474   9.550  17.969  0.00  0.00    +0.000 N 
ATOM     20  C   UNL     1       0.023   9.626  17.982  0.00  0.00    +0.000 C 
ATOM     21  H   UNL     1       3.841   7.575  17.270  0.00  0.00    +0.000 HD
ATOM     22  H   UNL     1       3.547   9.181  16.926  0.00  0.00    +0.000 HD
BRANCH  19  23
ATOM     23  C   UNL     1       2.185  10.708  18.580  0.00  0.00    +0.000 C 
ATOM     24  C   UNL     1       2.400  11.962  17.776  0.00  0.00    +0.000 C 
ATOM     25  C   UNL     1       1.512  11.995  18.981  0.00  0.00    +0.000 C 
ENDBRANCH  19  23
ENDBRANCH  15  16
ENDBRANCH   6  15
TORSDOF 4
ENDMDL
MODEL 6
REMARK VINA RESULT:      -6.4      1.988      2.319
REMARK  Name = 
REMARK  6 active torsions:
REMARK  status: ('A' for Active; 'I' for Inactive)
REMARK    1  A    between atoms: C_1  and  N_2
REMARK    2  A    between atoms: C_6  and  C_7
REMARK    3  A    between atoms: C_7  and  N_8
REMARK    4  A    between atoms: N_11  and  C_12
REMARK    5  A    between atoms: N_11  and  C_13
REMARK    6  A    between atoms: C_16  and  C_17
REMARK                            x       y       z     vdW  Elec       q    Type
REMARK                         _______ _______ _______ _____ _____    ______ ____
ROOT
ATOM      1  C   UNL     1       4.490   3.202  16.759  0.00  0.00    +0.000 C 
ATOM      2  N   UNL     1       3.527   4.196  17.279  0.00  0.00    +0.000 NA
ATOM      3  C   UNL     1       2.234   3.503  17.454  0.00  0.00    +0.000 C 
ATOM      4  C   UNL     1       1.152   4.400  18.040  0.00  0.00    +0.000 C 
ATOM      5  C   UNL     1       1.604   4.986  19.372  0.00  0.00    +0.000 C 
ATOM      6  C   UNL     1       2.933   5.751  19.221  0.00  0.00    +0.000 C 
ATOM      7  C   UNL     1       3.991   4.803  18.561  0.00  0.00    +0.000 C 
ENDROOT
BRANCH   7   8
ATOM      8  C   UNL     1       5.364   5.484  18.437  0.00  0.00    +0.000 A 
ATOM      9  C   UNL     1       5.571   6.468  17.454  0.00  0.00    +0.000 A 
ATOM     10  C   UNL     1       6.800   7.126  17.354  0.00  0.00    +0.000 A 
ATOM     11  C   UNL     1       7.837   6.807  18.228  0.00  0.00    +0.000 A 
ATOM     12  C   UNL     1       7.645   5.833  19.201  0.00  0.00    +0.000 A 
ATOM     13 CL   UNL     1       8.919   5.444  20.292  0.00  0.00    +0.000 Cl
ATOM     14  C   UNL     1       6.420   5.168  19.305  0.00  0.00    +0.000 A 
ENDBRANCH   7   8
BRANCH   6  15
ATOM     15  C   UNL     1       2.710   7.095  18.487  0.00  0.00    +0.000 C 
BRANCH  15  16
ATOM     16  N   UNL     1       1.970   8.013  19.368  0.00  0.00    +0.000 NA
ATOM     17  C   UNL     1       1.502   9.116  18.892  0.00  0.00    +0.000 C 
ATOM     18  N   UNL     1       1.582   9.510  17.588  0.00  0.00    +0.000 N 
ATOM     19  N   UNL     1       0.793  10.029  19.660  0.00  0.00    +0.000 N 
ATOM     20  C   UNL     1       0.285   9.654  20.969  0.00  0.00    +0.000 C 
ATOM     21  H   UNL     1       1.790   8.766  16.938  0.00  0.00    +0.000 HD
ATOM     22  H   UNL     1       0.751  10.018  17.310  0.00  0.00    +0.000 HD
BRANCH  19  23
ATOM     23  C   UNL     1       1.085  11.477  19.473  0.00  0.00    +0.000 C 
ATOM     24  C   UNL     1       0.121  12.343  18.707  0.00  0.00    +0.000 C 
ATOM     25  C   UNL     1       0.338  12.585  20.169  0.00  0.00    +0.000 C 
ENDBRANCH  19  23
ENDBRANCH  15  16
ENDBRANCH   6  15
TORSDOF 4
ENDMDL
MODEL 7
REMARK VINA RESULT:      -6.3      2.489      4.373
REMARK  Name = 
REMARK  6 active torsions:
REMARK  status: ('A' for Active; 'I' for Inactive)
REMARK    1  A    between atoms: C_1  and  N_2
REMARK    2  A    between atoms: C_6  and  C_7
REMARK    3  A    between atoms: C_7  and  N_8
REMARK    4  A    between atoms: N_11  and  C_12
REMARK    5  A    between atoms: N_11  and  C_13
REMARK    6  A    between atoms: C_16  and  C_17
REMARK                            x       y       z     vdW  Elec       q    Type
REMARK                         _______ _______ _______ _____ _____    ______ ____
ROOT
ATOM      1  C   UNL     1       5.383   3.601  18.527  0.00  0.00    +0.000 C 
ATOM      2  N   UNL     1       4.853   4.981  18.549  0.00  0.00    +0.000 NA
ATOM      3  C   UNL     1       5.803   5.827  17.799  0.00  0.00    +0.000 C 
ATOM      4  C   UNL     1       5.352   7.278  17.692  0.00  0.00    +0.000 C 
ATOM      5  C   UNL     1       3.972   7.367  17.054  0.00  0.00    +0.000 C 
ATOM      6  C   UNL     1       2.943   6.525  17.834  0.00  0.00    +0.000 C 
ATOM      7  C   UNL     1       3.482   5.060  17.964  0.00  0.00    +0.000 C 
ENDROOT
BRANCH   7   8
ATOM      8  C   UNL     1       2.473   4.147  18.681  0.00  0.00    +0.000 A 
ATOM      9  C   UNL     1       1.473   3.492  17.940  0.00  0.00    +0.000 A 
ATOM     10  C   UNL     1       0.574   2.626  18.569  0.00  0.00    +0.000 A 
ATOM     11  C   UNL     1       0.657   2.409  19.943  0.00  0.00    +0.000 A 
ATOM     12  C   UNL     1       1.638   3.056  20.686  0.00  0.00    +0.000 A 
ATOM     13 CL   UNL     1       1.754   2.781  22.381  0.00  0.00    +0.000 Cl
ATOM     14  C   UNL     1       2.539   3.925  20.064  0.00  0.00    +0.000 A 
ENDBRANCH   7   8
BRANCH   6  15
ATOM     15  C   UNL     1       2.579   7.210  19.173  0.00  0.00    +0.000 C 
BRANCH  15  16
ATOM     16  N   UNL     1       2.119   8.583  18.907  0.00  0.00    +0.000 NA
ATOM     17  C   UNL     1       1.261   9.133  19.695  0.00  0.00    +0.000 C 
ATOM     18  N   UNL     1       0.753   8.567  20.829  0.00  0.00    +0.000 N 
ATOM     19  N   UNL     1       0.782  10.423  19.510  0.00  0.00    +0.000 N 
ATOM     20  C   UNL     1       1.445  11.329  18.587  0.00  0.00    +0.000 C 
ATOM     21  H   UNL     1       1.290   7.789  21.184  0.00  0.00    +0.000 HD
ATOM     22  H   UNL     1       0.601   9.265  21.547  0.00  0.00    +0.000 HD
BRANCH  19  23
ATOM     23  C   UNL     1      -0.671  10.668  19.721  0.00  0.00    +0.000 C 
ATOM     24  C   UNL     1      -1.328  11.865  19.086  0.00  0.00    +0.000 C 
ATOM     25  C   UNL     1      -1.721  10.485  18.656  0.00  0.00    +0.000 C 
ENDBRANCH  19  23
ENDBRANCH  15  16
ENDBRANCH   6  15
TORSDOF 4
ENDMDL
MODEL 8
REMARK VINA RESULT:      -6.3      1.907      2.361
REMARK  Name = 
REMARK  6 active torsions:
REMARK  status: ('A' for Active; 'I' for Inactive)
REMARK    1  A    between atoms: C_1  and  N_2
REMARK    2  A    between atoms: C_6  and  C_7
REMARK    3  A    between atoms: C_7  and  N_8
REMARK    4  A    between atoms: N_11  and  C_12
REMARK    5  A    between atoms: N_11  and  C_13
REMARK    6  A    between atoms: C_16  and  C_17
REMARK                            x       y       z     vdW  Elec       q    Type
REMARK                         _______ _______ _______ _____ _____    ______ ____
ROOT
ATOM      1  C   UNL     1       3.467   2.182  17.915  0.00  0.00    +0.000 C 
ATOM      2  N   UNL     1       2.720   3.183  18.705  0.00  0.00    +0.000 NA
ATOM      3  C   UNL     1       1.851   2.442  19.642  0.00  0.00    +0.000 C 
ATOM      4  C   UNL     1       1.056   3.354  20.566  0.00  0.00    +0.000 C 
ATOM      5  C   UNL     1       1.988   4.270  21.349  0.00  0.00    +0.000 C 
ATOM      6  C   UNL     1       2.885   5.091  20.401  0.00  0.00    +0.000 C 
ATOM      7  C   UNL     1       3.633   4.109  19.437  0.00  0.00    +0.000 C 
ENDROOT
BRANCH   7   8
ATOM      8  C   UNL     1       4.598   4.859  18.502  0.00  0.00    +0.000 A 
ATOM      9  C   UNL     1       4.246   5.069  17.156  0.00  0.00    +0.000 A 
ATOM     10  C   UNL     1       5.092   5.784  16.304  0.00  0.00    +0.000 A 
ATOM     11  C   UNL     1       6.299   6.291  16.781  0.00  0.00    +0.000 A 
ATOM     12  C   UNL     1       6.659   6.084  18.107  0.00  0.00    +0.000 A 
ATOM     13 CL   UNL     1       8.144   6.719  18.705  0.00  0.00    +0.000 Cl
ATOM     14  C   UNL     1       5.820   5.368  18.965  0.00  0.00    +0.000 A 
ENDBRANCH   7   8
BRANCH   6  15
ATOM     15  C   UNL     1       2.069   6.203  19.701  0.00  0.00    +0.000 C 
BRANCH  15  16
ATOM     16  N   UNL     1       2.018   7.389  20.570  0.00  0.00    +0.000 NA
ATOM     17  C   UNL     1       0.889   7.775  21.059  0.00  0.00    +0.000 C 
ATOM     18  N   UNL     1      -0.305   7.136  20.887  0.00  0.00    +0.000 N 
ATOM     19  N   UNL     1       0.762   8.882  21.887  0.00  0.00    +0.000 N 
ATOM     20  C   UNL     1       1.938   9.492  22.484  0.00  0.00    +0.000 C 
ATOM     21  H   UNL     1      -0.227   6.178  20.580  0.00  0.00    +0.000 HD
ATOM     22  H   UNL     1      -0.878   7.207  21.720  0.00  0.00    +0.000 HD
BRANCH  19  23
ATOM     23  C   UNL     1      -0.395   9.793  21.666  0.00  0.00    +0.000 C 
ATOM     24  C   UNL     1      -0.369  11.187  22.234  0.00  0.00    +0.000 C 
ATOM     25  C   UNL     1      -0.364  10.989  20.750  0.00  0.00    +0.000 C 
ENDBRANCH  19  23
ENDBRANCH  15  16
ENDBRANCH   6  15
TORSDOF 4
ENDMDL
MODEL 9
REMARK VINA RESULT:      -6.3      1.832      2.203
REMARK  Name = 
REMARK  6 active torsions:
REMARK  status: ('A' for Active; 'I' for Inactive)
REMARK    1  A    between atoms: C_1  and  N_2
REMARK    2  A    between atoms: C_6  and  C_7
REMARK    3  A    between atoms: C_7  and  N_8
REMARK    4  A    between atoms: N_11  and  C_12
REMARK    5  A    between atoms: N_11  and  C_13
REMARK    6  A    between atoms: C_16  and  C_17
REMARK                            x       y       z     vdW  Elec       q    Type
REMARK                         _______ _______ _______ _____ _____    ______ ____
ROOT
ATOM      1  C   UNL     1       4.916   3.511  16.552  0.00  0.00    +0.000 C 
ATOM      2  N   UNL     1       3.900   4.397  17.158  0.00  0.00    +0.000 NA
ATOM      3  C   UNL     1       2.611   3.677  17.120  0.00  0.00    +0.000 C 
ATOM      4  C   UNL     1       1.474   4.456  17.768  0.00  0.00    +0.000 C 
ATOM      5  C   UNL     1       1.819   4.812  19.209  0.00  0.00    +0.000 C 
ATOM      6  C   UNL     1       3.141   5.600  19.285  0.00  0.00    +0.000 C 
ATOM      7  C   UNL     1       4.260   4.783  18.555  0.00  0.00    +0.000 C 
ENDROOT
BRANCH   7   8
ATOM      8  C   UNL     1       5.626   5.484  18.647  0.00  0.00    +0.000 A 
ATOM      9  C   UNL     1       6.636   4.946  19.465  0.00  0.00    +0.000 A 
ATOM     10  C   UNL     1       7.896   5.547  19.529  0.00  0.00    +0.000 A 
ATOM     11  C   UNL     1       8.161   6.694  18.784  0.00  0.00    +0.000 A 
ATOM     12  C   UNL     1       7.169   7.239  17.977  0.00  0.00    +0.000 A 
ATOM     13 CL   UNL     1       7.496   8.649  17.045  0.00  0.00    +0.000 Cl
ATOM     14  C   UNL     1       5.906   6.644  17.910  0.00  0.00    +0.000 A 
ENDBRANCH   7   8
BRANCH   6  15
ATOM     15  C   UNL     1       2.946   7.047  18.772  0.00  0.00    +0.000 C 
BRANCH  15  16
ATOM     16  N   UNL     1       2.054   7.772  19.690  0.00  0.00    +0.000 NA
ATOM     17  C   UNL     1       1.362   8.769  19.255  0.00  0.00    +0.000 C 
ATOM     18  N   UNL     1       1.334   9.205  17.962  0.00  0.00    +0.000 N 
ATOM     19  N   UNL     1       0.499   9.499  20.060  0.00  0.00    +0.000 N 
ATOM     20  C   UNL     1       0.106   8.995  21.365  0.00  0.00    +0.000 C 
ATOM     21  H   UNL     1       1.674   8.535  17.287  0.00  0.00    +0.000 HD
ATOM     22  H   UNL     1       0.411   9.540  17.712  0.00  0.00    +0.000 HD
BRANCH  19  23
ATOM     23  C   UNL     1       0.488  10.981  19.912  0.00  0.00    +0.000 C 
ATOM     24  C   UNL     1       0.119  11.848  21.086  0.00  0.00    +0.000 C 
ATOM     25  C   UNL     1       1.510  11.898  20.533  0.00  0.00    +0.000 C 
ENDBRANCH  19  23
ENDBRANCH  15  16
ENDBRANCH   6  15
TORSDOF 4
ENDMDL
