MODEL 1
REMARK VINA RESULT:      -7.5      0.000      0.000
REMARK  Name = 
REMARK  10 active torsions:
REMARK  status: ('A' for Active; 'I' for Inactive)
REMARK    1  A    between atoms: C_1  and  C_2
REMARK    2  A    between atoms: C_2  and  O_3
REMARK    3  A    between atoms: C_2  and  C_4
REMARK    4  A    between atoms: C_8  and  C_9
REMARK    5  A    between atoms: C_9  and  O_11
REMARK    6  A    between atoms: C_12  and  S_13
REMARK    7  A    between atoms: S_13  and  C_14
REMARK    8  A    between atoms: C_17  and  C_18
REMARK    9  A    between atoms: C_18  and  C_19
REMARK   10  A    between atoms: C_28  and  C_29
REMARK                            x       y       z     vdW  Elec       q    Type
REMARK                         _______ _______ _______ _____ _____    ______ ____
ROOT
ATOM      1  C   UNL     1      -0.290  11.633  18.500  0.00  0.00    +0.000 C 
ATOM      2  C   UNL     1       0.002  11.545  20.015  0.00  0.00    +0.000 C 
ATOM      3  O   UNL     1       0.387  12.258  20.912  0.00  0.00    +0.000 OA
ATOM      4  N   UNL     1      -0.262  10.204  20.038  0.00  0.00    +0.000 N 
ATOM      5  C   UNL     1       0.589   9.282  20.630  0.00  0.00    +0.000 C 
ATOM      6  C   UNL     1       1.265   8.571  19.702  0.00  0.00    +0.000 C 
ATOM      7  C   UNL     1       1.060   9.192  18.323  0.00  0.00    +0.000 C 
ATOM      8  C   UNL     1       2.247  10.063  17.877  0.00  0.00    +0.000 C 
ATOM      9  C   UNL     1      -0.195  10.060  18.552  0.00  0.00    +0.000 C 
ENDROOT
BRANCH   1  11
ATOM     10  C   UNL     1      -2.640  11.169  17.748  0.00  0.00    +0.000 C 
ATOM     11  C   UNL     1      -1.646  12.243  18.174  0.00  0.00    +0.000 C 
BRANCH  11  12
ATOM     12  O   UNL     1      -2.131  12.917  19.333  0.00  0.00    +0.000 OA
ATOM     13  H   UNL     1      -1.379  13.143  19.908  0.00  0.00    +0.000 HD
ENDBRANCH  11  12
ENDBRANCH   1  11
BRANCH   5  14
ATOM     14  C   UNL     1       0.680   9.169  22.115  0.00  0.00    +0.000 C 
ATOM     15  O   UNL     1       1.688   9.364  22.774  0.00  0.00    +0.000 OA
BRANCH  14  16
ATOM     16  O   UNL     1      -0.475   8.782  22.706  0.00  0.00    +0.000 OA
ATOM     17  H   UNL     1      -0.711   9.279  23.522  0.00  0.00    +0.000 HD
ENDBRANCH  14  16
ENDBRANCH   5  14
BRANCH   6  18
ATOM     18  S   UNL     1       2.362   7.266  19.925  0.00  0.00    +0.000 S 
BRANCH  18  19
ATOM     19  C   UNL     1       1.439   5.784  19.350  0.00  0.00    +0.000 C 
ATOM     20  C   UNL     1       1.664   4.602  20.291  0.00  0.00    +0.000 C 
ATOM     21  N   UNL     1       1.368   3.384  19.513  0.00  0.00    +0.000 NA
ATOM     22  C   UNL     1       1.700   3.704  18.104  0.00  0.00    +0.000 C 
ATOM     23  C   UNL     1       1.850   5.233  17.994  0.00  0.00    +0.000 C 
ATOM     24  H   UNL     1       0.362   3.217  19.573  0.00  0.00    +0.000 HD
BRANCH  22  25
ATOM     25  C   UNL     1       2.974   2.994  17.608  0.00  0.00    +0.000 C 
BRANCH  25  26
ATOM     26  C   UNL     1       4.220   3.773  17.745  0.00  0.00    +0.000 A 
ATOM     27  C   UNL     1       4.838   4.623  16.764  0.00  0.00    +0.000 A 
ATOM     28  N   UNL     1       5.931   5.243  17.380  0.00  0.00    +0.000 N 
ATOM     29  N   UNL     1       5.999   4.875  18.652  0.00  0.00    +0.000 N 
ATOM     30  C   UNL     1       4.970   3.981  18.950  0.00  0.00    +0.000 A 
ATOM     31  C   UNL     1       7.006   5.586  19.397  0.00  0.00    +0.000 C 
ATOM     32  C   UNL     1       7.722   6.425  18.321  0.00  0.00    +0.000 C 
ATOM     33  C   UNL     1       6.890   6.261  17.032  0.00  0.00    +0.000 C 
ENDBRANCH  25  26
ENDBRANCH  22  25
ENDBRANCH  18  19
ENDBRANCH   6  18
TORSDOF 8
ENDMDL
MODEL 2
REMARK VINA RESULT:      -7.2      0.546      1.212
REMARK  Name = 
REMARK  10 active torsions:
REMARK  status: ('A' for Active; 'I' for Inactive)
REMARK    1  A    between atoms: C_1  and  C_2
REMARK    2  A    between atoms: C_2  and  O_3
REMARK    3  A    between atoms: C_2  and  C_4
REMARK    4  A    between atoms: C_8  and  C_9
REMARK    5  A    between atoms: C_9  and  O_11
REMARK    6  A    between atoms: C_12  and  S_13
REMARK    7  A    between atoms: S_13  and  C_14
REMARK    8  A    between atoms: C_17  and  C_18
REMARK    9  A    between atoms: C_18  and  C_19
REMARK   10  A    between atoms: C_28  and  C_29
REMARK                            x       y       z     vdW  Elec       q    Type
REMARK                         _______ _______ _______ _____ _____    ______ ____
ROOT
ATOM      1  C   UNL     1      -0.377  11.538  18.384  0.00  0.00    +0.000 C 
ATOM      2  C   UNL     1      -0.152  11.596  19.911  0.00  0.00    +0.000 C 
ATOM      3  O   UNL     1       0.200  12.389  20.752  0.00  0.00    +0.000 OA
ATOM      4  N   UNL     1      -0.429  10.264  20.052  0.00  0.00    +0.000 N 
ATOM      5  C   UNL     1       0.387   9.399  20.767  0.00  0.00    +0.000 C 
ATOM      6  C   UNL     1       1.096   8.598  19.943  0.00  0.00    +0.000 C 
ATOM      7  C   UNL     1       0.956   9.085  18.502  0.00  0.00    +0.000 C 
ATOM      8  C   UNL     1       2.169   9.902  18.026  0.00  0.00    +0.000 C 
ATOM      9  C   UNL     1      -0.299   9.977  18.591  0.00  0.00    +0.000 C 
ENDROOT
BRANCH   1  11
ATOM     10  C   UNL     1      -2.613  11.039  17.354  0.00  0.00    +0.000 C 
ATOM     11  C   UNL     1      -1.712  12.120  17.941  0.00  0.00    +0.000 C 
BRANCH  11  12
ATOM     12  O   UNL     1      -2.346  12.714  19.072  0.00  0.00    +0.000 OA
ATOM     13  H   UNL     1      -2.106  12.212  19.871  0.00  0.00    +0.000 HD
ENDBRANCH  11  12
ENDBRANCH   1  11
BRANCH   5  14
ATOM     14  C   UNL     1       0.413   9.431  22.258  0.00  0.00    +0.000 C 
ATOM     15  O   UNL     1      -0.556   9.264  22.982  0.00  0.00    +0.000 OA
BRANCH  14  16
ATOM     16  O   UNL     1       1.632   9.705  22.779  0.00  0.00    +0.000 OA
ATOM     17  H   UNL     1       2.136   8.921  23.094  0.00  0.00    +0.000 HD
ENDBRANCH  14  16
ENDBRANCH   5  14
BRANCH   6  18
ATOM     18  S   UNL     1       2.170   7.316  20.338  0.00  0.00    +0.000 S 
BRANCH  18  19
ATOM     19  C   UNL     1       1.482   5.852  19.465  0.00  0.00    +0.000 C 
ATOM     20  C   UNL     1       1.899   4.557  20.160  0.00  0.00    +0.000 C 
ATOM     21  N   UNL     1       1.786   3.485  19.152  0.00  0.00    +0.000 NA
ATOM     22  C   UNL     1       2.048   4.124  17.840  0.00  0.00    +0.000 C 
ATOM     23  C   UNL     1       1.958   5.649  18.035  0.00  0.00    +0.000 C 
ATOM     24  H   UNL     1       0.819   3.157  19.158  0.00  0.00    +0.000 HD
BRANCH  22  25
ATOM     25  C   UNL     1       3.411   3.731  17.239  0.00  0.00    +0.000 C 
BRANCH  25  26
ATOM     26  C   UNL     1       4.542   4.594  17.633  0.00  0.00    +0.000 A 
ATOM     27  C   UNL     1       5.390   4.461  18.786  0.00  0.00    +0.000 A 
ATOM     28  N   UNL     1       6.393   5.431  18.680  0.00  0.00    +0.000 N 
ATOM     29  N   UNL     1       6.249   6.106  17.547  0.00  0.00    +0.000 N 
ATOM     30  C   UNL     1       5.138   5.636  16.847  0.00  0.00    +0.000 A 
ATOM     31  C   UNL     1       7.329   7.021  17.289  0.00  0.00    +0.000 C 
ATOM     32  C   UNL     1       8.183   6.939  18.569  0.00  0.00    +0.000 C 
ATOM     33  C   UNL     1       7.592   5.779  19.398  0.00  0.00    +0.000 C 
ENDBRANCH  25  26
ENDBRANCH  22  25
ENDBRANCH  18  19
ENDBRANCH   6  18
TORSDOF 8
ENDMDL
MODEL 3
REMARK VINA RESULT:      -7.2      3.405      8.394
REMARK  Name = 
REMARK  10 active torsions:
REMARK  status: ('A' for Active; 'I' for Inactive)
REMARK    1  A    between atoms: C_1  and  C_2
REMARK    2  A    between atoms: C_2  and  O_3
REMARK    3  A    between atoms: C_2  and  C_4
REMARK    4  A    between atoms: C_8  and  C_9
REMARK    5  A    between atoms: C_9  and  O_11
REMARK    6  A    between atoms: C_12  and  S_13
REMARK    7  A    between atoms: S_13  and  C_14
REMARK    8  A    between atoms: C_17  and  C_18
REMARK    9  A    between atoms: C_18  and  C_19
REMARK   10  A    between atoms: C_28  and  C_29
REMARK                            x       y       z     vdW  Elec       q    Type
REMARK                         _______ _______ _______ _____ _____    ______ ____
ROOT
ATOM      1  C   UNL     1       4.506   5.251  17.078  0.00  0.00    +0.000 C 
ATOM      2  C   UNL     1       3.493   4.158  17.488  0.00  0.00    +0.000 C 
ATOM      3  O   UNL     1       2.776   3.338  16.965  0.00  0.00    +0.000 OA
ATOM      4  N   UNL     1       3.596   4.490  18.811  0.00  0.00    +0.000 N 
ATOM      5  C   UNL     1       2.487   4.698  19.619  0.00  0.00    +0.000 C 
ATOM      6  C   UNL     1       2.304   6.011  19.874  0.00  0.00    +0.000 C 
ATOM      7  C   UNL     1       3.220   6.844  18.981  0.00  0.00    +0.000 C 
ATOM      8  C   UNL     1       2.492   7.433  17.762  0.00  0.00    +0.000 C 
ATOM      9  C   UNL     1       4.264   5.798  18.537  0.00  0.00    +0.000 C 
ENDROOT
BRANCH   1  11
ATOM     10  C   UNL     1       6.871   5.002  17.885  0.00  0.00    +0.000 C 
ATOM     11  C   UNL     1       5.891   4.709  16.754  0.00  0.00    +0.000 C 
BRANCH  11  12
ATOM     12  O   UNL     1       5.793   3.301  16.553  0.00  0.00    +0.000 OA
ATOM     13  H   UNL     1       6.328   2.846  17.227  0.00  0.00    +0.000 HD
ENDBRANCH  11  12
ENDBRANCH   1  11
BRANCH   5  14
ATOM     14  C   UNL     1       1.661   3.549  20.093  0.00  0.00    +0.000 C 
ATOM     15  O   UNL     1       1.707   3.064  21.212  0.00  0.00    +0.000 OA
BRANCH  14  16
ATOM     16  O   UNL     1       0.845   3.034  19.144  0.00  0.00    +0.000 OA
ATOM     17  H   UNL     1      -0.104   2.978  19.397  0.00  0.00    +0.000 HD
ENDBRANCH  14  16
ENDBRANCH   5  14
BRANCH   6  18
ATOM     18  S   UNL     1       1.135   6.766  20.883  0.00  0.00    +0.000 S 
BRANCH  18  19
ATOM     19  C   UNL     1       1.552   8.554  20.815  0.00  0.00    +0.000 C 
ATOM     20  C   UNL     1       1.300   9.225  22.164  0.00  0.00    +0.000 C 
ATOM     21  N   UNL     1       1.134  10.665  21.891  0.00  0.00    +0.000 NA
ATOM     22  C   UNL     1       0.561  10.764  20.527  0.00  0.00    +0.000 C 
ATOM     23  C   UNL     1       0.726   9.390  19.850  0.00  0.00    +0.000 C 
ATOM     24  H   UNL     1       2.065  11.086  21.876  0.00  0.00    +0.000 HD
BRANCH  22  25
ATOM     25  C   UNL     1      -0.917  11.199  20.523  0.00  0.00    +0.000 C 
BRANCH  25  26
ATOM     26  C   UNL     1      -1.583  11.144  19.207  0.00  0.00    +0.000 A 
ATOM     27  C   UNL     1      -1.217  10.347  18.068  0.00  0.00    +0.000 A 
ATOM     28  N   UNL     1      -2.203  10.536  17.094  0.00  0.00    +0.000 N 
ATOM     29  N   UNL     1      -3.150  11.339  17.560  0.00  0.00    +0.000 N 
ATOM     30  C   UNL     1      -2.840  11.742  18.859  0.00  0.00    +0.000 A 
ATOM     31  C   UNL     1      -4.278  11.463  16.675  0.00  0.00    +0.000 C 
ATOM     32  C   UNL     1      -3.838  10.682  15.422  0.00  0.00    +0.000 C 
ATOM     33  C   UNL     1      -2.517   9.981  15.801  0.00  0.00    +0.000 C 
ENDBRANCH  25  26
ENDBRANCH  22  25
ENDBRANCH  18  19
ENDBRANCH   6  18
TORSDOF 8
ENDMDL
MODEL 4
REMARK VINA RESULT:      -7.1      3.850      9.183
REMARK  Name = 
REMARK  10 active torsions:
REMARK  status: ('A' for Active; 'I' for Inactive)
REMARK    1  A    between atoms: C_1  and  C_2
REMARK    2  A    between atoms: C_2  and  O_3
REMARK    3  A    between atoms: C_2  and  C_4
REMARK    4  A    between atoms: C_8  and  C_9
REMARK    5  A    between atoms: C_9  and  O_11
REMARK    6  A    between atoms: C_12  and  S_13
REMARK    7  A    between atoms: S_13  and  C_14
REMARK    8  A    between atoms: C_17  and  C_18
REMARK    9  A    between atoms: C_18  and  C_19
REMARK   10  A    between atoms: C_28  and  C_29
REMARK                            x       y       z     vdW  Elec       q    Type
REMARK                         _______ _______ _______ _____ _____    ______ ____
ROOT
ATOM      1  C   UNL     1       4.866   4.731  17.772  0.00  0.00    +0.000 C 
ATOM      2  C   UNL     1       3.962   3.639  18.387  0.00  0.00    +0.000 C 
ATOM      3  O   UNL     1       3.402   2.622  18.050  0.00  0.00    +0.000 OA
ATOM      4  N   UNL     1       3.901   4.296  19.585  0.00  0.00    +0.000 N 
ATOM      5  C   UNL     1       2.706   4.535  20.249  0.00  0.00    +0.000 C 
ATOM      6  C   UNL     1       2.341   5.831  20.150  0.00  0.00    +0.000 C 
ATOM      7  C   UNL     1       3.225   6.542  19.128  0.00  0.00    +0.000 C 
ATOM      8  C   UNL     1       2.544   6.705  17.759  0.00  0.00    +0.000 C 
ATOM      9  C   UNL     1       4.425   5.578  19.027  0.00  0.00    +0.000 C 
ENDROOT
BRANCH   1  11
ATOM     10  C   UNL     1       6.958   4.850  16.388  0.00  0.00    +0.000 C 
ATOM     11  C   UNL     1       6.331   4.329  17.677  0.00  0.00    +0.000 C 
BRANCH  11  12
ATOM     12  O   UNL     1       7.023   4.866  18.801  0.00  0.00    +0.000 OA
ATOM     13  H   UNL     1       7.939   4.536  18.798  0.00  0.00    +0.000 HD
ENDBRANCH  11  12
ENDBRANCH   1  11
BRANCH   5  14
ATOM     14  C   UNL     1       1.988   3.432  20.951  0.00  0.00    +0.000 C 
ATOM     15  O   UNL     1       2.183   3.089  22.106  0.00  0.00    +0.000 OA
BRANCH  14  16
ATOM     16  O   UNL     1       1.090   2.782  20.174  0.00  0.00    +0.000 OA
ATOM     17  H   UNL     1       0.247   2.544  20.624  0.00  0.00    +0.000 HD
ENDBRANCH  14  16
ENDBRANCH   5  14
BRANCH   6  18
ATOM     18  S   UNL     1       0.999   6.636  20.864  0.00  0.00    +0.000 S 
BRANCH  18  19
ATOM     19  C   UNL     1       1.482   8.409  20.881  0.00  0.00    +0.000 C 
ATOM     20  C   UNL     1       1.262   9.020  22.264  0.00  0.00    +0.000 C 
ATOM     21  N   UNL     1       1.147  10.478  22.064  0.00  0.00    +0.000 NA
ATOM     22  C   UNL     1       0.571  10.665  20.711  0.00  0.00    +0.000 C 
ATOM     23  C   UNL     1       0.683   9.322  19.965  0.00  0.00    +0.000 C 
ATOM     24  H   UNL     1       2.093  10.864  22.063  0.00  0.00    +0.000 HD
BRANCH  22  25
ATOM     25  C   UNL     1      -0.890  11.153  20.739  0.00  0.00    +0.000 C 
BRANCH  25  26
ATOM     26  C   UNL     1      -1.224  12.069  21.847  0.00  0.00    +0.000 A 
ATOM     27  C   UNL     1      -0.544  13.278  22.225  0.00  0.00    +0.000 A 
ATOM     28  N   UNL     1      -1.285  13.870  23.253  0.00  0.00    +0.000 N 
ATOM     29  N   UNL     1      -2.371  13.148  23.498  0.00  0.00    +0.000 N 
ATOM     30  C   UNL     1      -2.404  12.032  22.662  0.00  0.00    +0.000 A 
ATOM     31  C   UNL     1      -3.266  13.769  24.438  0.00  0.00    +0.000 C 
ATOM     32  C   UNL     1      -2.490  15.016  24.904  0.00  0.00    +0.000 C 
ATOM     33  C   UNL     1      -1.246  15.105  23.994  0.00  0.00    +0.000 C 
ENDBRANCH  25  26
ENDBRANCH  22  25
ENDBRANCH  18  19
ENDBRANCH   6  18
TORSDOF 8
ENDMDL
MODEL 5
REMARK VINA RESULT:      -7.0      4.005      9.327
REMARK  Name = 
REMARK  10 active torsions:
REMARK  status: ('A' for Active; 'I' for Inactive)
REMARK    1  A    between atoms: C_1  and  C_2
REMARK    2  A    between atoms: C_2  and  O_3
REMARK    3  A    between atoms: C_2  and  C_4
REMARK    4  A    between atoms: C_8  and  C_9
REMARK    5  A    between atoms: C_9  and  O_11
REMARK    6  A    between atoms: C_12  and  S_13
REMARK    7  A    between atoms: S_13  and  C_14
REMARK    8  A    between atoms: C_17  and  C_18
REMARK    9  A    between atoms: C_18  and  C_19
REMARK   10  A    between atoms: C_28  and  C_29
REMARK                            x       y       z     vdW  Elec       q    Type
REMARK                         _______ _______ _______ _____ _____    ______ ____
ROOT
ATOM      1  C   UNL     1       3.349   3.520  19.378  0.00  0.00    +0.000 C 
ATOM      2  C   UNL     1       4.600   4.164  18.739  0.00  0.00    +0.000 C 
ATOM      3  O   UNL     1       5.792   4.220  18.924  0.00  0.00    +0.000 OA
ATOM      4  N   UNL     1       3.845   4.820  17.806  0.00  0.00    +0.000 N 
ATOM      5  C   UNL     1       3.992   6.174  17.541  0.00  0.00    +0.000 C 
ATOM      6  C   UNL     1       2.974   6.891  18.061  0.00  0.00    +0.000 C 
ATOM      7  C   UNL     1       2.139   6.008  18.985  0.00  0.00    +0.000 C 
ATOM      8  C   UNL     1       2.464   6.223  20.472  0.00  0.00    +0.000 C 
ATOM      9  C   UNL     1       2.560   4.594  18.535  0.00  0.00    +0.000 C 
ENDROOT
BRANCH   1  11
ATOM     10  C   UNL     1       2.403   1.924  17.686  0.00  0.00    +0.000 C 
ATOM     11  C   UNL     1       3.157   2.057  19.005  0.00  0.00    +0.000 C 
BRANCH  11  12
ATOM     12  O   UNL     1       4.439   1.445  18.891  0.00  0.00    +0.000 OA
ATOM     13  H   UNL     1       4.599   0.893  19.677  0.00  0.00    +0.000 HD
ENDBRANCH  11  12
ENDBRANCH   1  11
BRANCH   5  14
ATOM     14  C   UNL     1       5.168   6.678  16.772  0.00  0.00    +0.000 C 
ATOM     15  O   UNL     1       5.205   6.827  15.561  0.00  0.00    +0.000 OA
BRANCH  14  16
ATOM     16  O   UNL     1       6.253   6.937  17.538  0.00  0.00    +0.000 OA
ATOM     17  H   UNL     1       6.367   6.342  18.313  0.00  0.00    +0.000 HD
ENDBRANCH  14  16
ENDBRANCH   5  14
BRANCH   6  18
ATOM     18  S   UNL     1       2.657   8.576  17.931  0.00  0.00    +0.000 S 
BRANCH  18  19
ATOM     19  C   UNL     1       1.065   8.815  18.816  0.00  0.00    +0.000 C 
ATOM     20  C   UNL     1       0.222   9.896  18.140  0.00  0.00    +0.000 C 
ATOM     21  N   UNL     1      -0.722  10.391  19.160  0.00  0.00    +0.000 NA
ATOM     22  C   UNL     1      -0.039  10.232  20.467  0.00  0.00    +0.000 C 
ATOM     23  C   UNL     1       1.172   9.305  20.252  0.00  0.00    +0.000 C 
ATOM     24  H   UNL     1      -1.537   9.774  19.151  0.00  0.00    +0.000 HD
BRANCH  22  25
ATOM     25  C   UNL     1       0.404  11.573  21.083  0.00  0.00    +0.000 C 
BRANCH  25  26
ATOM     26  C   UNL     1      -0.618  12.256  21.900  0.00  0.00    +0.000 A 
ATOM     27  C   UNL     1      -1.828  11.699  22.441  0.00  0.00    +0.000 A 
ATOM     28  N   UNL     1      -2.418  12.683  23.242  0.00  0.00    +0.000 N 
ATOM     29  N   UNL     1      -1.651  13.765  23.264  0.00  0.00    +0.000 N 
ATOM     30  C   UNL     1      -0.521  13.569  22.470  0.00  0.00    +0.000 A 
ATOM     31  C   UNL     1      -2.111  14.770  24.186  0.00  0.00    +0.000 C 
ATOM     32  C   UNL     1      -3.453  14.205  24.692  0.00  0.00    +0.000 C 
ATOM     33  C   UNL     1      -3.543  12.768  24.137  0.00  0.00    +0.000 C 
ENDBRANCH  25  26
ENDBRANCH  22  25
ENDBRANCH  18  19
ENDBRANCH   6  18
TORSDOF 8
ENDMDL
MODEL 6
REMARK VINA RESULT:      -7.0      3.996      9.319
REMARK  Name = 
REMARK  10 active torsions:
REMARK  status: ('A' for Active; 'I' for Inactive)
REMARK    1  A    between atoms: C_1  and  C_2
REMARK    2  A    between atoms: C_2  and  O_3
REMARK    3  A    between atoms: C_2  and  C_4
REMARK    4  A    between atoms: C_8  and  C_9
REMARK    5  A    between atoms: C_9  and  O_11
REMARK    6  A    between atoms: C_12  and  S_13
REMARK    7  A    between atoms: S_13  and  C_14
REMARK    8  A    between atoms: C_17  and  C_18
REMARK    9  A    between atoms: C_18  and  C_19
REMARK   10  A    between atoms: C_28  and  C_29
REMARK                            x       y       z     vdW  Elec       q    Type
REMARK                         _______ _______ _______ _____ _____    ______ ____
ROOT
ATOM      1  C   UNL     1       3.431   3.518  19.262  0.00  0.00    +0.000 C 
ATOM      2  C   UNL     1       4.690   4.202  18.683  0.00  0.00    +0.000 C 
ATOM      3  O   UNL     1       5.876   4.268  18.905  0.00  0.00    +0.000 OA
ATOM      4  N   UNL     1       3.952   4.882  17.753  0.00  0.00    +0.000 N 
ATOM      5  C   UNL     1       4.087   6.246  17.541  0.00  0.00    +0.000 C 
ATOM      6  C   UNL     1       3.043   6.929  18.056  0.00  0.00    +0.000 C 
ATOM      7  C   UNL     1       2.195   6.002  18.923  0.00  0.00    +0.000 C 
ATOM      8  C   UNL     1       2.475   6.167  20.427  0.00  0.00    +0.000 C 
ATOM      9  C   UNL     1       2.651   4.611  18.436  0.00  0.00    +0.000 C 
ENDROOT
BRANCH   1  11
ATOM     10  C   UNL     1       1.885   1.820  18.246  0.00  0.00    +0.000 C 
ATOM     11  C   UNL     1       3.271   2.067  18.831  0.00  0.00    +0.000 C 
BRANCH  11  12
ATOM     12  O   UNL     1       4.267   1.771  17.854  0.00  0.00    +0.000 OA
ATOM     13  H   UNL     1       5.087   1.507  18.306  0.00  0.00    +0.000 HD
ENDBRANCH  11  12
ENDBRANCH   1  11
BRANCH   5  14
ATOM     14  C   UNL     1       5.276   6.794  16.825  0.00  0.00    +0.000 C 
ATOM     15  O   UNL     1       6.278   7.236  17.363  0.00  0.00    +0.000 OA
BRANCH  14  16
ATOM     16  O   UNL     1       5.148   6.802  15.477  0.00  0.00    +0.000 OA
ATOM     17  H   UNL     1       4.346   6.347  15.133  0.00  0.00    +0.000 HD
ENDBRANCH  14  16
ENDBRANCH   5  14
BRANCH   6  18
ATOM     18  S   UNL     1       2.705   8.614  17.978  0.00  0.00    +0.000 S 
BRANCH  18  19
ATOM     19  C   UNL     1       1.031   8.782  18.717  0.00  0.00    +0.000 C 
ATOM     20  C   UNL     1       0.225   9.863  17.998  0.00  0.00    +0.000 C 
ATOM     21  N   UNL     1      -0.824  10.300  18.940  0.00  0.00    +0.000 NA
ATOM     22  C   UNL     1      -0.262  10.114  20.299  0.00  0.00    +0.000 C 
ATOM     23  C   UNL     1       0.989   9.225  20.171  0.00  0.00    +0.000 C 
ATOM     24  H   UNL     1      -1.617   9.663  18.834  0.00  0.00    +0.000 HD
BRANCH  22  25
ATOM     25  C   UNL     1       0.083  11.444  20.996  0.00  0.00    +0.000 C 
BRANCH  25  26
ATOM     26  C   UNL     1      -1.028  12.068  21.741  0.00  0.00    +0.000 A 
ATOM     27  C   UNL     1      -1.842  13.182  21.337  0.00  0.00    +0.000 A 
ATOM     28  N   UNL     1      -2.838  13.343  22.306  0.00  0.00    +0.000 N 
ATOM     29  N   UNL     1      -2.721  12.402  23.233  0.00  0.00    +0.000 N 
ATOM     30  C   UNL     1      -1.636  11.575  22.943  0.00  0.00    +0.000 A 
ATOM     31  C   UNL     1      -3.800  12.404  24.185  0.00  0.00    +0.000 C 
ATOM     32  C   UNL     1      -4.616  13.653  23.800  0.00  0.00    +0.000 C 
ATOM     33  C   UNL     1      -4.013  14.161  22.473  0.00  0.00    +0.000 C 
ENDBRANCH  25  26
ENDBRANCH  22  25
ENDBRANCH  18  19
ENDBRANCH   6  18
TORSDOF 8
ENDMDL
MODEL 7
REMARK VINA RESULT:      -7.0      1.067      1.612
REMARK  Name = 
REMARK  10 active torsions:
REMARK  status: ('A' for Active; 'I' for Inactive)
REMARK    1  A    between atoms: C_1  and  C_2
REMARK    2  A    between atoms: C_2  and  O_3
REMARK    3  A    between atoms: C_2  and  C_4
REMARK    4  A    between atoms: C_8  and  C_9
REMARK    5  A    between atoms: C_9  and  O_11
REMARK    6  A    between atoms: C_12  and  S_13
REMARK    7  A    between atoms: S_13  and  C_14
REMARK    8  A    between atoms: C_17  and  C_18
REMARK    9  A    between atoms: C_18  and  C_19
REMARK   10  A    between atoms: C_28  and  C_29
REMARK                            x       y       z     vdW  Elec       q    Type
REMARK                         _______ _______ _______ _____ _____    ______ ____
ROOT
ATOM      1  C   UNL     1       0.317  11.503  18.765  0.00  0.00    +0.000 C 
ATOM      2  C   UNL     1       0.810  11.564  20.228  0.00  0.00    +0.000 C 
ATOM      3  O   UNL     1       1.462  12.290  20.941  0.00  0.00    +0.000 OA
ATOM      4  N   UNL     1       0.286  10.332  20.507  0.00  0.00    +0.000 N 
ATOM      5  C   UNL     1       1.012   9.335  21.142  0.00  0.00    +0.000 C 
ATOM      6  C   UNL     1       1.381   8.368  20.275  0.00  0.00    +0.000 C 
ATOM      7  C   UNL     1       1.101   8.822  18.844  0.00  0.00    +0.000 C 
ATOM      8  C   UNL     1       2.359   9.334  18.122  0.00  0.00    +0.000 C 
ATOM      9  C   UNL     1       0.098   9.971  19.069  0.00  0.00    +0.000 C 
ENDROOT
BRANCH   1  11
ATOM     10  C   UNL     1      -0.614  13.833  18.671  0.00  0.00    +0.000 C 
ATOM     11  C   UNL     1      -0.920  12.349  18.501  0.00  0.00    +0.000 C 
BRANCH  11  12
ATOM     12  O   UNL     1      -1.367  12.099  17.170  0.00  0.00    +0.000 OA
ATOM     13  H   UNL     1      -1.000  12.779  16.579  0.00  0.00    +0.000 HD
ENDBRANCH  11  12
ENDBRANCH   1  11
BRANCH   5  14
ATOM     14  C   UNL     1       1.300   9.413  22.604  0.00  0.00    +0.000 C 
ATOM     15  O   UNL     1       0.465   9.584  23.477  0.00  0.00    +0.000 OA
BRANCH  14  16
ATOM     16  O   UNL     1       2.616   9.313  22.908  0.00  0.00    +0.000 OA
ATOM     17  H   UNL     1       3.039   8.462  22.651  0.00  0.00    +0.000 HD
ENDBRANCH  14  16
ENDBRANCH   5  14
BRANCH   6  18
ATOM     18  S   UNL     1       2.212   6.895  20.584  0.00  0.00    +0.000 S 
BRANCH  18  19
ATOM     19  C   UNL     1       1.166   5.603  19.801  0.00  0.00    +0.000 C 
ATOM     20  C   UNL     1       1.069   4.365  20.693  0.00  0.00    +0.000 C 
ATOM     21  N   UNL     1       0.706   3.240  19.810  0.00  0.00    +0.000 NA
ATOM     22  C   UNL     1       1.282   3.555  18.480  0.00  0.00    +0.000 C 
ATOM     23  C   UNL     1       1.679   5.044  18.483  0.00  0.00    +0.000 C 
ATOM     24  H   UNL     1      -0.312   3.235  19.721  0.00  0.00    +0.000 HD
BRANCH  22  25
ATOM     25  C   UNL     1       2.490   2.670  18.121  0.00  0.00    +0.000 C 
BRANCH  25  26
ATOM     26  C   UNL     1       3.733   3.402  17.810  0.00  0.00    +0.000 A 
ATOM     27  C   UNL     1       4.793   3.761  18.713  0.00  0.00    +0.000 A 
ATOM     28  N   UNL     1       5.814   4.337  17.949  0.00  0.00    +0.000 N 
ATOM     29  N   UNL     1       5.481   4.319  16.666  0.00  0.00    +0.000 N 
ATOM     30  C   UNL     1       4.220   3.747  16.505  0.00  0.00    +0.000 A 
ATOM     31  C   UNL     1       6.543   4.756  15.797  0.00  0.00    +0.000 C 
ATOM     32  C   UNL     1       7.638   5.223  16.775  0.00  0.00    +0.000 C 
ATOM     33  C   UNL     1       7.158   4.803  18.180  0.00  0.00    +0.000 C 
ENDBRANCH  25  26
ENDBRANCH  22  25
ENDBRANCH  18  19
ENDBRANCH   6  18
TORSDOF 8
ENDMDL
MODEL 8
REMARK VINA RESULT:      -6.9      3.524      8.932
REMARK  Name = 
REMARK  10 active torsions:
REMARK  status: ('A' for Active; 'I' for Inactive)
REMARK    1  A    between atoms: C_1  and  C_2
REMARK    2  A    between atoms: C_2  and  O_3
REMARK    3  A    between atoms: C_2  and  C_4
REMARK    4  A    between atoms: C_8  and  C_9
REMARK    5  A    between atoms: C_9  and  O_11
REMARK    6  A    between atoms: C_12  and  S_13
REMARK    7  A    between atoms: S_13  and  C_14
REMARK    8  A    between atoms: C_17  and  C_18
REMARK    9  A    between atoms: C_18  and  C_19
REMARK   10  A    between atoms: C_28  and  C_29
REMARK                            x       y       z     vdW  Elec       q    Type
REMARK                         _______ _______ _______ _____ _____    ______ ____
ROOT
ATOM      1  C   UNL     1       4.916   4.766  18.101  0.00  0.00    +0.000 C 
ATOM      2  C   UNL     1       3.988   3.692  18.711  0.00  0.00    +0.000 C 
ATOM      3  O   UNL     1       3.455   2.657  18.388  0.00  0.00    +0.000 OA
ATOM      4  N   UNL     1       3.855   4.398  19.875  0.00  0.00    +0.000 N 
ATOM      5  C   UNL     1       2.624   4.653  20.461  0.00  0.00    +0.000 C 
ATOM      6  C   UNL     1       2.254   5.940  20.287  0.00  0.00    +0.000 C 
ATOM      7  C   UNL     1       3.188   6.616  19.287  0.00  0.00    +0.000 C 
ATOM      8  C   UNL     1       2.583   6.714  17.876  0.00  0.00    +0.000 C 
ATOM      9  C   UNL     1       4.400   5.661  19.293  0.00  0.00    +0.000 C 
ENDROOT
BRANCH   1  11
ATOM     10  C   UNL     1       7.051   4.739  16.781  0.00  0.00    +0.000 C 
ATOM     11  C   UNL     1       6.387   4.375  18.104  0.00  0.00    +0.000 C 
BRANCH  11  12
ATOM     12  O   UNL     1       7.036   5.059  19.173  0.00  0.00    +0.000 OA
ATOM     13  H   UNL     1       8.000   4.998  19.051  0.00  0.00    +0.000 HD
ENDBRANCH  11  12
ENDBRANCH   1  11
BRANCH   5  14
ATOM     14  C   UNL     1       1.876   3.573  21.169  0.00  0.00    +0.000 C 
ATOM     15  O   UNL     1       2.233   3.033  22.204  0.00  0.00    +0.000 OA
BRANCH  14  16
ATOM     16  O   UNL     1       0.741   3.189  20.539  0.00  0.00    +0.000 OA
ATOM     17  H   UNL     1      -0.087   3.333  21.050  0.00  0.00    +0.000 HD
ENDBRANCH  14  16
ENDBRANCH   5  14
BRANCH   6  18
ATOM     18  S   UNL     1       0.869   6.760  20.892  0.00  0.00    +0.000 S 
BRANCH  18  19
ATOM     19  C   UNL     1       1.378   8.524  20.973  0.00  0.00    +0.000 C 
ATOM     20  C   UNL     1       0.794   9.203  22.211  0.00  0.00    +0.000 C 
ATOM     21  N   UNL     1       0.782  10.651  21.928  0.00  0.00    +0.000 NA
ATOM     22  C   UNL     1       0.617  10.784  20.461  0.00  0.00    +0.000 C 
ATOM     23  C   UNL     1       0.896   9.406  19.832  0.00  0.00    +0.000 C 
ATOM     24  H   UNL     1       1.700  11.022  22.180  0.00  0.00    +0.000 HD
BRANCH  22  25
ATOM     25  C   UNL     1      -0.777  11.297  20.054  0.00  0.00    +0.000 C 
BRANCH  25  26
ATOM     26  C   UNL     1      -0.872  12.754  19.837  0.00  0.00    +0.000 A 
ATOM     27  C   UNL     1      -1.542  13.724  20.659  0.00  0.00    +0.000 A 
ATOM     28  N   UNL     1      -1.263  14.987  20.125  0.00  0.00    +0.000 N 
ATOM     29  N   UNL     1      -0.451  14.865  19.083  0.00  0.00    +0.000 N 
ATOM     30  C   UNL     1      -0.159  13.521  18.856  0.00  0.00    +0.000 A 
ATOM     31  C   UNL     1       0.007  16.129  18.569  0.00  0.00    +0.000 C 
ATOM     32  C   UNL     1      -0.786  17.161  19.394  0.00  0.00    +0.000 C 
ATOM     33  C   UNL     1      -1.510  16.357  20.495  0.00  0.00    +0.000 C 
ENDBRANCH  25  26
ENDBRANCH  22  25
ENDBRANCH  18  19
ENDBRANCH   6  18
TORSDOF 8
ENDMDL
MODEL 9
REMARK VINA RESULT:      -6.9      4.134      9.067
REMARK  Name = 
REMARK  10 active torsions:
REMARK  status: ('A' for Active; 'I' for Inactive)
REMARK    1  A    between atoms: C_1  and  C_2
REMARK    2  A    between atoms: C_2  and  O_3
REMARK    3  A    between atoms: C_2  and  C_4
REMARK    4  A    between atoms: C_8  and  C_9
REMARK    5  A    between atoms: C_9  and  O_11
REMARK    6  A    between atoms: C_12  and  S_13
REMARK    7  A    between atoms: S_13  and  C_14
REMARK    8  A    between atoms: C_17  and  C_18
REMARK    9  A    between atoms: C_18  and  C_19
REMARK   10  A    between atoms: C_28  and  C_29
REMARK                            x       y       z     vdW  Elec       q    Type
REMARK                         _______ _______ _______ _____ _____    ______ ____
ROOT
ATOM      1  C   UNL     1       5.972   3.929  15.049  0.00  0.00    +0.000 C 
ATOM      2  C   UNL     1       7.045   4.351  16.078  0.00  0.00    +0.000 C 
ATOM      3  O   UNL     1       8.132   3.990  16.462  0.00  0.00    +0.000 OA
ATOM      4  N   UNL     1       6.255   5.357  16.562  0.00  0.00    +0.000 N 
ATOM      5  C   UNL     1       6.024   5.543  17.918  0.00  0.00    +0.000 C 
ATOM      6  C   UNL     1       4.780   5.150  18.263  0.00  0.00    +0.000 C 
ATOM      7  C   UNL     1       4.135   4.396  17.103  0.00  0.00    +0.000 C 
ATOM      8  C   UNL     1       4.187   2.868  17.280  0.00  0.00    +0.000 C 
ATOM      9  C   UNL     1       5.014   4.835  15.914  0.00  0.00    +0.000 C 
ENDROOT
BRANCH   1  11
ATOM     10  C   UNL     1       7.629   5.083  13.556  0.00  0.00    +0.000 C 
ATOM     11  C   UNL     1       6.275   4.386  13.629  0.00  0.00    +0.000 C 
BRANCH  11  12
ATOM     12  O   UNL     1       6.274   3.245  12.775  0.00  0.00    +0.000 OA
ATOM     13  H   UNL     1       6.962   2.624  13.073  0.00  0.00    +0.000 HD
ENDBRANCH  11  12
ENDBRANCH   1  11
BRANCH   5  14
ATOM     14  C   UNL     1       7.084   6.109  18.802  0.00  0.00    +0.000 C 
ATOM     15  O   UNL     1       7.818   7.040  18.513  0.00  0.00    +0.000 OA
BRANCH  14  16
ATOM     16  O   UNL     1       7.208   5.468  19.988  0.00  0.00    +0.000 OA
ATOM     17  H   UNL     1       6.729   5.887  20.739  0.00  0.00    +0.000 HD
ENDBRANCH  14  16
ENDBRANCH   5  14
BRANCH   6  18
ATOM     18  S   UNL     1       3.994   5.256  19.789  0.00  0.00    +0.000 S 
BRANCH  18  19
ATOM     19  C   UNL     1       2.480   6.244  19.460  0.00  0.00    +0.000 C 
ATOM     20  C   UNL     1       2.836   7.609  18.875  0.00  0.00    +0.000 C 
ATOM     21  N   UNL     1       1.687   8.494  19.146  0.00  0.00    +0.000 NA
ATOM     22  C   UNL     1       1.071   7.998  20.401  0.00  0.00    +0.000 C 
ATOM     23  C   UNL     1       1.640   6.594  20.678  0.00  0.00    +0.000 C 
ATOM     24  H   UNL     1       1.013   8.365  18.389  0.00  0.00    +0.000 HD
BRANCH  22  25
ATOM     25  C   UNL     1       1.312   8.932  21.602  0.00  0.00    +0.000 C 
BRANCH  25  26
ATOM     26  C   UNL     1       0.273   9.958  21.818  0.00  0.00    +0.000 A 
ATOM     27  C   UNL     1      -0.651  10.057  22.914  0.00  0.00    +0.000 A 
ATOM     28  N   UNL     1      -1.361  11.251  22.754  0.00  0.00    +0.000 N 
ATOM     29  N   UNL     1      -0.918  11.899  21.685  0.00  0.00    +0.000 N 
ATOM     30  C   UNL     1       0.096  11.168  21.067  0.00  0.00    +0.000 A 
ATOM     31  C   UNL     1      -1.492  13.210  21.536  0.00  0.00    +0.000 C 
ATOM     32  C   UNL     1      -2.545  13.271  22.659  0.00  0.00    +0.000 C 
ATOM     33  C   UNL     1      -2.326  12.005  23.514  0.00  0.00    +0.000 C 
ENDBRANCH  25  26
ENDBRANCH  22  25
ENDBRANCH  18  19
ENDBRANCH   6  18
TORSDOF 8
ENDMDL
