MODEL 1
REMARK VINA RESULT:      -7.7      0.000      0.000
REMARK  Name = 
REMARK  5 active torsions:
REMARK  status: ('A' for Active; 'I' for Inactive)
REMARK    1  A    between atoms: C_1  and  O_2
REMARK    2  A    between atoms: O_2  and  C_3
REMARK    3  A    between atoms: C_3  and  C_5
REMARK    4  A    between atoms: C_7  and  C_8
REMARK    5  A    between atoms: C_10  and  C_11
REMARK                            x       y       z     vdW  Elec       q    Type
REMARK                         _______ _______ _______ _____ _____    ______ ____
ROOT
ATOM      1  C   UNL     1       6.880   4.561  17.716  0.00  0.00    +0.000 C 
ATOM      2  C   UNL     1       6.132   4.839  16.406  0.00  0.00    +0.000 C 
ATOM      3  C   UNL     1       4.648   4.809  16.776  0.00  0.00    +0.000 C 
ATOM      4  C   UNL     1       4.639   3.785  17.916  0.00  0.00    +0.000 C 
ATOM      5  N   UNL     1       5.853   4.103  18.681  0.00  0.00    +0.000 NA
ATOM      6  H   UNL     1       6.178   3.310  19.230  0.00  0.00    +0.000 HD
ENDROOT
BRANCH   4   7
ATOM      7  C   UNL     1       3.390   3.732  18.760  0.00  0.00    +0.000 A 
ATOM      8  C   UNL     1       3.267   4.448  19.964  0.00  0.00    +0.000 A 
ATOM      9  C   UNL     1       2.093   4.389  20.721  0.00  0.00    +0.000 A 
ATOM     10  C   UNL     1       1.020   3.614  20.289  0.00  0.00    +0.000 A 
ATOM     11  C   UNL     1       1.127   2.909  19.095  0.00  0.00    +0.000 A 
ATOM     12  F   UNL     1       0.092   2.165  18.678  0.00  0.00    +0.000 F 
ATOM     13  C   UNL     1       2.293   2.971  18.336  0.00  0.00    +0.000 A 
ATOM     14  F   UNL     1       2.366   2.294  17.181  0.00  0.00    +0.000 F 
ENDBRANCH   4   7
BRANCH   1  15
ATOM     15  C   UNL     1       7.636   5.812  18.191  0.00  0.00    +0.000 C 
ATOM     16  O   UNL     1       8.041   5.943  19.341  0.00  0.00    +0.000 OA
BRANCH  15  18
ATOM     17  C   UNL     1       7.747   8.092  17.649  0.00  0.00    +0.000 C 
ATOM     18  O   UNL     1       7.799   6.736  17.205  0.00  0.00    +0.000 OA
ENDBRANCH  15  18
ENDBRANCH   1  15
BRANCH   3  19
ATOM     19  C   UNL     1       4.189   6.153  17.178  0.00  0.00    +0.000 C 
ATOM     20  N   UNL     1       3.801   7.201  17.491  0.00  0.00    +0.000 NA
ENDBRANCH   3  19
TORSDOF 4
ENDMDL
MODEL 2
REMARK VINA RESULT:      -7.6      2.040      2.813
REMARK  Name = 
REMARK  5 active torsions:
REMARK  status: ('A' for Active; 'I' for Inactive)
REMARK    1  A    between atoms: C_1  and  O_2
REMARK    2  A    between atoms: O_2  and  C_3
REMARK    3  A    between atoms: C_3  and  C_5
REMARK    4  A    between atoms: C_7  and  C_8
REMARK    5  A    between atoms: C_10  and  C_11
REMARK                            x       y       z     vdW  Elec       q    Type
REMARK                         _______ _______ _______ _____ _____    ______ ____
ROOT
ATOM      1  C   UNL     1       5.788   5.558  15.717  0.00  0.00    +0.000 C 
ATOM      2  C   UNL     1       5.656   6.681  16.755  0.00  0.00    +0.000 C 
ATOM      3  C   UNL     1       4.840   6.076  17.899  0.00  0.00    +0.000 C 
ATOM      4  C   UNL     1       3.942   5.090  17.144  0.00  0.00    +0.000 C 
ATOM      5  N   UNL     1       4.837   4.503  16.137  0.00  0.00    +0.000 NA
ATOM      6  H   UNL     1       4.324   4.121  15.345  0.00  0.00    +0.000 HD
ENDROOT
BRANCH   4   7
ATOM      7  C   UNL     1       3.220   4.064  17.982  0.00  0.00    +0.000 A 
ATOM      8  C   UNL     1       3.542   2.697  17.936  0.00  0.00    +0.000 A 
ATOM      9  C   UNL     1       2.863   1.769  18.733  0.00  0.00    +0.000 A 
ATOM     10  C   UNL     1       1.850   2.191  19.589  0.00  0.00    +0.000 A 
ATOM     11  C   UNL     1       1.529   3.543  19.650  0.00  0.00    +0.000 A 
ATOM     12  F   UNL     1       0.556   3.949  20.478  0.00  0.00    +0.000 F 
ATOM     13  C   UNL     1       2.208   4.470  18.863  0.00  0.00    +0.000 A 
ATOM     14  F   UNL     1       1.890   5.770  18.950  0.00  0.00    +0.000 F 
ENDBRANCH   4   7
BRANCH   1  15
ATOM     15  C   UNL     1       7.239   5.061  15.631  0.00  0.00    +0.000 C 
ATOM     16  O   UNL     1       7.761   4.389  16.514  0.00  0.00    +0.000 OA
BRANCH  15  18
ATOM     17  C   UNL     1       7.319   4.869  13.294  0.00  0.00    +0.000 C 
ATOM     18  O   UNL     1       7.862   5.444  14.483  0.00  0.00    +0.000 OA
ENDBRANCH  15  18
ENDBRANCH   1  15
BRANCH   3  19
ATOM     19  C   UNL     1       5.730   5.436  18.886  0.00  0.00    +0.000 C 
ATOM     20  N   UNL     1       6.407   4.918  19.673  0.00  0.00    +0.000 NA
ENDBRANCH   3  19
TORSDOF 4
ENDMDL
MODEL 3
REMARK VINA RESULT:      -7.1      3.283      5.835
REMARK  Name = 
REMARK  5 active torsions:
REMARK  status: ('A' for Active; 'I' for Inactive)
REMARK    1  A    between atoms: C_1  and  O_2
REMARK    2  A    between atoms: O_2  and  C_3
REMARK    3  A    between atoms: C_3  and  C_5
REMARK    4  A    between atoms: C_7  and  C_8
REMARK    5  A    between atoms: C_10  and  C_11
REMARK                            x       y       z     vdW  Elec       q    Type
REMARK                         _______ _______ _______ _____ _____    ______ ____
ROOT
ATOM      1  C   UNL     1       1.414   3.984  18.551  0.00  0.00    +0.000 C 
ATOM      2  C   UNL     1       1.916   2.591  18.149  0.00  0.00    +0.000 C 
ATOM      3  C   UNL     1       3.394   2.780  17.803  0.00  0.00    +0.000 C 
ATOM      4  C   UNL     1       3.397   4.211  17.254  0.00  0.00    +0.000 C 
ATOM      5  N   UNL     1       2.481   4.931  18.150  0.00  0.00    +0.000 NA
ATOM      6  H   UNL     1       2.099   5.768  17.715  0.00  0.00    +0.000 HD
ENDROOT
BRANCH   4   7
ATOM      7  C   UNL     1       4.746   4.871  17.112  0.00  0.00    +0.000 A 
ATOM      8  C   UNL     1       5.282   5.706  18.108  0.00  0.00    +0.000 A 
ATOM      9  C   UNL     1       6.540   6.296  17.954  0.00  0.00    +0.000 A 
ATOM     10  C   UNL     1       7.286   6.064  16.802  0.00  0.00    +0.000 A 
ATOM     11  C   UNL     1       6.770   5.232  15.814  0.00  0.00    +0.000 A 
ATOM     12  F   UNL     1       7.491   5.005  14.706  0.00  0.00    +0.000 F 
ATOM     13  C   UNL     1       5.520   4.637  15.968  0.00  0.00    +0.000 A 
ATOM     14  F   UNL     1       5.051   3.827  15.007  0.00  0.00    +0.000 F 
ENDBRANCH   4   7
BRANCH   1  15
ATOM     15  C   UNL     1       1.094   4.039  20.052  0.00  0.00    +0.000 C 
ATOM     16  O   UNL     1       1.007   5.094  20.672  0.00  0.00    +0.000 OA
BRANCH  15  18
ATOM     17  C   UNL     1       1.675   2.576  21.791  0.00  0.00    +0.000 C 
ATOM     18  O   UNL     1       0.921   2.806  20.601  0.00  0.00    +0.000 OA
ENDBRANCH  15  18
ENDBRANCH   1  15
BRANCH   3  19
ATOM     19  C   UNL     1       4.232   2.600  19.004  0.00  0.00    +0.000 C 
ATOM     20  N   UNL     1       4.915   2.465  19.931  0.00  0.00    +0.000 NA
ENDBRANCH   3  19
TORSDOF 4
ENDMDL
MODEL 4
REMARK VINA RESULT:      -7.0      1.766      2.646
REMARK  Name = 
REMARK  5 active torsions:
REMARK  status: ('A' for Active; 'I' for Inactive)
REMARK    1  A    between atoms: C_1  and  O_2
REMARK    2  A    between atoms: O_2  and  C_3
REMARK    3  A    between atoms: C_3  and  C_5
REMARK    4  A    between atoms: C_7  and  C_8
REMARK    5  A    between atoms: C_10  and  C_11
REMARK                            x       y       z     vdW  Elec       q    Type
REMARK                         _______ _______ _______ _____ _____    ______ ____
ROOT
ATOM      1  C   UNL     1       5.400   5.455  15.882  0.00  0.00    +0.000 C 
ATOM      2  C   UNL     1       5.769   6.593  16.843  0.00  0.00    +0.000 C 
ATOM      3  C   UNL     1       4.948   6.334  18.108  0.00  0.00    +0.000 C 
ATOM      4  C   UNL     1       3.692   5.677  17.526  0.00  0.00    +0.000 C 
ATOM      5  N   UNL     1       4.216   4.791  16.477  0.00  0.00    +0.000 NA
ATOM      6  H   UNL     1       3.513   4.573  15.774  0.00  0.00    +0.000 HD
ENDROOT
BRANCH   4   7
ATOM      7  C   UNL     1       2.785   4.979  18.509  0.00  0.00    +0.000 A 
ATOM      8  C   UNL     1       2.595   5.450  19.820  0.00  0.00    +0.000 A 
ATOM      9  C   UNL     1       1.739   4.788  20.706  0.00  0.00    +0.000 A 
ATOM     10  C   UNL     1       1.058   3.644  20.299  0.00  0.00    +0.000 A 
ATOM     11  C   UNL     1       1.231   3.175  19.001  0.00  0.00    +0.000 A 
ATOM     12  F   UNL     1       0.572   2.075  18.609  0.00  0.00    +0.000 F 
ATOM     13  C   UNL     1       2.078   3.835  18.114  0.00  0.00    +0.000 A 
ATOM     14  F   UNL     1       2.217   3.371  16.864  0.00  0.00    +0.000 F 
ENDBRANCH   4   7
BRANCH   1  15
ATOM     15  C   UNL     1       6.588   4.501  15.681  0.00  0.00    +0.000 C 
ATOM     16  O   UNL     1       7.668   4.664  16.239  0.00  0.00    +0.000 OA
BRANCH  15  18
ATOM     17  C   UNL     1       6.196   3.857  13.460  0.00  0.00    +0.000 C 
ATOM     18  O   UNL     1       6.305   3.477  14.832  0.00  0.00    +0.000 OA
ENDBRANCH  15  18
ENDBRANCH   1  15
BRANCH   3  19
ATOM     19  C   UNL     1       5.696   5.470  19.041  0.00  0.00    +0.000 C 
ATOM     20  N   UNL     1       6.261   4.773  19.776  0.00  0.00    +0.000 NA
ENDBRANCH   3  19
TORSDOF 4
ENDMDL
MODEL 5
REMARK VINA RESULT:      -6.9      1.447      1.819
REMARK  Name = 
REMARK  5 active torsions:
REMARK  status: ('A' for Active; 'I' for Inactive)
REMARK    1  A    between atoms: C_1  and  O_2
REMARK    2  A    between atoms: O_2  and  C_3
REMARK    3  A    between atoms: C_3  and  C_5
REMARK    4  A    between atoms: C_7  and  C_8
REMARK    5  A    between atoms: C_10  and  C_11
REMARK                            x       y       z     vdW  Elec       q    Type
REMARK                         _______ _______ _______ _____ _____    ______ ____
ROOT
ATOM      1  C   UNL     1       6.920   4.543  17.530  0.00  0.00    +0.000 C 
ATOM      2  C   UNL     1       6.233   4.912  16.208  0.00  0.00    +0.000 C 
ATOM      3  C   UNL     1       4.733   4.858  16.505  0.00  0.00    +0.000 C 
ATOM      4  C   UNL     1       4.674   3.756  17.568  0.00  0.00    +0.000 C 
ATOM      5  N   UNL     1       5.849   4.019  18.410  0.00  0.00    +0.000 NA
ATOM      6  H   UNL     1       6.151   3.189  18.917  0.00  0.00    +0.000 HD
ENDROOT
BRANCH   4   7
ATOM      7  C   UNL     1       3.386   3.644  18.346  0.00  0.00    +0.000 A 
ATOM      8  C   UNL     1       2.322   2.829  17.922  0.00  0.00    +0.000 A 
ATOM      9  C   UNL     1       1.144   2.736  18.669  0.00  0.00    +0.000 A 
ATOM     10  C   UNL     1       1.007   3.456  19.853  0.00  0.00    +0.000 A 
ATOM     11  C   UNL     1       2.057   4.258  20.287  0.00  0.00    +0.000 A 
ATOM     12  F   UNL     1       1.926   4.947  21.429  0.00  0.00    +0.000 F 
ATOM     13  C   UNL     1       3.234   4.347  19.548  0.00  0.00    +0.000 A 
ATOM     14  F   UNL     1       4.238   5.116  19.995  0.00  0.00    +0.000 F 
ENDBRANCH   4   7
BRANCH   1  15
ATOM     15  C   UNL     1       7.648   5.758  18.126  0.00  0.00    +0.000 C 
ATOM     16  O   UNL     1       8.030   5.793  19.291  0.00  0.00    +0.000 OA
BRANCH  15  18
ATOM     17  C   UNL     1       7.856   8.072  17.804  0.00  0.00    +0.000 C 
ATOM     18  O   UNL     1       7.816   6.766  17.229  0.00  0.00    +0.000 OA
ENDBRANCH  15  18
ENDBRANCH   1  15
BRANCH   3  19
ATOM     19  C   UNL     1       4.252   6.170  16.978  0.00  0.00    +0.000 C 
ATOM     20  N   UNL     1       3.853   7.187  17.366  0.00  0.00    +0.000 NA
ENDBRANCH   3  19
TORSDOF 4
ENDMDL
MODEL 6
REMARK VINA RESULT:      -6.9      1.463      1.674
REMARK  Name = 
REMARK  5 active torsions:
REMARK  status: ('A' for Active; 'I' for Inactive)
REMARK    1  A    between atoms: C_1  and  O_2
REMARK    2  A    between atoms: O_2  and  C_3
REMARK    3  A    between atoms: C_3  and  C_5
REMARK    4  A    between atoms: C_7  and  C_8
REMARK    5  A    between atoms: C_10  and  C_11
REMARK                            x       y       z     vdW  Elec       q    Type
REMARK                         _______ _______ _______ _____ _____    ______ ____
ROOT
ATOM      1  C   UNL     1       6.791   4.445  17.504  0.00  0.00    +0.000 C 
ATOM      2  C   UNL     1       5.973   4.858  16.273  0.00  0.00    +0.000 C 
ATOM      3  C   UNL     1       4.510   4.752  16.708  0.00  0.00    +0.000 C 
ATOM      4  C   UNL     1       4.575   3.600  17.716  0.00  0.00    +0.000 C 
ATOM      5  N   UNL     1       5.821   3.853  18.455  0.00  0.00    +0.000 NA
ATOM      6  H   UNL     1       6.186   3.008  18.890  0.00  0.00    +0.000 HD
ENDROOT
BRANCH   4   7
ATOM      7  C   UNL     1       3.371   3.419  18.606  0.00  0.00    +0.000 A 
ATOM      8  C   UNL     1       2.064   3.695  18.165  0.00  0.00    +0.000 A 
ATOM      9  C   UNL     1       0.965   3.508  19.009  0.00  0.00    +0.000 A 
ATOM     10  C   UNL     1       1.151   3.043  20.308  0.00  0.00    +0.000 A 
ATOM     11  C   UNL     1       2.438   2.758  20.751  0.00  0.00    +0.000 A 
ATOM     12  F   UNL     1       2.615   2.306  22.001  0.00  0.00    +0.000 F 
ATOM     13  C   UNL     1       3.534   2.937  19.911  0.00  0.00    +0.000 A 
ATOM     14  F   UNL     1       4.764   2.642  20.358  0.00  0.00    +0.000 F 
ENDBRANCH   4   7
BRANCH   1  15
ATOM     15  C   UNL     1       7.548   5.648  18.088  0.00  0.00    +0.000 C 
ATOM     16  O   UNL     1       7.931   5.686  19.252  0.00  0.00    +0.000 OA
BRANCH  15  18
ATOM     17  C   UNL     1       7.780   7.956  17.739  0.00  0.00    +0.000 C 
ATOM     18  O   UNL     1       7.739   6.643  17.180  0.00  0.00    +0.000 OA
ENDBRANCH  15  18
ENDBRANCH   1  15
BRANCH   3  19
ATOM     19  C   UNL     1       4.050   6.028  17.288  0.00  0.00    +0.000 C 
ATOM     20  N   UNL     1       3.665   7.016  17.758  0.00  0.00    +0.000 NA
ENDBRANCH   3  19
TORSDOF 4
ENDMDL
MODEL 7
REMARK VINA RESULT:      -6.9      3.325      5.922
REMARK  Name = 
REMARK  5 active torsions:
REMARK  status: ('A' for Active; 'I' for Inactive)
REMARK    1  A    between atoms: C_1  and  O_2
REMARK    2  A    between atoms: O_2  and  C_3
REMARK    3  A    between atoms: C_3  and  C_5
REMARK    4  A    between atoms: C_7  and  C_8
REMARK    5  A    between atoms: C_10  and  C_11
REMARK                            x       y       z     vdW  Elec       q    Type
REMARK                         _______ _______ _______ _____ _____    ______ ____
ROOT
ATOM      1  C   UNL     1       1.395   3.829  18.632  0.00  0.00    +0.000 C 
ATOM      2  C   UNL     1       1.747   2.367  18.329  0.00  0.00    +0.000 C 
ATOM      3  C   UNL     1       3.224   2.383  17.930  0.00  0.00    +0.000 C 
ATOM      4  C   UNL     1       3.345   3.760  17.269  0.00  0.00    +0.000 C 
ATOM      5  N   UNL     1       2.533   4.633  18.129  0.00  0.00    +0.000 NA
ATOM      6  H   UNL     1       2.218   5.468  17.638  0.00  0.00    +0.000 HD
ENDROOT
BRANCH   4   7
ATOM      7  C   UNL     1       4.745   4.273  17.038  0.00  0.00    +0.000 A 
ATOM      8  C   UNL     1       5.468   3.979  15.869  0.00  0.00    +0.000 A 
ATOM      9  C   UNL     1       6.761   4.477  15.677  0.00  0.00    +0.000 A 
ATOM     10  C   UNL     1       7.355   5.276  16.650  0.00  0.00    +0.000 A 
ATOM     11  C   UNL     1       6.645   5.581  17.807  0.00  0.00    +0.000 A 
ATOM     12  F   UNL     1       7.217   6.354  18.741  0.00  0.00    +0.000 F 
ATOM     13  C   UNL     1       5.355   5.092  17.997  0.00  0.00    +0.000 A 
ATOM     14  F   UNL     1       4.686   5.412  19.115  0.00  0.00    +0.000 F 
ENDBRANCH   4   7
BRANCH   1  15
ATOM     15  C   UNL     1       1.133   4.030  20.132  0.00  0.00    +0.000 C 
ATOM     16  O   UNL     1       1.155   5.134  20.666  0.00  0.00    +0.000 OA
BRANCH  15  18
ATOM     17  C   UNL     1       1.695   2.636  21.934  0.00  0.00    +0.000 C 
ATOM     18  O   UNL     1       0.878   2.864  20.785  0.00  0.00    +0.000 OA
ENDBRANCH  15  18
ENDBRANCH   1  15
BRANCH   3  19
ATOM     19  C   UNL     1       4.082   2.215  19.118  0.00  0.00    +0.000 C 
ATOM     20  N   UNL     1       4.754   2.111  20.058  0.00  0.00    +0.000 NA
ENDBRANCH   3  19
TORSDOF 4
ENDMDL
MODEL 8
REMARK VINA RESULT:      -6.9      1.606      2.091
REMARK  Name = 
REMARK  5 active torsions:
REMARK  status: ('A' for Active; 'I' for Inactive)
REMARK    1  A    between atoms: C_1  and  O_2
REMARK    2  A    between atoms: O_2  and  C_3
REMARK    3  A    between atoms: C_3  and  C_5
REMARK    4  A    between atoms: C_7  and  C_8
REMARK    5  A    between atoms: C_10  and  C_11
REMARK                            x       y       z     vdW  Elec       q    Type
REMARK                         _______ _______ _______ _____ _____    ______ ____
ROOT
ATOM      1  C   UNL     1       7.342   5.894  18.587  0.00  0.00    +0.000 C 
ATOM      2  C   UNL     1       7.702   4.699  17.696  0.00  0.00    +0.000 C 
ATOM      3  C   UNL     1       6.366   4.045  17.340  0.00  0.00    +0.000 C 
ATOM      4  C   UNL     1       5.539   4.340  18.595  0.00  0.00    +0.000 C 
ATOM      5  N   UNL     1       5.915   5.717  18.945  0.00  0.00    +0.000 NA
ATOM      6  H   UNL     1       5.744   5.924  19.927  0.00  0.00    +0.000 HD
ENDROOT
BRANCH   4   7
ATOM      7  C   UNL     1       4.049   4.131  18.481  0.00  0.00    +0.000 A 
ATOM      8  C   UNL     1       3.186   5.130  17.997  0.00  0.00    +0.000 A 
ATOM      9  C   UNL     1       1.810   4.905  17.892  0.00  0.00    +0.000 A 
ATOM     10  C   UNL     1       1.271   3.678  18.269  0.00  0.00    +0.000 A 
ATOM     11  C   UNL     1       2.116   2.680  18.741  0.00  0.00    +0.000 A 
ATOM     12  F   UNL     1       1.596   1.497  19.100  0.00  0.00    +0.000 F 
ATOM     13  C   UNL     1       3.488   2.899  18.840  0.00  0.00    +0.000 A 
ATOM     14  F   UNL     1       4.284   1.915  19.285  0.00  0.00    +0.000 F 
ENDBRANCH   4   7
BRANCH   1  15
ATOM     15  C   UNL     1       7.620   7.221  17.863  0.00  0.00    +0.000 C 
ATOM     16  O   UNL     1       7.110   7.505  16.784  0.00  0.00    +0.000 OA
BRANCH  15  18
ATOM     17  C   UNL     1       8.419   9.404  18.178  0.00  0.00    +0.000 C 
ATOM     18  O   UNL     1       8.478   8.025  18.546  0.00  0.00    +0.000 OA
ENDBRANCH  15  18
ENDBRANCH   1  15
BRANCH   3  19
ATOM     19  C   UNL     1       5.812   4.638  16.108  0.00  0.00    +0.000 C 
ATOM     20  N   UNL     1       5.364   5.125  15.155  0.00  0.00    +0.000 NA
ENDBRANCH   3  19
TORSDOF 4
ENDMDL
MODEL 9
REMARK VINA RESULT:      -6.7      1.232      1.497
REMARK  Name = 
REMARK  5 active torsions:
REMARK  status: ('A' for Active; 'I' for Inactive)
REMARK    1  A    between atoms: C_1  and  O_2
REMARK    2  A    between atoms: O_2  and  C_3
REMARK    3  A    between atoms: C_3  and  C_5
REMARK    4  A    between atoms: C_7  and  C_8
REMARK    5  A    between atoms: C_10  and  C_11
REMARK                            x       y       z     vdW  Elec       q    Type
REMARK                         _______ _______ _______ _____ _____    ______ ____
ROOT
ATOM      1  C   UNL     1       6.231   4.345  16.729  0.00  0.00    +0.000 C 
ATOM      2  C   UNL     1       5.098   5.067  15.988  0.00  0.00    +0.000 C 
ATOM      3  C   UNL     1       3.870   4.919  16.888  0.00  0.00    +0.000 C 
ATOM      4  C   UNL     1       4.138   3.561  17.546  0.00  0.00    +0.000 C 
ATOM      5  N   UNL     1       5.581   3.584  17.822  0.00  0.00    +0.000 NA
ATOM      6  H   UNL     1       5.969   2.648  17.912  0.00  0.00    +0.000 HD
ENDROOT
BRANCH   4   7
ATOM      7  C   UNL     1       3.297   3.223  18.752  0.00  0.00    +0.000 A 
ATOM      8  C   UNL     1       3.864   2.964  20.013  0.00  0.00    +0.000 A 
ATOM      9  C   UNL     1       3.060   2.665  21.116  0.00  0.00    +0.000 A 
ATOM     10  C   UNL     1       1.675   2.618  20.982  0.00  0.00    +0.000 A 
ATOM     11  C   UNL     1       1.103   2.882  19.742  0.00  0.00    +0.000 A 
ATOM     12  F   UNL     1      -0.231   2.841  19.614  0.00  0.00    +0.000 F 
ATOM     13  C   UNL     1       1.901   3.187  18.642  0.00  0.00    +0.000 A 
ATOM     14  F   UNL     1       1.324   3.452  17.460  0.00  0.00    +0.000 F 
ENDBRANCH   4   7
BRANCH   1  15
ATOM     15  C   UNL     1       7.281   5.347  17.235  0.00  0.00    +0.000 C 
ATOM     16  O   UNL     1       7.515   6.405  16.661  0.00  0.00    +0.000 OA
BRANCH  15  18
ATOM     17  C   UNL     1       7.717   5.789  19.497  0.00  0.00    +0.000 C 
ATOM     18  O   UNL     1       7.903   4.931  18.371  0.00  0.00    +0.000 OA
ENDBRANCH  15  18
ENDBRANCH   1  15
BRANCH   3  19
ATOM     19  C   UNL     1       3.792   6.039  17.844  0.00  0.00    +0.000 C 
ATOM     20  N   UNL     1       3.740   6.903  18.617  0.00  0.00    +0.000 NA
ENDBRANCH   3  19
TORSDOF 4
ENDMDL
