MODEL 1
REMARK VINA RESULT:      -7.6      0.000      0.000
REMARK  Name = 
REMARK  8 active torsions:
REMARK  status: ('A' for Active; 'I' for Inactive)
REMARK    1  A    between atoms: C_1  and  O_2
REMARK    2  A    between atoms: O_2  and  C_3
REMARK    3  A    between atoms: C_8  and  C_9
REMARK    4  A    between atoms: N_11  and  C_12
REMARK    5  A    between atoms: C_12  and  C_13
REMARK    6  A    between atoms: C_17  and  N_18
REMARK    7  A    between atoms: N_18  and  C_19
REMARK    8  A    between atoms: N_18  and  C_20
REMARK                            x       y       z     vdW  Elec       q    Type
REMARK                         _______ _______ _______ _____ _____    ______ ____
ROOT
ATOM      1  C   UNL     1       5.142   4.145  17.766  0.00  0.00    +0.000 C 
ATOM      2  O   UNL     1       6.071   4.060  18.569  0.00  0.00    +0.000 OA
ATOM      3  N   UNL     1       5.344   4.583  16.480  0.00  0.00    +0.000 N 
ATOM      4  H   UNL     1       4.578   4.606  15.816  0.00  0.00    +0.000 HD
ENDROOT
BRANCH   1  10
ATOM      5  C   UNL     1       2.640   4.611  18.224  0.00  0.00    +0.000 A 
ATOM      6  C   UNL     1       1.399   4.097  18.637  0.00  0.00    +0.000 A 
ATOM      7  C   UNL     1       1.250   2.754  18.982  0.00  0.00    +0.000 A 
ATOM      8  C   UNL     1       2.344   1.901  18.932  0.00  0.00    +0.000 A 
ATOM      9  C   UNL     1       3.586   2.397  18.539  0.00  0.00    +0.000 A 
ATOM     10  C   UNL     1       3.756   3.751  18.181  0.00  0.00    +0.000 A 
BRANCH   5  12
ATOM     11  C   UNL     1       2.542   6.885  18.916  0.00  0.00    +0.000 C 
ATOM     12  O   UNL     1       2.816   5.931  17.893  0.00  0.00    +0.000 OA
ENDBRANCH   5  12
ENDBRANCH   1  10
BRANCH   3  13
ATOM     13  C   UNL     1       6.675   4.914  16.010  0.00  0.00    +0.000 C 
BRANCH  13  14
ATOM     14  C   UNL     1       6.881   4.774  14.517  0.00  0.00    +0.000 A 
ATOM     15  N   UNL     1       7.864   5.512  13.974  0.00  0.00    +0.000 NA
ATOM     16  C   UNL     1       8.066   5.335  12.665  0.00  0.00    +0.000 A 
ATOM     17  C   UNL     1       7.342   4.455  11.894  0.00  0.00    +0.000 A 
ATOM     18  C   UNL     1       6.347   3.713  12.508  0.00  0.00    +0.000 A 
ATOM     19  N   UNL     1       6.124   3.883  13.830  0.00  0.00    +0.000 NA
BRANCH  18  20
ATOM     20  N   UNL     1       5.589   2.780  11.821  0.00  0.00    +0.000 N 
ATOM     21  C   UNL     1       4.224   3.111  11.437  0.00  0.00    +0.000 C 
ATOM     22  C   UNL     1       6.081   1.503  11.326  0.00  0.00    +0.000 C 
ENDBRANCH  18  20
ENDBRANCH  13  14
ENDBRANCH   3  13
TORSDOF 5
ENDMDL
MODEL 2
REMARK VINA RESULT:      -7.3      0.675      1.014
REMARK  Name = 
REMARK  8 active torsions:
REMARK  status: ('A' for Active; 'I' for Inactive)
REMARK    1  A    between atoms: C_1  and  O_2
REMARK    2  A    between atoms: O_2  and  C_3
REMARK    3  A    between atoms: C_8  and  C_9
REMARK    4  A    between atoms: N_11  and  C_12
REMARK    5  A    between atoms: C_12  and  C_13
REMARK    6  A    between atoms: C_17  and  N_18
REMARK    7  A    between atoms: N_18  and  C_19
REMARK    8  A    between atoms: N_18  and  C_20
REMARK                            x       y       z     vdW  Elec       q    Type
REMARK                         _______ _______ _______ _____ _____    ______ ____
ROOT
ATOM      1  C   UNL     1       5.057   3.917  18.114  0.00  0.00    +0.000 C 
ATOM      2  O   UNL     1       5.931   4.044  18.971  0.00  0.00    +0.000 OA
ATOM      3  N   UNL     1       5.345   4.017  16.775  0.00  0.00    +0.000 N 
ATOM      4  H   UNL     1       4.623   3.867  16.078  0.00  0.00    +0.000 HD
ENDROOT
BRANCH   1  10
ATOM      5  C   UNL     1       2.817   4.497  19.269  0.00  0.00    +0.000 A 
ATOM      6  C   UNL     1       1.509   4.089  19.582  0.00  0.00    +0.000 A 
ATOM      7  C   UNL     1       1.011   2.859  19.152  0.00  0.00    +0.000 A 
ATOM      8  C   UNL     1       1.818   2.007  18.410  0.00  0.00    +0.000 A 
ATOM      9  C   UNL     1       3.123   2.389  18.104  0.00  0.00    +0.000 A 
ATOM     10  C   UNL     1       3.643   3.630  18.525  0.00  0.00    +0.000 A 
BRANCH   5  12
ATOM     11  C   UNL     1       2.508   6.842  19.517  0.00  0.00    +0.000 C 
ATOM     12  O   UNL     1       3.335   5.695  19.692  0.00  0.00    +0.000 OA
ENDBRANCH   5  12
ENDBRANCH   1  10
BRANCH   3  13
ATOM     13  C   UNL     1       6.707   4.228  16.324  0.00  0.00    +0.000 C 
BRANCH  13  14
ATOM     14  C   UNL     1       6.865   4.412  14.829  0.00  0.00    +0.000 A 
ATOM     15  N   UNL     1       7.803   5.286  14.428  0.00  0.00    +0.000 NA
ATOM     16  C   UNL     1       7.966   5.395  13.106  0.00  0.00    +0.000 A 
ATOM     17  C   UNL     1       7.247   4.666  12.186  0.00  0.00    +0.000 A 
ATOM     18  C   UNL     1       6.300   3.773  12.657  0.00  0.00    +0.000 A 
ATOM     19  N   UNL     1       6.116   3.655  13.991  0.00  0.00    +0.000 NA
BRANCH  18  20
ATOM     20  N   UNL     1       5.551   2.974  11.810  0.00  0.00    +0.000 N 
ATOM     21  C   UNL     1       6.041   1.650  11.455  0.00  0.00    +0.000 C 
ATOM     22  C   UNL     1       4.220   3.295  11.318  0.00  0.00    +0.000 C 
ENDBRANCH  18  20
ENDBRANCH  13  14
ENDBRANCH   3  13
TORSDOF 5
ENDMDL
MODEL 3
REMARK VINA RESULT:      -7.0      1.475      2.636
REMARK  Name = 
REMARK  8 active torsions:
REMARK  status: ('A' for Active; 'I' for Inactive)
REMARK    1  A    between atoms: C_1  and  O_2
REMARK    2  A    between atoms: O_2  and  C_3
REMARK    3  A    between atoms: C_8  and  C_9
REMARK    4  A    between atoms: N_11  and  C_12
REMARK    5  A    between atoms: C_12  and  C_13
REMARK    6  A    between atoms: C_17  and  N_18
REMARK    7  A    between atoms: N_18  and  C_19
REMARK    8  A    between atoms: N_18  and  C_20
REMARK                            x       y       z     vdW  Elec       q    Type
REMARK                         _______ _______ _______ _____ _____    ______ ____
ROOT
ATOM      1  C   UNL     1       5.712   6.129  17.177  0.00  0.00    +0.000 C 
ATOM      2  O   UNL     1       6.561   6.998  16.977  0.00  0.00    +0.000 OA
ATOM      3  N   UNL     1       5.898   4.836  16.754  0.00  0.00    +0.000 N 
ATOM      4  H   UNL     1       5.210   4.120  16.964  0.00  0.00    +0.000 HD
ENDROOT
BRANCH   1  10
ATOM      5  C   UNL     1       3.958   5.798  19.047  0.00  0.00    +0.000 A 
ATOM      6  C   UNL     1       2.756   6.234  19.629  0.00  0.00    +0.000 A 
ATOM      7  C   UNL     1       2.057   7.328  19.118  0.00  0.00    +0.000 A 
ATOM      8  C   UNL     1       2.544   8.000  18.005  0.00  0.00    +0.000 A 
ATOM      9  C   UNL     1       3.727   7.572  17.406  0.00  0.00    +0.000 A 
ATOM     10  C   UNL     1       4.450   6.472  17.911  0.00  0.00    +0.000 A 
BRANCH   5  12
ATOM     11  C   UNL     1       4.016   3.448  19.410  0.00  0.00    +0.000 C 
ATOM     12  O   UNL     1       4.656   4.717  19.523  0.00  0.00    +0.000 OA
ENDBRANCH   5  12
ENDBRANCH   1  10
BRANCH   3  13
ATOM     13  C   UNL     1       7.128   4.439  16.098  0.00  0.00    +0.000 C 
BRANCH  13  14
ATOM     14  C   UNL     1       7.105   4.525  14.587  0.00  0.00    +0.000 A 
ATOM     15  N   UNL     1       7.938   5.416  14.023  0.00  0.00    +0.000 NA
ATOM     16  C   UNL     1       7.943   5.440  12.687  0.00  0.00    +0.000 A 
ATOM     17  C   UNL     1       7.169   4.612  11.906  0.00  0.00    +0.000 A 
ATOM     18  C   UNL     1       6.336   3.706  12.541  0.00  0.00    +0.000 A 
ATOM     19  N   UNL     1       6.312   3.672  13.892  0.00  0.00    +0.000 NA
BRANCH  18  20
ATOM     20  N   UNL     1       5.545   2.812  11.841  0.00  0.00    +0.000 N 
ATOM     21  C   UNL     1       4.204   3.209  11.434  0.00  0.00    +0.000 C 
ATOM     22  C   UNL     1       5.982   1.512  11.354  0.00  0.00    +0.000 C 
ENDBRANCH  18  20
ENDBRANCH  13  14
ENDBRANCH   3  13
TORSDOF 5
ENDMDL
MODEL 4
REMARK VINA RESULT:      -7.0      1.280      2.133
REMARK  Name = 
REMARK  8 active torsions:
REMARK  status: ('A' for Active; 'I' for Inactive)
REMARK    1  A    between atoms: C_1  and  O_2
REMARK    2  A    between atoms: O_2  and  C_3
REMARK    3  A    between atoms: C_8  and  C_9
REMARK    4  A    between atoms: N_11  and  C_12
REMARK    5  A    between atoms: C_12  and  C_13
REMARK    6  A    between atoms: C_17  and  N_18
REMARK    7  A    between atoms: N_18  and  C_19
REMARK    8  A    between atoms: N_18  and  C_20
REMARK                            x       y       z     vdW  Elec       q    Type
REMARK                         _______ _______ _______ _____ _____    ______ ____
ROOT
ATOM      1  C   UNL     1       5.676   4.620  18.132  0.00  0.00    +0.000 C 
ATOM      2  O   UNL     1       6.651   4.452  18.865  0.00  0.00    +0.000 OA
ATOM      3  N   UNL     1       5.811   4.694  16.767  0.00  0.00    +0.000 N 
ATOM      4  H   UNL     1       4.994   4.787  16.172  0.00  0.00    +0.000 HD
ENDROOT
BRANCH   1  10
ATOM      5  C   UNL     1       3.552   3.659  19.249  0.00  0.00    +0.000 A 
ATOM      6  C   UNL     1       2.274   3.918  19.775  0.00  0.00    +0.000 A 
ATOM      7  C   UNL     1       1.751   5.210  19.807  0.00  0.00    +0.000 A 
ATOM      8  C   UNL     1       2.493   6.269  19.301  0.00  0.00    +0.000 A 
ATOM      9  C   UNL     1       3.755   6.029  18.763  0.00  0.00    +0.000 A 
ATOM     10  C   UNL     1       4.304   4.730  18.726  0.00  0.00    +0.000 A 
BRANCH   5  12
ATOM     11  C   UNL     1       4.581   1.861  20.418  0.00  0.00    +0.000 C 
ATOM     12  O   UNL     1       4.083   2.395  19.194  0.00  0.00    +0.000 OA
ENDBRANCH   5  12
ENDBRANCH   1  10
BRANCH   3  13
ATOM     13  C   UNL     1       7.107   4.527  16.139  0.00  0.00    +0.000 C 
BRANCH  13  14
ATOM     14  C   UNL     1       7.098   4.585  14.626  0.00  0.00    +0.000 A 
ATOM     15  N   UNL     1       7.942   5.461  14.054  0.00  0.00    +0.000 NA
ATOM     16  C   UNL     1       7.960   5.460  12.718  0.00  0.00    +0.000 A 
ATOM     17  C   UNL     1       7.187   4.623  11.946  0.00  0.00    +0.000 A 
ATOM     18  C   UNL     1       6.343   3.734  12.589  0.00  0.00    +0.000 A 
ATOM     19  N   UNL     1       6.306   3.725  13.940  0.00  0.00    +0.000 NA
BRANCH  18  20
ATOM     20  N   UNL     1       5.552   2.832  11.897  0.00  0.00    +0.000 N 
ATOM     21  C   UNL     1       4.206   3.220  11.498  0.00  0.00    +0.000 C 
ATOM     22  C   UNL     1       5.994   1.533  11.412  0.00  0.00    +0.000 C 
ENDBRANCH  18  20
ENDBRANCH  13  14
ENDBRANCH   3  13
TORSDOF 5
ENDMDL
MODEL 5
REMARK VINA RESULT:      -6.9      1.124      1.987
REMARK  Name = 
REMARK  8 active torsions:
REMARK  status: ('A' for Active; 'I' for Inactive)
REMARK    1  A    between atoms: C_1  and  O_2
REMARK    2  A    between atoms: O_2  and  C_3
REMARK    3  A    between atoms: C_8  and  C_9
REMARK    4  A    between atoms: N_11  and  C_12
REMARK    5  A    between atoms: C_12  and  C_13
REMARK    6  A    between atoms: C_17  and  N_18
REMARK    7  A    between atoms: N_18  and  C_19
REMARK    8  A    between atoms: N_18  and  C_20
REMARK                            x       y       z     vdW  Elec       q    Type
REMARK                         _______ _______ _______ _____ _____    ______ ____
ROOT
ATOM      1  C   UNL     1       5.036   4.173  18.022  0.00  0.00    +0.000 C 
ATOM      2  O   UNL     1       5.812   4.668  18.840  0.00  0.00    +0.000 OA
ATOM      3  N   UNL     1       5.386   4.022  16.703  0.00  0.00    +0.000 N 
ATOM      4  H   UNL     1       4.754   3.573  16.049  0.00  0.00    +0.000 HD
ENDROOT
BRANCH   1  10
ATOM      5  C   UNL     1       3.422   2.909  19.598  0.00  0.00    +0.000 A 
ATOM      6  C   UNL     1       2.095   2.548  19.887  0.00  0.00    +0.000 A 
ATOM      7  C   UNL     1       1.036   2.979  19.089  0.00  0.00    +0.000 A 
ATOM      8  C   UNL     1       1.286   3.772  17.977  0.00  0.00    +0.000 A 
ATOM      9  C   UNL     1       2.597   4.127  17.667  0.00  0.00    +0.000 A 
ATOM     10  C   UNL     1       3.681   3.706  18.464  0.00  0.00    +0.000 A 
BRANCH   5  12
ATOM     11  C   UNL     1       4.933   1.153  20.137  0.00  0.00    +0.000 C 
ATOM     12  O   UNL     1       4.482   2.487  20.360  0.00  0.00    +0.000 OA
ENDBRANCH   5  12
ENDBRANCH   1  10
BRANCH   3  13
ATOM     13  C   UNL     1       6.707   4.398  16.239  0.00  0.00    +0.000 C 
BRANCH  13  14
ATOM     14  C   UNL     1       6.863   4.463  14.734  0.00  0.00    +0.000 A 
ATOM     15  N   UNL     1       7.810   5.291  14.264  0.00  0.00    +0.000 NA
ATOM     16  C   UNL     1       7.971   5.295  12.937  0.00  0.00    +0.000 A 
ATOM     17  C   UNL     1       7.239   4.506  12.079  0.00  0.00    +0.000 A 
ATOM     18  C   UNL     1       6.283   3.663  12.620  0.00  0.00    +0.000 A 
ATOM     19  N   UNL     1       6.102   3.651  13.959  0.00  0.00    +0.000 NA
BRANCH  18  20
ATOM     20  N   UNL     1       5.522   2.810  11.839  0.00  0.00    +0.000 N 
ATOM     21  C   UNL     1       4.212   3.243  11.375  0.00  0.00    +0.000 C 
ATOM     22  C   UNL     1       5.969   1.525  11.324  0.00  0.00    +0.000 C 
ENDBRANCH  18  20
ENDBRANCH  13  14
ENDBRANCH   3  13
TORSDOF 5
ENDMDL
MODEL 6
REMARK VINA RESULT:      -6.7      1.468      2.605
REMARK  Name = 
REMARK  8 active torsions:
REMARK  status: ('A' for Active; 'I' for Inactive)
REMARK    1  A    between atoms: C_1  and  O_2
REMARK    2  A    between atoms: O_2  and  C_3
REMARK    3  A    between atoms: C_8  and  C_9
REMARK    4  A    between atoms: N_11  and  C_12
REMARK    5  A    between atoms: C_12  and  C_13
REMARK    6  A    between atoms: C_17  and  N_18
REMARK    7  A    between atoms: N_18  and  C_19
REMARK    8  A    between atoms: N_18  and  C_20
REMARK                            x       y       z     vdW  Elec       q    Type
REMARK                         _______ _______ _______ _____ _____    ______ ____
ROOT
ATOM      1  C   UNL     1       4.859   4.839  17.311  0.00  0.00    +0.000 C 
ATOM      2  O   UNL     1       4.503   3.670  17.164  0.00  0.00    +0.000 OA
ATOM      3  N   UNL     1       6.092   5.271  16.887  0.00  0.00    +0.000 N 
ATOM      4  H   UNL     1       6.356   6.246  16.974  0.00  0.00    +0.000 HD
ENDROOT
BRANCH   1  10
ATOM      5  C   UNL     1       3.302   5.667  19.202  0.00  0.00    +0.000 A 
ATOM      6  C   UNL     1       2.455   6.684  19.673  0.00  0.00    +0.000 A 
ATOM      7  C   UNL     1       2.245   7.852  18.940  0.00  0.00    +0.000 A 
ATOM      8  C   UNL     1       2.872   8.019  17.712  0.00  0.00    +0.000 A 
ATOM      9  C   UNL     1       3.704   7.014  17.222  0.00  0.00    +0.000 A 
ATOM     10  C   UNL     1       3.932   5.828  17.951  0.00  0.00    +0.000 A 
BRANCH   5  12
ATOM     11  C   UNL     1       2.384   3.954  20.573  0.00  0.00    +0.000 C 
ATOM     12  O   UNL     1       3.512   4.503  19.897  0.00  0.00    +0.000 OA
ENDBRANCH   5  12
ENDBRANCH   1  10
BRANCH   3  13
ATOM     13  C   UNL     1       6.999   4.369  16.204  0.00  0.00    +0.000 C 
BRANCH  13  14
ATOM     14  C   UNL     1       7.029   4.511  14.697  0.00  0.00    +0.000 A 
ATOM     15  N   UNL     1       7.911   5.391  14.194  0.00  0.00    +0.000 NA
ATOM     16  C   UNL     1       7.962   5.464  12.861  0.00  0.00    +0.000 A 
ATOM     17  C   UNL     1       7.185   4.694  12.025  0.00  0.00    +0.000 A 
ATOM     18  C   UNL     1       6.300   3.797  12.598  0.00  0.00    +0.000 A 
ATOM     19  N   UNL     1       6.230   3.715  13.945  0.00  0.00    +0.000 NA
BRANCH  18  20
ATOM     20  N   UNL     1       5.501   2.959  11.839  0.00  0.00    +0.000 N 
ATOM     21  C   UNL     1       5.977   1.624  11.506  0.00  0.00    +0.000 C 
ATOM     22  C   UNL     1       4.137   3.252  11.427  0.00  0.00    +0.000 C 
ENDBRANCH  18  20
ENDBRANCH  13  14
ENDBRANCH   3  13
TORSDOF 5
ENDMDL
MODEL 7
REMARK VINA RESULT:      -6.7      1.276      2.379
REMARK  Name = 
REMARK  8 active torsions:
REMARK  status: ('A' for Active; 'I' for Inactive)
REMARK    1  A    between atoms: C_1  and  O_2
REMARK    2  A    between atoms: O_2  and  C_3
REMARK    3  A    between atoms: C_8  and  C_9
REMARK    4  A    between atoms: N_11  and  C_12
REMARK    5  A    between atoms: C_12  and  C_13
REMARK    6  A    between atoms: C_17  and  N_18
REMARK    7  A    between atoms: N_18  and  C_19
REMARK    8  A    between atoms: N_18  and  C_20
REMARK                            x       y       z     vdW  Elec       q    Type
REMARK                         _______ _______ _______ _____ _____    ______ ____
ROOT
ATOM      1  C   UNL     1       5.255   5.752  16.593  0.00  0.00    +0.000 C 
ATOM      2  O   UNL     1       5.596   6.717  15.908  0.00  0.00    +0.000 OA
ATOM      3  N   UNL     1       6.023   4.615  16.663  0.00  0.00    +0.000 N 
ATOM      4  H   UNL     1       5.752   3.846  17.266  0.00  0.00    +0.000 HD
ENDROOT
BRANCH   1  10
ATOM      5  C   UNL     1       3.173   4.705  17.714  0.00  0.00    +0.000 A 
ATOM      6  C   UNL     1       2.005   4.917  18.466  0.00  0.00    +0.000 A 
ATOM      7  C   UNL     1       1.648   6.190  18.910  0.00  0.00    +0.000 A 
ATOM      8  C   UNL     1       2.449   7.280  18.598  0.00  0.00    +0.000 A 
ATOM      9  C   UNL     1       3.603   7.091  17.839  0.00  0.00    +0.000 A 
ATOM     10  C   UNL     1       3.983   5.811  17.387  0.00  0.00    +0.000 A 
BRANCH   5  12
ATOM     11  C   UNL     1       2.747   2.365  17.698  0.00  0.00    +0.000 C 
ATOM     12  O   UNL     1       3.538   3.465  17.255  0.00  0.00    +0.000 OA
ENDBRANCH   5  12
ENDBRANCH   1  10
BRANCH   3  13
ATOM     13  C   UNL     1       7.292   4.534  15.968  0.00  0.00    +0.000 C 
BRANCH  13  14
ATOM     14  C   UNL     1       7.198   4.583  14.457  0.00  0.00    +0.000 A 
ATOM     15  N   UNL     1       7.989   5.473  13.835  0.00  0.00    +0.000 NA
ATOM     16  C   UNL     1       7.934   5.465  12.501  0.00  0.00    +0.000 A 
ATOM     17  C   UNL     1       7.139   4.606  11.776  0.00  0.00    +0.000 A 
ATOM     18  C   UNL     1       6.351   3.703  12.469  0.00  0.00    +0.000 A 
ATOM     19  N   UNL     1       6.389   3.702  13.820  0.00  0.00    +0.000 NA
BRANCH  18  20
ATOM     20  N   UNL     1       5.543   2.781  11.826  0.00  0.00    +0.000 N 
ATOM     21  C   UNL     1       4.200   3.167  11.417  0.00  0.00    +0.000 C 
ATOM     22  C   UNL     1       5.964   1.454  11.402  0.00  0.00    +0.000 C 
ENDBRANCH  18  20
ENDBRANCH  13  14
ENDBRANCH   3  13
TORSDOF 5
ENDMDL
MODEL 8
REMARK VINA RESULT:      -6.5      3.918      8.353
REMARK  Name = 
REMARK  8 active torsions:
REMARK  status: ('A' for Active; 'I' for Inactive)
REMARK    1  A    between atoms: C_1  and  O_2
REMARK    2  A    between atoms: O_2  and  C_3
REMARK    3  A    between atoms: C_8  and  C_9
REMARK    4  A    between atoms: N_11  and  C_12
REMARK    5  A    between atoms: C_12  and  C_13
REMARK    6  A    between atoms: C_17  and  N_18
REMARK    7  A    between atoms: N_18  and  C_19
REMARK    8  A    between atoms: N_18  and  C_20
REMARK                            x       y       z     vdW  Elec       q    Type
REMARK                         _______ _______ _______ _____ _____    ______ ____
ROOT
ATOM      1  C   UNL     1       3.732   4.978  18.394  0.00  0.00    +0.000 C 
ATOM      2  O   UNL     1       2.929   4.066  18.592  0.00  0.00    +0.000 OA
ATOM      3  N   UNL     1       3.548   6.225  18.939  0.00  0.00    +0.000 N 
ATOM      4  H   UNL     1       4.240   6.955  18.804  0.00  0.00    +0.000 HD
ENDROOT
BRANCH   1  10
ATOM      5  C   UNL     1       6.283   4.801  18.010  0.00  0.00    +0.000 A 
ATOM      6  C   UNL     1       7.325   4.546  17.102  0.00  0.00    +0.000 A 
ATOM      7  C   UNL     1       7.065   4.208  15.775  0.00  0.00    +0.000 A 
ATOM      8  C   UNL     1       5.753   4.129  15.325  0.00  0.00    +0.000 A 
ATOM      9  C   UNL     1       4.707   4.394  16.207  0.00  0.00    +0.000 A 
ATOM     10  C   UNL     1       4.950   4.733  17.555  0.00  0.00    +0.000 A 
BRANCH   5  12
ATOM     11  C   UNL     1       7.804   5.676  19.615  0.00  0.00    +0.000 C 
ATOM     12  O   UNL     1       6.513   5.150  19.316  0.00  0.00    +0.000 OA
ENDBRANCH   5  12
ENDBRANCH   1  10
BRANCH   3  13
ATOM     13  C   UNL     1       2.421   6.495  19.811  0.00  0.00    +0.000 C 
BRANCH  13  14
ATOM     14  C   UNL     1       1.853   7.894  19.709  0.00  0.00    +0.000 A 
ATOM     15  N   UNL     1       1.924   8.485  18.504  0.00  0.00    +0.000 NA
ATOM     16  C   UNL     1       1.369   9.697  18.419  0.00  0.00    +0.000 A 
ATOM     17  C   UNL     1       0.745  10.326  19.473  0.00  0.00    +0.000 A 
ATOM     18  C   UNL     1       0.693   9.666  20.689  0.00  0.00    +0.000 A 
ATOM     19  N   UNL     1       1.256   8.442  20.796  0.00  0.00    +0.000 NA
BRANCH  18  20
ATOM     20  N   UNL     1       0.060  10.204  21.797  0.00  0.00    +0.000 N 
ATOM     21  C   UNL     1      -0.068   9.405  23.007  0.00  0.00    +0.000 C 
ATOM     22  C   UNL     1      -0.400  11.580  21.910  0.00  0.00    +0.000 C 
ENDBRANCH  18  20
ENDBRANCH  13  14
ENDBRANCH   3  13
TORSDOF 5
ENDMDL
MODEL 9
REMARK VINA RESULT:      -6.3      2.876      7.214
REMARK  Name = 
REMARK  8 active torsions:
REMARK  status: ('A' for Active; 'I' for Inactive)
REMARK    1  A    between atoms: C_1  and  O_2
REMARK    2  A    between atoms: O_2  and  C_3
REMARK    3  A    between atoms: C_8  and  C_9
REMARK    4  A    between atoms: N_11  and  C_12
REMARK    5  A    between atoms: C_12  and  C_13
REMARK    6  A    between atoms: C_17  and  N_18
REMARK    7  A    between atoms: N_18  and  C_19
REMARK    8  A    between atoms: N_18  and  C_20
REMARK                            x       y       z     vdW  Elec       q    Type
REMARK                         _______ _______ _______ _____ _____    ______ ____
ROOT
ATOM      1  C   UNL     1       4.877   3.560  17.293  0.00  0.00    +0.000 C 
ATOM      2  O   UNL     1       3.728   3.184  17.061  0.00  0.00    +0.000 OA
ATOM      3  N   UNL     1       5.405   3.514  18.560  0.00  0.00    +0.000 N 
ATOM      4  H   UNL     1       6.367   3.785  18.729  0.00  0.00    +0.000 HD
ENDROOT
BRANCH   1  10
ATOM      5  C   UNL     1       6.847   4.924  16.321  0.00  0.00    +0.000 A 
ATOM      6  C   UNL     1       7.560   5.317  15.175  0.00  0.00    +0.000 A 
ATOM      7  C   UNL     1       7.204   4.859  13.907  0.00  0.00    +0.000 A 
ATOM      8  C   UNL     1       6.118   4.006  13.759  0.00  0.00    +0.000 A 
ATOM      9  C   UNL     1       5.391   3.619  14.883  0.00  0.00    +0.000 A 
ATOM     10  C   UNL     1       5.738   4.067  16.174  0.00  0.00    +0.000 A 
BRANCH   5  12
ATOM     11  C   UNL     1       7.386   6.774  17.716  0.00  0.00    +0.000 C 
ATOM     12  O   UNL     1       7.169   5.373  17.577  0.00  0.00    +0.000 OA
ENDBRANCH   5  12
ENDBRANCH   1  10
BRANCH   3  13
ATOM     13  C   UNL     1       4.637   2.971  19.664  0.00  0.00    +0.000 C 
BRANCH  13  14
ATOM     14  C   UNL     1       3.336   3.691  19.953  0.00  0.00    +0.000 A 
ATOM     15  N   UNL     1       2.334   2.944  20.447  0.00  0.00    +0.000 NA
ATOM     16  C   UNL     1       1.213   3.605  20.748  0.00  0.00    +0.000 A 
ATOM     17  C   UNL     1       1.062   4.964  20.587  0.00  0.00    +0.000 A 
ATOM     18  C   UNL     1       2.131   5.685  20.083  0.00  0.00    +0.000 A 
ATOM     19  N   UNL     1       3.271   5.032  19.767  0.00  0.00    +0.000 NA
BRANCH  18  20
ATOM     20  N   UNL     1       2.085   7.058  19.917  0.00  0.00    +0.000 N 
ATOM     21  C   UNL     1       2.542   7.643  18.664  0.00  0.00    +0.000 C 
ATOM     22  C   UNL     1       1.493   7.995  20.860  0.00  0.00    +0.000 C 
ENDBRANCH  18  20
ENDBRANCH  13  14
ENDBRANCH   3  13
TORSDOF 5
ENDMDL
