MODEL 1
REMARK VINA RESULT:      -8.4      0.000      0.000
REMARK  Name = 
REMARK  6 active torsions:
REMARK  status: ('A' for Active; 'I' for Inactive)
REMARK    1  A    between atoms: C_2  and  C_11
REMARK    2  A    between atoms: N_3  and  C_4
REMARK    3  A    between atoms: C_4  and  C_5
REMARK    4  A    between atoms: N_13  and  C_14
REMARK    5  A    between atoms: C_21  and  C_22
REMARK    6  A    between atoms: C_22  and  O_23
REMARK                            x       y       z     vdW  Elec       q    Type
REMARK                         _______ _______ _______ _____ _____    ______ ____
ROOT
ATOM      1  C   UNL     1       5.777   5.644  17.377  0.00  0.00    +0.000 A 
ATOM      2  N   UNL     1       5.445   4.951  16.266  0.00  0.00    +0.000 NA
ATOM      3  N   UNL     1       6.521   5.186  15.447  0.00  0.00    +0.000 N 
ATOM      4  N   UNL     1       7.504   5.957  15.970  0.00  0.00    +0.000 NA
ATOM      5  C   UNL     1       7.037   6.266  17.179  0.00  0.00    +0.000 A 
ENDROOT
BRANCH   3   6
ATOM      6  C   UNL     1       6.633   4.722  14.107  0.00  0.00    +0.000 A 
ATOM      7  C   UNL     1       7.604   5.225  13.235  0.00  0.00    +0.000 A 
ATOM      8  C   UNL     1       7.700   4.712  11.935  0.00  0.00    +0.000 A 
ATOM      9  C   UNL     1       6.832   3.709  11.502  0.00  0.00    +0.000 A 
ATOM     10  C   UNL     1       5.857   3.210  12.361  0.00  0.00    +0.000 A 
ATOM     11  C   UNL     1       5.758   3.714  13.658  0.00  0.00    +0.000 A 
ENDBRANCH   3   6
BRANCH   1  13
ATOM     12  O   UNL     1       5.420   5.375  19.687  0.00  0.00    +0.000 OA
ATOM     13  C   UNL     1       4.974   5.756  18.602  0.00  0.00    +0.000 C 
ATOM     14  N   UNL     1       3.708   6.288  18.478  0.00  0.00    +0.000 N 
ATOM     15  H   UNL     1       3.354   6.444  17.542  0.00  0.00    +0.000 HD
BRANCH  14  16
ATOM     16  C   UNL     1       2.809   6.283  19.611  0.00  0.00    +0.000 C 
BRANCH  16  17
ATOM     17  C   UNL     1       2.175   4.941  19.859  0.00  0.00    +0.000 A 
ATOM     18  C   UNL     1       1.602   4.210  18.809  0.00  0.00    +0.000 A 
ATOM     19  C   UNL     1       1.046   2.951  19.043  0.00  0.00    +0.000 A 
ATOM     20  C   UNL     1       1.050   2.410  20.328  0.00  0.00    +0.000 A 
ATOM     21  C   UNL     1       1.615   3.127  21.380  0.00  0.00    +0.000 A 
ATOM     22  C   UNL     1       2.173   4.386  21.149  0.00  0.00    +0.000 A 
ENDBRANCH  16  17
ENDBRANCH  14  16
ENDBRANCH   1  13
BRANCH   5  23
ATOM     23  C   UNL     1       7.800   7.174  18.083  0.00  0.00    +0.000 C 
BRANCH  23  24
ATOM     24  O   UNL     1       8.291   6.516  19.248  0.00  0.00    +0.000 OA
ATOM     25  H   UNL     1       7.530   6.018  19.611  0.00  0.00    +0.000 HD
ENDBRANCH  23  24
ENDBRANCH   5  23
TORSDOF 6
ENDMDL
MODEL 2
REMARK VINA RESULT:      -8.4      0.126      1.016
REMARK  Name = 
REMARK  6 active torsions:
REMARK  status: ('A' for Active; 'I' for Inactive)
REMARK    1  A    between atoms: C_2  and  C_11
REMARK    2  A    between atoms: N_3  and  C_4
REMARK    3  A    between atoms: C_4  and  C_5
REMARK    4  A    between atoms: N_13  and  C_14
REMARK    5  A    between atoms: C_21  and  C_22
REMARK    6  A    between atoms: C_22  and  O_23
REMARK                            x       y       z     vdW  Elec       q    Type
REMARK                         _______ _______ _______ _____ _____    ______ ____
ROOT
ATOM      1  C   UNL     1       5.723   5.600  17.396  0.00  0.00    +0.000 A 
ATOM      2  N   UNL     1       5.378   4.915  16.285  0.00  0.00    +0.000 NA
ATOM      3  N   UNL     1       6.472   5.104  15.478  0.00  0.00    +0.000 N 
ATOM      4  N   UNL     1       7.478   5.840  16.009  0.00  0.00    +0.000 NA
ATOM      5  C   UNL     1       7.008   6.173  17.211  0.00  0.00    +0.000 A 
ENDROOT
BRANCH   3   6
ATOM      6  C   UNL     1       6.582   4.629  14.141  0.00  0.00    +0.000 A 
ATOM      7  C   UNL     1       5.715   3.655  13.636  0.00  0.00    +0.000 A 
ATOM      8  C   UNL     1       5.838   3.244  12.302  0.00  0.00    +0.000 A 
ATOM      9  C   UNL     1       6.822   3.793  11.478  0.00  0.00    +0.000 A 
ATOM     10  C   UNL     1       7.694   4.755  11.977  0.00  0.00    +0.000 A 
ATOM     11  C   UNL     1       7.575   5.172  13.303  0.00  0.00    +0.000 A 
ENDBRANCH   3   6
BRANCH   1  13
ATOM     12  O   UNL     1       5.349   5.405  19.711  0.00  0.00    +0.000 OA
ATOM     13  C   UNL     1       4.910   5.749  18.611  0.00  0.00    +0.000 C 
ATOM     14  N   UNL     1       3.644   6.273  18.460  0.00  0.00    +0.000 N 
ATOM     15  H   UNL     1       3.296   6.398  17.517  0.00  0.00    +0.000 HD
BRANCH  14  16
ATOM     16  C   UNL     1       2.736   6.302  19.586  0.00  0.00    +0.000 C 
BRANCH  16  17
ATOM     17  C   UNL     1       2.167   4.951  19.924  0.00  0.00    +0.000 A 
ATOM     18  C   UNL     1       1.549   4.163  18.943  0.00  0.00    +0.000 A 
ATOM     19  C   UNL     1       1.054   2.896  19.258  0.00  0.00    +0.000 A 
ATOM     20  C   UNL     1       1.166   2.403  20.557  0.00  0.00    +0.000 A 
ATOM     21  C   UNL     1       1.777   3.176  21.542  0.00  0.00    +0.000 A 
ATOM     22  C   UNL     1       2.273   4.443  21.229  0.00  0.00    +0.000 A 
ENDBRANCH  16  17
ENDBRANCH  14  16
ENDBRANCH   1  13
BRANCH   5  23
ATOM     23  C   UNL     1       7.794   7.056  18.119  0.00  0.00    +0.000 C 
BRANCH  23  24
ATOM     24  O   UNL     1       8.244   6.387  19.295  0.00  0.00    +0.000 OA
ATOM     25  H   UNL     1       7.498   6.436  19.928  0.00  0.00    +0.000 HD
ENDBRANCH  23  24
ENDBRANCH   5  23
TORSDOF 6
ENDMDL
MODEL 3
REMARK VINA RESULT:      -8.3      0.113      1.428
REMARK  Name = 
REMARK  6 active torsions:
REMARK  status: ('A' for Active; 'I' for Inactive)
REMARK    1  A    between atoms: C_2  and  C_11
REMARK    2  A    between atoms: N_3  and  C_4
REMARK    3  A    between atoms: C_4  and  C_5
REMARK    4  A    between atoms: N_13  and  C_14
REMARK    5  A    between atoms: C_21  and  C_22
REMARK    6  A    between atoms: C_22  and  O_23
REMARK                            x       y       z     vdW  Elec       q    Type
REMARK                         _______ _______ _______ _____ _____    ______ ____
ROOT
ATOM      1  C   UNL     1       5.738   5.627  17.373  0.00  0.00    +0.000 A 
ATOM      2  N   UNL     1       5.404   4.919  16.272  0.00  0.00    +0.000 NA
ATOM      3  N   UNL     1       6.490   5.126  15.457  0.00  0.00    +0.000 N 
ATOM      4  N   UNL     1       7.479   5.894  15.974  0.00  0.00    +0.000 NA
ATOM      5  C   UNL     1       7.007   6.229  17.173  0.00  0.00    +0.000 A 
ENDROOT
BRANCH   3   6
ATOM      6  C   UNL     1       6.605   4.637  14.125  0.00  0.00    +0.000 A 
ATOM      7  C   UNL     1       5.748   3.648  13.631  0.00  0.00    +0.000 A 
ATOM      8  C   UNL     1       5.875   3.223  12.302  0.00  0.00    +0.000 A 
ATOM      9  C   UNL     1       6.853   3.773  11.472  0.00  0.00    +0.000 A 
ATOM     10  C   UNL     1       7.715   4.750  11.960  0.00  0.00    +0.000 A 
ATOM     11  C   UNL     1       7.592   5.181  13.281  0.00  0.00    +0.000 A 
ENDBRANCH   3   6
BRANCH   1  13
ATOM     12  O   UNL     1       5.371   5.427  19.688  0.00  0.00    +0.000 OA
ATOM     13  C   UNL     1       4.928   5.770  18.590  0.00  0.00    +0.000 C 
ATOM     14  N   UNL     1       3.658   6.288  18.443  0.00  0.00    +0.000 N 
ATOM     15  H   UNL     1       3.307   6.411  17.501  0.00  0.00    +0.000 HD
BRANCH  14  16
ATOM     16  C   UNL     1       2.754   6.311  19.572  0.00  0.00    +0.000 C 
BRANCH  16  17
ATOM     17  C   UNL     1       2.204   4.954  19.919  0.00  0.00    +0.000 A 
ATOM     18  C   UNL     1       2.312   4.446  21.221  0.00  0.00    +0.000 A 
ATOM     19  C   UNL     1       1.770   3.200  21.543  0.00  0.00    +0.000 A 
ATOM     20  C   UNL     1       1.117   2.446  20.569  0.00  0.00    +0.000 A 
ATOM     21  C   UNL     1       1.004   2.939  19.271  0.00  0.00    +0.000 A 
ATOM     22  C   UNL     1       1.545   4.185  18.947  0.00  0.00    +0.000 A 
ENDBRANCH  16  17
ENDBRANCH  14  16
ENDBRANCH   1  13
BRANCH   5  23
ATOM     23  C   UNL     1       7.775   7.143  18.066  0.00  0.00    +0.000 C 
BRANCH  23  24
ATOM     24  O   UNL     1       8.284   6.490  19.228  0.00  0.00    +0.000 OA
ATOM     25  H   UNL     1       8.589   5.611  18.923  0.00  0.00    +0.000 HD
ENDBRANCH  23  24
ENDBRANCH   5  23
TORSDOF 6
ENDMDL
MODEL 4
REMARK VINA RESULT:      -8.3      1.859      7.229
REMARK  Name = 
REMARK  6 active torsions:
REMARK  status: ('A' for Active; 'I' for Inactive)
REMARK    1  A    between atoms: C_2  and  C_11
REMARK    2  A    between atoms: N_3  and  C_4
REMARK    3  A    between atoms: C_4  and  C_5
REMARK    4  A    between atoms: N_13  and  C_14
REMARK    5  A    between atoms: C_21  and  C_22
REMARK    6  A    between atoms: C_22  and  O_23
REMARK                            x       y       z     vdW  Elec       q    Type
REMARK                         _______ _______ _______ _____ _____    ______ ____
ROOT
ATOM      1  C   UNL     1       5.344   4.912  17.027  0.00  0.00    +0.000 A 
ATOM      2  N   UNL     1       4.081   4.602  17.394  0.00  0.00    +0.000 NA
ATOM      3  N   UNL     1       4.225   4.347  18.735  0.00  0.00    +0.000 N 
ATOM      4  N   UNL     1       5.476   4.491  19.233  0.00  0.00    +0.000 NA
ATOM      5  C   UNL     1       6.192   4.829  18.161  0.00  0.00    +0.000 A 
ENDROOT
BRANCH   3   6
ATOM      6  C   UNL     1       3.177   3.905  19.590  0.00  0.00    +0.000 A 
ATOM      7  C   UNL     1       1.857   4.332  19.412  0.00  0.00    +0.000 A 
ATOM      8  C   UNL     1       0.851   3.842  20.256  0.00  0.00    +0.000 A 
ATOM      9  C   UNL     1       1.158   2.940  21.275  0.00  0.00    +0.000 A 
ATOM     10  C   UNL     1       2.471   2.518  21.465  0.00  0.00    +0.000 A 
ATOM     11  C   UNL     1       3.476   2.999  20.625  0.00  0.00    +0.000 A 
ENDBRANCH   3   6
BRANCH   1  13
ATOM     12  O   UNL     1       5.423   6.323  15.147  0.00  0.00    +0.000 OA
ATOM     13  C   UNL     1       5.790   5.271  15.675  0.00  0.00    +0.000 C 
ATOM     14  N   UNL     1       6.619   4.380  15.028  0.00  0.00    +0.000 N 
ATOM     15  H   UNL     1       6.763   3.474  15.459  0.00  0.00    +0.000 HD
BRANCH  14  16
ATOM     16  C   UNL     1       6.970   4.595  13.641  0.00  0.00    +0.000 C 
BRANCH  16  17
ATOM     17  C   UNL     1       6.221   3.697  12.694  0.00  0.00    +0.000 A 
ATOM     18  C   UNL     1       4.871   3.932  12.395  0.00  0.00    +0.000 A 
ATOM     19  C   UNL     1       4.193   3.113  11.489  0.00  0.00    +0.000 A 
ATOM     20  C   UNL     1       4.852   2.050  10.875  0.00  0.00    +0.000 A 
ATOM     21  C   UNL     1       6.193   1.805  11.165  0.00  0.00    +0.000 A 
ATOM     22  C   UNL     1       6.873   2.622  12.070  0.00  0.00    +0.000 A 
ENDBRANCH  16  17
ENDBRANCH  14  16
ENDBRANCH   1  13
BRANCH   5  23
ATOM     23  C   UNL     1       7.667   5.024  18.260  0.00  0.00    +0.000 C 
BRANCH  23  24
ATOM     24  O   UNL     1       8.410   3.973  17.648  0.00  0.00    +0.000 OA
ATOM     25  H   UNL     1       8.056   3.894  16.738  0.00  0.00    +0.000 HD
ENDBRANCH  23  24
ENDBRANCH   5  23
TORSDOF 6
ENDMDL
MODEL 5
REMARK VINA RESULT:      -8.3      1.833      7.278
REMARK  Name = 
REMARK  6 active torsions:
REMARK  status: ('A' for Active; 'I' for Inactive)
REMARK    1  A    between atoms: C_2  and  C_11
REMARK    2  A    between atoms: N_3  and  C_4
REMARK    3  A    between atoms: C_4  and  C_5
REMARK    4  A    between atoms: N_13  and  C_14
REMARK    5  A    between atoms: C_21  and  C_22
REMARK    6  A    between atoms: C_22  and  O_23
REMARK                            x       y       z     vdW  Elec       q    Type
REMARK                         _______ _______ _______ _____ _____    ______ ____
ROOT
ATOM      1  C   UNL     1       5.349   4.971  17.047  0.00  0.00    +0.000 A 
ATOM      2  N   UNL     1       4.092   4.634  17.407  0.00  0.00    +0.000 NA
ATOM      3  N   UNL     1       4.248   4.315  18.734  0.00  0.00    +0.000 N 
ATOM      4  N   UNL     1       5.502   4.445  19.229  0.00  0.00    +0.000 NA
ATOM      5  C   UNL     1       6.207   4.841  18.170  0.00  0.00    +0.000 A 
ENDROOT
BRANCH   3   6
ATOM      6  C   UNL     1       3.210   3.823  19.574  0.00  0.00    +0.000 A 
ATOM      7  C   UNL     1       3.453   2.847  20.545  0.00  0.00    +0.000 A 
ATOM      8  C   UNL     1       2.408   2.419  21.374  0.00  0.00    +0.000 A 
ATOM      9  C   UNL     1       1.127   2.954  21.234  0.00  0.00    +0.000 A 
ATOM     10  C   UNL     1       0.875   3.919  20.263  0.00  0.00    +0.000 A 
ATOM     11  C   UNL     1       1.912   4.353  19.437  0.00  0.00    +0.000 A 
ENDBRANCH   3   6
BRANCH   1  13
ATOM     12  O   UNL     1       5.402   6.473  15.237  0.00  0.00    +0.000 OA
ATOM     13  C   UNL     1       5.782   5.400  15.711  0.00  0.00    +0.000 C 
ATOM     14  N   UNL     1       6.614   4.548  15.015  0.00  0.00    +0.000 N 
ATOM     15  H   UNL     1       6.768   3.624  15.401  0.00  0.00    +0.000 HD
BRANCH  14  16
ATOM     16  C   UNL     1       6.952   4.833  13.638  0.00  0.00    +0.000 C 
BRANCH  16  17
ATOM     17  C   UNL     1       6.473   3.777  12.679  0.00  0.00    +0.000 A 
ATOM     18  C   UNL     1       7.378   2.904  12.060  0.00  0.00    +0.000 A 
ATOM     19  C   UNL     1       6.922   1.905  11.196  0.00  0.00    +0.000 A 
ATOM     20  C   UNL     1       5.559   1.771  10.938  0.00  0.00    +0.000 A 
ATOM     21  C   UNL     1       4.649   2.633  11.546  0.00  0.00    +0.000 A 
ATOM     22  C   UNL     1       5.103   3.632  12.410  0.00  0.00    +0.000 A 
ENDBRANCH  16  17
ENDBRANCH  14  16
ENDBRANCH   1  13
BRANCH   5  23
ATOM     23  C   UNL     1       7.681   5.043  18.267  0.00  0.00    +0.000 C 
BRANCH  23  24
ATOM     24  O   UNL     1       8.429   3.997  17.651  0.00  0.00    +0.000 OA
ATOM     25  H   UNL     1       7.769   3.325  17.381  0.00  0.00    +0.000 HD
ENDBRANCH  23  24
ENDBRANCH   5  23
TORSDOF 6
ENDMDL
MODEL 6
REMARK VINA RESULT:      -8.2      1.834      7.301
REMARK  Name = 
REMARK  6 active torsions:
REMARK  status: ('A' for Active; 'I' for Inactive)
REMARK    1  A    between atoms: C_2  and  C_11
REMARK    2  A    between atoms: N_3  and  C_4
REMARK    3  A    between atoms: C_4  and  C_5
REMARK    4  A    between atoms: N_13  and  C_14
REMARK    5  A    between atoms: C_21  and  C_22
REMARK    6  A    between atoms: C_22  and  O_23
REMARK                            x       y       z     vdW  Elec       q    Type
REMARK                         _______ _______ _______ _____ _____    ______ ____
ROOT
ATOM      1  C   UNL     1       5.323   4.974  17.033  0.00  0.00    +0.000 A 
ATOM      2  N   UNL     1       4.068   4.638  17.406  0.00  0.00    +0.000 NA
ATOM      3  N   UNL     1       4.236   4.325  18.732  0.00  0.00    +0.000 N 
ATOM      4  N   UNL     1       5.494   4.457  19.216  0.00  0.00    +0.000 NA
ATOM      5  C   UNL     1       6.190   4.848  18.150  0.00  0.00    +0.000 A 
ENDROOT
BRANCH   3   6
ATOM      6  C   UNL     1       3.205   3.837  19.583  0.00  0.00    +0.000 A 
ATOM      7  C   UNL     1       3.466   2.900  20.588  0.00  0.00    +0.000 A 
ATOM      8  C   UNL     1       2.426   2.476  21.426  0.00  0.00    +0.000 A 
ATOM      9  C   UNL     1       1.133   2.975  21.260  0.00  0.00    +0.000 A 
ATOM     10  C   UNL     1       0.864   3.900  20.256  0.00  0.00    +0.000 A 
ATOM     11  C   UNL     1       1.895   4.330  19.421  0.00  0.00    +0.000 A 
ENDBRANCH   3   6
BRANCH   1  13
ATOM     12  O   UNL     1       5.367   6.472  15.220  0.00  0.00    +0.000 OA
ATOM     13  C   UNL     1       5.745   5.397  15.692  0.00  0.00    +0.000 C 
ATOM     14  N   UNL     1       6.562   4.537  14.989  0.00  0.00    +0.000 N 
ATOM     15  H   UNL     1       6.714   3.613  15.375  0.00  0.00    +0.000 HD
BRANCH  14  16
ATOM     16  C   UNL     1       6.888   4.818  13.608  0.00  0.00    +0.000 C 
BRANCH  16  17
ATOM     17  C   UNL     1       6.452   3.731  12.663  0.00  0.00    +0.000 A 
ATOM     18  C   UNL     1       5.094   3.528  12.377  0.00  0.00    +0.000 A 
ATOM     19  C   UNL     1       4.700   2.539  11.474  0.00  0.00    +0.000 A 
ATOM     20  C   UNL     1       5.656   1.738  10.850  0.00  0.00    +0.000 A 
ATOM     21  C   UNL     1       7.008   1.928  11.127  0.00  0.00    +0.000 A 
ATOM     22  C   UNL     1       7.404   2.918  12.030  0.00  0.00    +0.000 A 
ENDBRANCH  16  17
ENDBRANCH  14  16
ENDBRANCH   1  13
BRANCH   5  23
ATOM     23  C   UNL     1       7.664   5.050  18.234  0.00  0.00    +0.000 C 
BRANCH  23  24
ATOM     24  O   UNL     1       8.407   3.989  17.638  0.00  0.00    +0.000 OA
ATOM     25  H   UNL     1       9.270   3.979  18.101  0.00  0.00    +0.000 HD
ENDBRANCH  23  24
ENDBRANCH   5  23
TORSDOF 6
ENDMDL
MODEL 7
REMARK VINA RESULT:      -8.1      0.555      1.149
REMARK  Name = 
REMARK  6 active torsions:
REMARK  status: ('A' for Active; 'I' for Inactive)
REMARK    1  A    between atoms: C_2  and  C_11
REMARK    2  A    between atoms: N_3  and  C_4
REMARK    3  A    between atoms: C_4  and  C_5
REMARK    4  A    between atoms: N_13  and  C_14
REMARK    5  A    between atoms: C_21  and  C_22
REMARK    6  A    between atoms: C_22  and  O_23
REMARK                            x       y       z     vdW  Elec       q    Type
REMARK                         _______ _______ _______ _____ _____    ______ ____
ROOT
ATOM      1  C   UNL     1       5.768   5.671  17.354  0.00  0.00    +0.000 A 
ATOM      2  N   UNL     1       5.436   4.975  16.245  0.00  0.00    +0.000 NA
ATOM      3  N   UNL     1       6.517   5.199  15.429  0.00  0.00    +0.000 N 
ATOM      4  N   UNL     1       7.503   5.967  15.952  0.00  0.00    +0.000 NA
ATOM      5  C   UNL     1       7.033   6.284  17.158  0.00  0.00    +0.000 A 
ENDROOT
BRANCH   3   6
ATOM      6  C   UNL     1       6.631   4.727  14.091  0.00  0.00    +0.000 A 
ATOM      7  C   UNL     1       7.607   5.222  13.220  0.00  0.00    +0.000 A 
ATOM      8  C   UNL     1       7.706   4.702  11.923  0.00  0.00    +0.000 A 
ATOM      9  C   UNL     1       6.833   3.701  11.493  0.00  0.00    +0.000 A 
ATOM     10  C   UNL     1       5.853   3.211  12.350  0.00  0.00    +0.000 A 
ATOM     11  C   UNL     1       5.753   3.722  13.645  0.00  0.00    +0.000 A 
ENDBRANCH   3   6
BRANCH   1  13
ATOM     12  O   UNL     1       5.409   5.436  19.667  0.00  0.00    +0.000 OA
ATOM     13  C   UNL     1       4.961   5.793  18.575  0.00  0.00    +0.000 C 
ATOM     14  N   UNL     1       3.690   6.309  18.439  0.00  0.00    +0.000 N 
ATOM     15  H   UNL     1       3.336   6.445  17.500  0.00  0.00    +0.000 HD
BRANCH  14  16
ATOM     16  C   UNL     1       2.788   6.312  19.570  0.00  0.00    +0.000 C 
BRANCH  16  17
ATOM     17  C   UNL     1       2.214   4.955  19.876  0.00  0.00    +0.000 A 
ATOM     18  C   UNL     1       2.252   4.434  21.177  0.00  0.00    +0.000 A 
ATOM     19  C   UNL     1       1.687   3.188  21.458  0.00  0.00    +0.000 A 
ATOM     20  C   UNL     1       1.083   2.448  20.444  0.00  0.00    +0.000 A 
ATOM     21  C   UNL     1       1.040   2.953  19.147  0.00  0.00    +0.000 A 
ATOM     22  C   UNL     1       1.603   4.199  18.863  0.00  0.00    +0.000 A 
ENDBRANCH  16  17
ENDBRANCH  14  16
ENDBRANCH   1  13
BRANCH   5  23
ATOM     23  C   UNL     1       7.798   7.191  18.060  0.00  0.00    +0.000 C 
BRANCH  23  24
ATOM     24  O   UNL     1       7.723   8.560  17.667  0.00  0.00    +0.000 OA
ATOM     25  H   UNL     1       8.625   8.919  17.790  0.00  0.00    +0.000 HD
ENDBRANCH  23  24
ENDBRANCH   5  23
TORSDOF 6
ENDMDL
MODEL 8
REMARK VINA RESULT:      -7.9      1.589      7.239
REMARK  Name = 
REMARK  6 active torsions:
REMARK  status: ('A' for Active; 'I' for Inactive)
REMARK    1  A    between atoms: C_2  and  C_11
REMARK    2  A    between atoms: N_3  and  C_4
REMARK    3  A    between atoms: C_4  and  C_5
REMARK    4  A    between atoms: N_13  and  C_14
REMARK    5  A    between atoms: C_21  and  C_22
REMARK    6  A    between atoms: C_22  and  O_23
REMARK                            x       y       z     vdW  Elec       q    Type
REMARK                         _______ _______ _______ _____ _____    ______ ____
ROOT
ATOM      1  C   UNL     1       5.816   4.550  17.211  0.00  0.00    +0.000 A 
ATOM      2  N   UNL     1       4.580   4.016  17.316  0.00  0.00    +0.000 NA
ATOM      3  N   UNL     1       4.256   4.295  18.622  0.00  0.00    +0.000 N 
ATOM      4  N   UNL     1       5.189   4.976  19.329  0.00  0.00    +0.000 NA
ATOM      5  C   UNL     1       6.183   5.126  18.455  0.00  0.00    +0.000 A 
ENDROOT
BRANCH   3   6
ATOM      6  C   UNL     1       3.056   3.877  19.263  0.00  0.00    +0.000 A 
ATOM      7  C   UNL     1       2.787   4.202  20.597  0.00  0.00    +0.000 A 
ATOM      8  C   UNL     1       1.577   3.800  21.176  0.00  0.00    +0.000 A 
ATOM      9  C   UNL     1       0.643   3.074  20.436  0.00  0.00    +0.000 A 
ATOM     10  C   UNL     1       0.908   2.738  19.112  0.00  0.00    +0.000 A 
ATOM     11  C   UNL     1       2.110   3.139  18.527  0.00  0.00    +0.000 A 
ENDBRANCH   3   6
BRANCH   1  13
ATOM     12  O   UNL     1       7.893   4.499  16.108  0.00  0.00    +0.000 OA
ATOM     13  C   UNL     1       6.665   4.540  16.012  0.00  0.00    +0.000 C 
ATOM     14  N   UNL     1       6.029   4.590  14.790  0.00  0.00    +0.000 N 
ATOM     15  H   UNL     1       5.031   4.767  14.787  0.00  0.00    +0.000 HD
BRANCH  14  16
ATOM     16  C   UNL     1       6.804   4.740  13.578  0.00  0.00    +0.000 C 
BRANCH  16  17
ATOM     17  C   UNL     1       6.554   3.647  12.575  0.00  0.00    +0.000 A 
ATOM     18  C   UNL     1       7.621   2.992  11.944  0.00  0.00    +0.000 A 
ATOM     19  C   UNL     1       7.381   1.956  11.039  0.00  0.00    +0.000 A 
ATOM     20  C   UNL     1       6.075   1.565  10.751  0.00  0.00    +0.000 A 
ATOM     21  C   UNL     1       5.005   2.209  11.370  0.00  0.00    +0.000 A 
ATOM     22  C   UNL     1       5.243   3.245  12.276  0.00  0.00    +0.000 A 
ENDBRANCH  16  17
ENDBRANCH  14  16
ENDBRANCH   1  13
BRANCH   5  23
ATOM     23  C   UNL     1       7.460   5.782  18.857  0.00  0.00    +0.000 C 
BRANCH  23  24
ATOM     24  O   UNL     1       7.830   5.502  20.204  0.00  0.00    +0.000 OA
ATOM     25  H   UNL     1       7.082   4.996  20.584  0.00  0.00    +0.000 HD
ENDBRANCH  23  24
ENDBRANCH   5  23
TORSDOF 6
ENDMDL
MODEL 9
REMARK VINA RESULT:      -7.8      1.734      7.175
REMARK  Name = 
REMARK  6 active torsions:
REMARK  status: ('A' for Active; 'I' for Inactive)
REMARK    1  A    between atoms: C_2  and  C_11
REMARK    2  A    between atoms: N_3  and  C_4
REMARK    3  A    between atoms: C_4  and  C_5
REMARK    4  A    between atoms: N_13  and  C_14
REMARK    5  A    between atoms: C_21  and  C_22
REMARK    6  A    between atoms: C_22  and  O_23
REMARK                            x       y       z     vdW  Elec       q    Type
REMARK                         _______ _______ _______ _____ _____    ______ ____
ROOT
ATOM      1  C   UNL     1       5.466   5.000  17.065  0.00  0.00    +0.000 A 
ATOM      2  N   UNL     1       4.201   4.673  17.408  0.00  0.00    +0.000 NA
ATOM      3  N   UNL     1       4.325   4.413  18.751  0.00  0.00    +0.000 N 
ATOM      4  N   UNL     1       5.566   4.570  19.271  0.00  0.00    +0.000 NA
ATOM      5  C   UNL     1       6.296   4.922  18.214  0.00  0.00    +0.000 A 
ENDROOT
BRANCH   3   6
ATOM      6  C   UNL     1       3.267   3.955  19.586  0.00  0.00    +0.000 A 
ATOM      7  C   UNL     1       1.984   4.506  19.513  0.00  0.00    +0.000 A 
ATOM      8  C   UNL     1       0.965   3.998  20.329  0.00  0.00    +0.000 A 
ATOM      9  C   UNL     1       1.222   2.953  21.217  0.00  0.00    +0.000 A 
ATOM     10  C   UNL     1       2.499   2.406  21.302  0.00  0.00    +0.000 A 
ATOM     11  C   UNL     1       3.518   2.904  20.490  0.00  0.00    +0.000 A 
ENDBRANCH   3   6
BRANCH   1  13
ATOM     12  O   UNL     1       5.638   6.464  15.232  0.00  0.00    +0.000 OA
ATOM     13  C   UNL     1       5.931   5.371  15.722  0.00  0.00    +0.000 C 
ATOM     14  N   UNL     1       6.691   4.444  15.041  0.00  0.00    +0.000 N 
ATOM     15  H   UNL     1       6.772   3.517  15.442  0.00  0.00    +0.000 HD
BRANCH  14  16
ATOM     16  C   UNL     1       7.050   4.680  13.660  0.00  0.00    +0.000 C 
BRANCH  16  17
ATOM     17  C   UNL     1       6.341   3.766  12.698  0.00  0.00    +0.000 A 
ATOM     18  C   UNL     1       7.022   2.714  12.070  0.00  0.00    +0.000 A 
ATOM     19  C   UNL     1       6.348   1.850  11.204  0.00  0.00    +0.000 A 
ATOM     20  C   UNL     1       4.989   2.029  10.953  0.00  0.00    +0.000 A 
ATOM     21  C   UNL     1       4.301   3.071  11.570  0.00  0.00    +0.000 A 
ATOM     22  C   UNL     1       4.973   3.936  12.436  0.00  0.00    +0.000 A 
ENDBRANCH  16  17
ENDBRANCH  14  16
ENDBRANCH   1  13
BRANCH   5  23
ATOM     23  C   UNL     1       7.766   5.134  18.339  0.00  0.00    +0.000 C 
BRANCH  23  24
ATOM     24  O   UNL     1       8.107   6.110  19.321  0.00  0.00    +0.000 OA
ATOM     25  H   UNL     1       8.591   6.811  18.839  0.00  0.00    +0.000 HD
ENDBRANCH  23  24
ENDBRANCH   5  23
TORSDOF 6
ENDMDL
