MODEL 1
REMARK VINA RESULT:      -8.7      0.000      0.000
REMARK  Name = 
REMARK  9 active torsions:
REMARK  status: ('A' for Active; 'I' for Inactive)
REMARK    1  A    between atoms: C_1  and  C_2
REMARK    2  A    between atoms: N_6  and  C_7
REMARK    3  A    between atoms: C_16  and  C_18
REMARK    4  A    between atoms: C_18  and  C_19
REMARK    5  A    between atoms: C_19  and  N_20
REMARK    6  A    between atoms: C_27  and  C_28
REMARK    7  A    between atoms: N_31  and  C_32
REMARK    8  A    between atoms: C_32  and  C_33
REMARK    9  A    between atoms: C_32  and  C_34
REMARK                            x       y       z     vdW  Elec       q    Type
REMARK                         _______ _______ _______ _____ _____    ______ ____
ROOT
ATOM      1  C   UNL     1      -0.848  11.561  22.613  0.00  0.00    +0.000 A 
ATOM      2  C   UNL     1      -0.558  10.237  23.007  0.00  0.00    +0.000 A 
ATOM      3  C   UNL     1       0.119   9.340  22.156  0.00  0.00    +0.000 A 
ATOM      4  C   UNL     1       0.503   9.782  20.907  0.00  0.00    +0.000 A 
ATOM      5  C   UNL     1       0.218  11.088  20.510  0.00  0.00    +0.000 A 
ATOM      6  C   UNL     1      -0.465  11.968  21.333  0.00  0.00    +0.000 A 
ATOM      7  C   UNL     1       0.792  11.403  19.172  0.00  0.00    +0.000 C 
ATOM      8  C   UNL     1       1.250  10.025  18.710  0.00  0.00    +0.000 C 
ATOM      9  N   UNL     1       1.192   9.120  19.871  0.00  0.00    +0.000 N 
ATOM     10  C   UNL     1       1.648   7.810  19.878  0.00  0.00    +0.000 C 
ATOM     11  O   UNL     1       1.546   7.034  20.825  0.00  0.00    +0.000 OA
ENDROOT
BRANCH   1  17
ATOM     12  C   UNL     1      -6.706  14.659  23.019  0.00  0.00    +0.000 C 
ATOM     13  C   UNL     1      -5.327  14.092  23.046  0.00  0.00    +0.000 A 
ATOM     14  C   UNL     1      -4.432  14.440  24.036  0.00  0.00    +0.000 A 
ATOM     15  N   UNL     1      -3.196  13.918  24.178  0.00  0.00    +0.000 NA
ATOM     16  C   UNL     1      -2.823  13.003  23.276  0.00  0.00    +0.000 A 
ATOM     17  N   UNL     1      -1.581  12.398  23.464  0.00  0.00    +0.000 N 
ATOM     18  N   UNL     1      -3.610  12.614  22.268  0.00  0.00    +0.000 NA
ATOM     19  C   UNL     1      -4.844  13.147  22.157  0.00  0.00    +0.000 A 
ATOM     20  H   UNL     1      -1.151  12.696  24.325  0.00  0.00    +0.000 HD
BRANCH  19  21
ATOM     21  C   UNL     1      -5.618  12.599  21.055  0.00  0.00    +0.000 A 
ATOM     22  C   UNL     1      -6.734  11.737  21.003  0.00  0.00    +0.000 A 
ATOM     23  N   UNL     1      -7.119  11.458  19.757  0.00  0.00    +0.000 NA
ATOM     24  N   UNL     1      -6.260  12.166  18.993  0.00  0.00    +0.000 N 
ATOM     25  C   UNL     1      -5.364  12.885  19.725  0.00  0.00    +0.000 A 
BRANCH  24  26
ATOM     26  C   UNL     1      -6.336  12.090  17.538  0.00  0.00    +0.000 C 
ATOM     27  C   UNL     1      -6.968  13.354  16.956  0.00  0.00    +0.000 C 
ATOM     28  C   UNL     1      -4.966  11.815  16.921  0.00  0.00    +0.000 C 
ENDBRANCH  24  26
ENDBRANCH  19  21
ENDBRANCH   1  17
BRANCH  10  29
ATOM     29  C   UNL     1       2.400   7.409  18.613  0.00  0.00    +0.000 C 
BRANCH  29  30
ATOM     30  C   UNL     1       2.596   5.902  18.491  0.00  0.00    +0.000 C 
BRANCH  30  31
ATOM     31  N   UNL     1       3.681   5.556  17.541  0.00  0.00    +0.000 NA
ATOM     32  C   UNL     1       3.785   4.084  17.384  0.00  0.00    +0.000 C 
ATOM     33  C   UNL     1       4.363   3.371  18.622  0.00  0.00    +0.000 C 
ATOM     34  O   UNL     1       5.633   3.917  19.009  0.00  0.00    +0.000 OA
ATOM     35  C   UNL     1       5.548   5.333  19.217  0.00  0.00    +0.000 C 
ATOM     36  C   UNL     1       5.017   6.038  17.960  0.00  0.00    +0.000 C 
ENDBRANCH  30  31
ENDBRANCH  29  30
ENDBRANCH  10  29
TORSDOF 6
ENDMDL
MODEL 2
REMARK VINA RESULT:      -8.7      0.831      1.085
REMARK  Name = 
REMARK  9 active torsions:
REMARK  status: ('A' for Active; 'I' for Inactive)
REMARK    1  A    between atoms: C_1  and  C_2
REMARK    2  A    between atoms: N_6  and  C_7
REMARK    3  A    between atoms: C_16  and  C_18
REMARK    4  A    between atoms: C_18  and  C_19
REMARK    5  A    between atoms: C_19  and  N_20
REMARK    6  A    between atoms: C_27  and  C_28
REMARK    7  A    between atoms: N_31  and  C_32
REMARK    8  A    between atoms: C_32  and  C_33
REMARK    9  A    between atoms: C_32  and  C_34
REMARK                            x       y       z     vdW  Elec       q    Type
REMARK                         _______ _______ _______ _____ _____    ______ ____
ROOT
ATOM      1  C   UNL     1      -0.977  11.343  22.699  0.00  0.00    +0.000 A 
ATOM      2  C   UNL     1      -0.670  10.020  23.085  0.00  0.00    +0.000 A 
ATOM      3  C   UNL     1       0.048   9.148  22.242  0.00  0.00    +0.000 A 
ATOM      4  C   UNL     1       0.457   9.613  21.009  0.00  0.00    +0.000 A 
ATOM      5  C   UNL     1       0.155  10.918  20.620  0.00  0.00    +0.000 A 
ATOM      6  C   UNL     1      -0.567  11.773  21.434  0.00  0.00    +0.000 A 
ATOM      7  C   UNL     1       0.759  11.261  19.302  0.00  0.00    +0.000 C 
ATOM      8  C   UNL     1       1.257   9.898  18.836  0.00  0.00    +0.000 C 
ATOM      9  N   UNL     1       1.186   8.977  19.985  0.00  0.00    +0.000 N 
ATOM     10  C   UNL     1       1.669   7.677  19.988  0.00  0.00    +0.000 C 
ATOM     11  O   UNL     1       1.557   6.887  20.923  0.00  0.00    +0.000 OA
ENDROOT
BRANCH   1  17
ATOM     12  C   UNL     1      -6.862  14.406  22.936  0.00  0.00    +0.000 C 
ATOM     13  C   UNL     1      -5.483  13.844  23.006  0.00  0.00    +0.000 A 
ATOM     14  C   UNL     1      -4.631  14.169  24.042  0.00  0.00    +0.000 A 
ATOM     15  N   UNL     1      -3.401  13.648  24.224  0.00  0.00    +0.000 NA
ATOM     16  C   UNL     1      -2.985  12.759  23.314  0.00  0.00    +0.000 A 
ATOM     17  N   UNL     1      -1.749  12.154  23.539  0.00  0.00    +0.000 N 
ATOM     18  N   UNL     1      -3.727  12.394  22.264  0.00  0.00    +0.000 NA
ATOM     19  C   UNL     1      -4.957  12.925  22.115  0.00  0.00    +0.000 A 
ATOM     20  H   UNL     1      -1.357  12.430  24.426  0.00  0.00    +0.000 HD
BRANCH  19  21
ATOM     21  C   UNL     1      -5.681  12.402  20.967  0.00  0.00    +0.000 A 
ATOM     22  C   UNL     1      -6.772  11.516  20.844  0.00  0.00    +0.000 A 
ATOM     23  N   UNL     1      -7.110  11.279  19.575  0.00  0.00    +0.000 NA
ATOM     24  N   UNL     1      -6.245  12.038  18.869  0.00  0.00    +0.000 N 
ATOM     25  C   UNL     1      -5.392  12.749  19.659  0.00  0.00    +0.000 A 
BRANCH  24  26
ATOM     26  C   UNL     1      -6.272  12.019  17.411  0.00  0.00    +0.000 C 
ATOM     27  C   UNL     1      -6.864  13.314  16.857  0.00  0.00    +0.000 C 
ATOM     28  C   UNL     1      -4.886  11.745  16.830  0.00  0.00    +0.000 C 
ENDBRANCH  24  26
ENDBRANCH  19  21
ENDBRANCH   1  17
BRANCH  10  29
ATOM     29  C   UNL     1       2.463   7.307  18.739  0.00  0.00    +0.000 C 
BRANCH  29  30
ATOM     30  C   UNL     1       3.107   5.928  18.831  0.00  0.00    +0.000 C 
BRANCH  30  31
ATOM     31  N   UNL     1       2.377   4.917  18.031  0.00  0.00    +0.000 NA
ATOM     32  C   UNL     1       1.554   4.051  18.911  0.00  0.00    +0.000 C 
ATOM     33  C   UNL     1       2.384   3.074  19.767  0.00  0.00    +0.000 C 
ATOM     34  O   UNL     1       3.259   2.270  18.962  0.00  0.00    +0.000 OA
ATOM     35  C   UNL     1       4.102   3.084  18.137  0.00  0.00    +0.000 C 
ATOM     36  C   UNL     1       3.263   4.019  17.254  0.00  0.00    +0.000 C 
ENDBRANCH  30  31
ENDBRANCH  29  30
ENDBRANCH  10  29
TORSDOF 6
ENDMDL
MODEL 3
REMARK VINA RESULT:      -8.3      3.722      5.758
REMARK  Name = 
REMARK  9 active torsions:
REMARK  status: ('A' for Active; 'I' for Inactive)
REMARK    1  A    between atoms: C_1  and  C_2
REMARK    2  A    between atoms: N_6  and  C_7
REMARK    3  A    between atoms: C_16  and  C_18
REMARK    4  A    between atoms: C_18  and  C_19
REMARK    5  A    between atoms: C_19  and  N_20
REMARK    6  A    between atoms: C_27  and  C_28
REMARK    7  A    between atoms: N_31  and  C_32
REMARK    8  A    between atoms: C_32  and  C_33
REMARK    9  A    between atoms: C_32  and  C_34
REMARK                            x       y       z     vdW  Elec       q    Type
REMARK                         _______ _______ _______ _____ _____    ______ ____
ROOT
ATOM      1  C   UNL     1      -0.003  10.360  21.137  0.00  0.00    +0.000 A 
ATOM      2  C   UNL     1       0.278   9.144  21.797  0.00  0.00    +0.000 A 
ATOM      3  C   UNL     1       1.017   8.116  21.177  0.00  0.00    +0.000 A 
ATOM      4  C   UNL     1       1.474   8.318  19.890  0.00  0.00    +0.000 A 
ATOM      5  C   UNL     1       1.198   9.515  19.232  0.00  0.00    +0.000 A 
ATOM      6  C   UNL     1       0.455  10.521  19.827  0.00  0.00    +0.000 A 
ATOM      7  C   UNL     1       1.851   9.580  17.894  0.00  0.00    +0.000 C 
ATOM      8  C   UNL     1       2.353   8.150  17.736  0.00  0.00    +0.000 C 
ATOM      9  N   UNL     1       2.233   7.484  19.046  0.00  0.00    +0.000 N 
ATOM     10  C   UNL     1       2.703   6.211  19.334  0.00  0.00    +0.000 C 
ATOM     11  O   UNL     1       2.551   5.631  20.405  0.00  0.00    +0.000 OA
ENDROOT
BRANCH   1  17
ATOM     12  C   UNL     1       0.177  16.695  23.113  0.00  0.00    +0.000 C 
ATOM     13  C   UNL     1       0.005  15.248  22.798  0.00  0.00    +0.000 A 
ATOM     14  C   UNL     1      -1.109  14.553  23.221  0.00  0.00    +0.000 A 
ATOM     15  N   UNL     1      -1.380  13.267  22.916  0.00  0.00    +0.000 NA
ATOM     16  C   UNL     1      -0.484  12.629  22.153  0.00  0.00    +0.000 A 
ATOM     17  N   UNL     1      -0.797  11.328  21.764  0.00  0.00    +0.000 N 
ATOM     18  N   UNL     1       0.636  13.209  21.711  0.00  0.00    +0.000 NA
ATOM     19  C   UNL     1       0.875  14.499  22.024  0.00  0.00    +0.000 A 
ATOM     20  H   UNL     1      -1.721  11.063  22.066  0.00  0.00    +0.000 HD
BRANCH  19  21
ATOM     21  C   UNL     1       2.095  15.024  21.434  0.00  0.00    +0.000 A 
ATOM     22  C   UNL     1       3.396  15.223  21.942  0.00  0.00    +0.000 A 
ATOM     23  N   UNL     1       4.226  15.768  21.051  0.00  0.00    +0.000 NA
ATOM     24  N   UNL     1       3.461  15.902  19.946  0.00  0.00    +0.000 N 
ATOM     25  C   UNL     1       2.190  15.445  20.120  0.00  0.00    +0.000 A 
BRANCH  24  26
ATOM     26  C   UNL     1       4.013  16.511  18.741  0.00  0.00    +0.000 C 
ATOM     27  C   UNL     1       5.531  16.343  18.689  0.00  0.00    +0.000 C 
ATOM     28  C   UNL     1       3.346  15.961  17.482  0.00  0.00    +0.000 C 
ENDBRANCH  24  26
ENDBRANCH  19  21
ENDBRANCH   1  17
BRANCH  10  29
ATOM     29  C   UNL     1       3.537   5.592  18.217  0.00  0.00    +0.000 C 
BRANCH  29  30
ATOM     30  C   UNL     1       4.986   5.345  18.624  0.00  0.00    +0.000 C 
BRANCH  30  31
ATOM     31  N   UNL     1       5.931   6.201  17.870  0.00  0.00    +0.000 NA
ATOM     32  C   UNL     1       5.832   5.931  16.414  0.00  0.00    +0.000 C 
ATOM     33  C   UNL     1       6.417   4.568  15.999  0.00  0.00    +0.000 C 
ATOM     34  O   UNL     1       7.775   4.412  16.438  0.00  0.00    +0.000 OA
ATOM     35  C   UNL     1       7.891   4.618  17.852  0.00  0.00    +0.000 C 
ATOM     36  C   UNL     1       7.350   6.000  18.248  0.00  0.00    +0.000 C 
ENDBRANCH  30  31
ENDBRANCH  29  30
ENDBRANCH  10  29
TORSDOF 6
ENDMDL
MODEL 4
REMARK VINA RESULT:      -8.1      4.001      6.426
REMARK  Name = 
REMARK  9 active torsions:
REMARK  status: ('A' for Active; 'I' for Inactive)
REMARK    1  A    between atoms: C_1  and  C_2
REMARK    2  A    between atoms: N_6  and  C_7
REMARK    3  A    between atoms: C_16  and  C_18
REMARK    4  A    between atoms: C_18  and  C_19
REMARK    5  A    between atoms: C_19  and  N_20
REMARK    6  A    between atoms: C_27  and  C_28
REMARK    7  A    between atoms: N_31  and  C_32
REMARK    8  A    between atoms: C_32  and  C_33
REMARK    9  A    between atoms: C_32  and  C_34
REMARK                            x       y       z     vdW  Elec       q    Type
REMARK                         _______ _______ _______ _____ _____    ______ ____
ROOT
ATOM      1  C   UNL     1       0.334  10.269  20.742  0.00  0.00    +0.000 A 
ATOM      2  C   UNL     1       0.466   9.178  21.628  0.00  0.00    +0.000 A 
ATOM      3  C   UNL     1       1.138   7.997  21.256  0.00  0.00    +0.000 A 
ATOM      4  C   UNL     1       1.679   7.919  19.988  0.00  0.00    +0.000 A 
ATOM      5  C   UNL     1       1.551   8.992  19.107  0.00  0.00    +0.000 A 
ATOM      6  C   UNL     1       0.874  10.147  19.459  0.00  0.00    +0.000 A 
ATOM      7  C   UNL     1       2.277   8.754  17.828  0.00  0.00    +0.000 C 
ATOM      8  C   UNL     1       2.652   7.283  17.966  0.00  0.00    +0.000 C 
ATOM      9  N   UNL     1       2.402   6.884  19.362  0.00  0.00    +0.000 N 
ATOM     10  C   UNL     1       2.736   5.653  19.906  0.00  0.00    +0.000 C 
ATOM     11  O   UNL     1       2.475   5.295  21.052  0.00  0.00    +0.000 OA
ENDROOT
BRANCH   1  17
ATOM     12  C   UNL     1       1.168  16.625  22.470  0.00  0.00    +0.000 C 
ATOM     13  C   UNL     1       0.821  15.205  22.177  0.00  0.00    +0.000 A 
ATOM     14  C   UNL     1      -0.464  14.733  22.350  0.00  0.00    +0.000 A 
ATOM     15  N   UNL     1      -0.880  13.489  22.037  0.00  0.00    +0.000 NA
ATOM     16  C   UNL     1       0.040  12.658  21.531  0.00  0.00    +0.000 A 
ATOM     17  N   UNL     1      -0.400  11.398  21.128  0.00  0.00    +0.000 N 
ATOM     18  N   UNL     1       1.315  13.013  21.344  0.00  0.00    +0.000 NA
ATOM     19  C   UNL     1       1.698  14.268  21.658  0.00  0.00    +0.000 A 
ATOM     20  H   UNL     1      -1.400  11.310  21.212  0.00  0.00    +0.000 HD
BRANCH  19  21
ATOM     21  C   UNL     1       3.093  14.543  21.354  0.00  0.00    +0.000 A 
ATOM     22  C   UNL     1       4.248  14.642  22.159  0.00  0.00    +0.000 A 
ATOM     23  N   UNL     1       5.344  14.943  21.462  0.00  0.00    +0.000 NA
ATOM     24  N   UNL     1       4.901  15.016  20.189  0.00  0.00    +0.000 N 
ATOM     25  C   UNL     1       3.569  14.756  20.073  0.00  0.00    +0.000 A 
BRANCH  24  26
ATOM     26  C   UNL     1       5.818  15.372  19.112  0.00  0.00    +0.000 C 
ATOM     27  C   UNL     1       5.380  14.742  17.789  0.00  0.00    +0.000 C 
ATOM     28  C   UNL     1       5.970  16.886  18.985  0.00  0.00    +0.000 C 
ENDBRANCH  24  26
ENDBRANCH  19  21
ENDBRANCH   1  17
BRANCH  10  29
ATOM     29  C   UNL     1       3.568   4.771  18.980  0.00  0.00    +0.000 C 
BRANCH  29  30
ATOM     30  C   UNL     1       5.058   5.090  19.035  0.00  0.00    +0.000 C 
BRANCH  30  31
ATOM     31  N   UNL     1       5.825   4.355  18.001  0.00  0.00    +0.000 NA
ATOM     32  C   UNL     1       7.212   4.873  17.915  0.00  0.00    +0.000 C 
ATOM     33  C   UNL     1       7.309   6.275  17.281  0.00  0.00    +0.000 C 
ATOM     34  O   UNL     1       6.683   6.322  15.991  0.00  0.00    +0.000 OA
ATOM     35  C   UNL     1       5.323   5.873  16.055  0.00  0.00    +0.000 C 
ATOM     36  C   UNL     1       5.243   4.456  16.643  0.00  0.00    +0.000 C 
ENDBRANCH  30  31
ENDBRANCH  29  30
ENDBRANCH  10  29
TORSDOF 6
ENDMDL
MODEL 5
REMARK VINA RESULT:      -8.1      1.385      2.081
REMARK  Name = 
REMARK  9 active torsions:
REMARK  status: ('A' for Active; 'I' for Inactive)
REMARK    1  A    between atoms: C_1  and  C_2
REMARK    2  A    between atoms: N_6  and  C_7
REMARK    3  A    between atoms: C_16  and  C_18
REMARK    4  A    between atoms: C_18  and  C_19
REMARK    5  A    between atoms: C_19  and  N_20
REMARK    6  A    between atoms: C_27  and  C_28
REMARK    7  A    between atoms: N_31  and  C_32
REMARK    8  A    between atoms: C_32  and  C_33
REMARK    9  A    between atoms: C_32  and  C_34
REMARK                            x       y       z     vdW  Elec       q    Type
REMARK                         _______ _______ _______ _____ _____    ______ ____
ROOT
ATOM      1  C   UNL     1      -0.406  11.347  22.068  0.00  0.00    +0.000 A 
ATOM      2  C   UNL     1       0.003  11.804  20.797  0.00  0.00    +0.000 A 
ATOM      3  C   UNL     1       0.654  10.957  19.877  0.00  0.00    +0.000 A 
ATOM      4  C   UNL     1       0.890   9.647  20.242  0.00  0.00    +0.000 A 
ATOM      5  C   UNL     1       0.490   9.189  21.497  0.00  0.00    +0.000 A 
ATOM      6  C   UNL     1      -0.130  10.021  22.413  0.00  0.00    +0.000 A 
ATOM      7  C   UNL     1       0.748   7.732  21.668  0.00  0.00    +0.000 C 
ATOM      8  C   UNL     1       1.587   7.429  20.432  0.00  0.00    +0.000 C 
ATOM      9  N   UNL     1       1.498   8.593  19.532  0.00  0.00    +0.000 N 
ATOM     10  C   UNL     1       2.029   8.646  18.252  0.00  0.00    +0.000 C 
ATOM     11  O   UNL     1       2.010   9.635  17.523  0.00  0.00    +0.000 OA
ENDROOT
BRANCH   1  17
ATOM     12  C   UNL     1      -5.992  14.795  23.055  0.00  0.00    +0.000 C 
ATOM     13  C   UNL     1      -4.654  14.147  22.941  0.00  0.00    +0.000 A 
ATOM     14  C   UNL     1      -3.635  14.455  23.818  0.00  0.00    +0.000 A 
ATOM     15  N   UNL     1      -2.424  13.862  23.834  0.00  0.00    +0.000 NA
ATOM     16  C   UNL     1      -2.207  12.913  22.915  0.00  0.00    +0.000 A 
ATOM     17  N   UNL     1      -0.989  12.239  22.977  0.00  0.00    +0.000 N 
ATOM     18  N   UNL     1      -3.123  12.559  22.009  0.00  0.00    +0.000 NA
ATOM     19  C   UNL     1      -4.329  13.163  22.024  0.00  0.00    +0.000 A 
ATOM     20  H   UNL     1      -0.449  12.522  23.779  0.00  0.00    +0.000 HD
BRANCH  19  21
ATOM     21  C   UNL     1      -5.251  12.646  21.026  0.00  0.00    +0.000 A 
ATOM     22  C   UNL     1      -6.480  11.960  21.121  0.00  0.00    +0.000 A 
ATOM     23  N   UNL     1      -6.991  11.639  19.931  0.00  0.00    +0.000 NA
ATOM     24  N   UNL     1      -6.096  12.143  19.055  0.00  0.00    +0.000 N 
ATOM     25  C   UNL     1      -5.056  12.779  19.662  0.00  0.00    +0.000 A 
BRANCH  24  26
ATOM     26  C   UNL     1      -6.288  11.957  17.621  0.00  0.00    +0.000 C 
ATOM     27  C   UNL     1      -6.934  13.191  16.990  0.00  0.00    +0.000 C 
ATOM     28  C   UNL     1      -4.977  11.596  16.925  0.00  0.00    +0.000 C 
ENDBRANCH  24  26
ENDBRANCH  19  21
ENDBRANCH   1  17
BRANCH  10  29
ATOM     29  C   UNL     1       2.576   7.313  17.752  0.00  0.00    +0.000 C 
BRANCH  29  30
ATOM     30  C   UNL     1       4.091   7.319  17.582  0.00  0.00    +0.000 C 
BRANCH  30  31
ATOM     31  N   UNL     1       4.679   5.970  17.767  0.00  0.00    +0.000 NA
ATOM     32  C   UNL     1       6.097   6.073  18.192  0.00  0.00    +0.000 C 
ATOM     33  C   UNL     1       7.042   6.556  17.075  0.00  0.00    +0.000 C 
ATOM     34  O   UNL     1       6.938   5.742  15.897  0.00  0.00    +0.000 OA
ATOM     35  C   UNL     1       5.583   5.667  15.435  0.00  0.00    +0.000 C 
ATOM     36  C   UNL     1       4.657   5.138  16.542  0.00  0.00    +0.000 C 
ENDBRANCH  30  31
ENDBRANCH  29  30
ENDBRANCH  10  29
TORSDOF 6
ENDMDL
MODEL 6
REMARK VINA RESULT:      -8.0      3.756      6.018
REMARK  Name = 
REMARK  9 active torsions:
REMARK  status: ('A' for Active; 'I' for Inactive)
REMARK    1  A    between atoms: C_1  and  C_2
REMARK    2  A    between atoms: N_6  and  C_7
REMARK    3  A    between atoms: C_16  and  C_18
REMARK    4  A    between atoms: C_18  and  C_19
REMARK    5  A    between atoms: C_19  and  N_20
REMARK    6  A    between atoms: C_27  and  C_28
REMARK    7  A    between atoms: N_31  and  C_32
REMARK    8  A    between atoms: C_32  and  C_33
REMARK    9  A    between atoms: C_32  and  C_34
REMARK                            x       y       z     vdW  Elec       q    Type
REMARK                         _______ _______ _______ _____ _____    ______ ____
ROOT
ATOM      1  C   UNL     1       0.048  10.271  21.211  0.00  0.00    +0.000 A 
ATOM      2  C   UNL     1       0.355   9.045  21.840  0.00  0.00    +0.000 A 
ATOM      3  C   UNL     1       1.086   8.036  21.183  0.00  0.00    +0.000 A 
ATOM      4  C   UNL     1       1.507   8.265  19.888  0.00  0.00    +0.000 A 
ATOM      5  C   UNL     1       1.205   9.472  19.259  0.00  0.00    +0.000 A 
ATOM      6  C   UNL     1       0.470  10.460  19.892  0.00  0.00    +0.000 A 
ATOM      7  C   UNL     1       1.822   9.566  17.907  0.00  0.00    +0.000 C 
ATOM      8  C   UNL     1       2.331   8.144  17.710  0.00  0.00    +0.000 C 
ATOM      9  N   UNL     1       2.251   7.453  19.009  0.00  0.00    +0.000 N 
ATOM     10  C   UNL     1       2.738   6.179  19.261  0.00  0.00    +0.000 C 
ATOM     11  O   UNL     1       2.619   5.578  20.325  0.00  0.00    +0.000 OA
ENDROOT
BRANCH   1  17
ATOM     12  C   UNL     1       0.097  16.659  23.018  0.00  0.00    +0.000 C 
ATOM     13  C   UNL     1      -0.034  15.198  22.751  0.00  0.00    +0.000 A 
ATOM     14  C   UNL     1      -1.079  14.467  23.277  0.00  0.00    +0.000 A 
ATOM     15  N   UNL     1      -1.315  13.164  23.025  0.00  0.00    +0.000 NA
ATOM     16  C   UNL     1      -0.454  12.544  22.208  0.00  0.00    +0.000 A 
ATOM     17  N   UNL     1      -0.738  11.221  21.876  0.00  0.00    +0.000 N 
ATOM     18  N   UNL     1       0.601  13.159  21.665  0.00  0.00    +0.000 NA
ATOM     19  C   UNL     1       0.806  14.466  21.928  0.00  0.00    +0.000 A 
ATOM     20  H   UNL     1      -1.623  10.925  22.256  0.00  0.00    +0.000 HD
BRANCH  19  21
ATOM     21  C   UNL     1       1.952  15.027  21.232  0.00  0.00    +0.000 A 
ATOM     22  C   UNL     1       2.074  15.810  20.064  0.00  0.00    +0.000 A 
ATOM     23  N   UNL     1       3.341  16.091  19.755  0.00  0.00    +0.000 NA
ATOM     24  N   UNL     1       4.046  15.504  20.746  0.00  0.00    +0.000 N 
ATOM     25  C   UNL     1       3.257  14.882  21.666  0.00  0.00    +0.000 A 
BRANCH  24  26
ATOM     26  C   UNL     1       5.504  15.556  20.739  0.00  0.00    +0.000 C 
ATOM     27  C   UNL     1       6.090  14.596  21.775  0.00  0.00    +0.000 C 
ATOM     28  C   UNL     1       6.066  15.285  19.346  0.00  0.00    +0.000 C 
ENDBRANCH  24  26
ENDBRANCH  19  21
ENDBRANCH   1  17
BRANCH  10  29
ATOM     29  C   UNL     1       3.548   5.587  18.112  0.00  0.00    +0.000 C 
BRANCH  29  30
ATOM     30  C   UNL     1       4.961   5.190  18.523  0.00  0.00    +0.000 C 
BRANCH  30  31
ATOM     31  N   UNL     1       5.980   6.132  18.001  0.00  0.00    +0.000 NA
ATOM     32  C   UNL     1       5.956   6.155  16.517  0.00  0.00    +0.000 C 
ATOM     33  C   UNL     1       6.513   4.873  15.871  0.00  0.00    +0.000 C 
ATOM     34  O   UNL     1       7.836   4.570  16.337  0.00  0.00    +0.000 OA
ATOM     35  C   UNL     1       7.878   4.491  17.768  0.00  0.00    +0.000 C 
ATOM     36  C   UNL     1       7.366   5.793  18.402  0.00  0.00    +0.000 C 
ENDBRANCH  30  31
ENDBRANCH  29  30
ENDBRANCH  10  29
TORSDOF 6
ENDMDL
MODEL 7
REMARK VINA RESULT:      -7.9      3.712      5.496
REMARK  Name = 
REMARK  9 active torsions:
REMARK  status: ('A' for Active; 'I' for Inactive)
REMARK    1  A    between atoms: C_1  and  C_2
REMARK    2  A    between atoms: N_6  and  C_7
REMARK    3  A    between atoms: C_16  and  C_18
REMARK    4  A    between atoms: C_18  and  C_19
REMARK    5  A    between atoms: C_19  and  N_20
REMARK    6  A    between atoms: C_27  and  C_28
REMARK    7  A    between atoms: N_31  and  C_32
REMARK    8  A    between atoms: C_32  and  C_33
REMARK    9  A    between atoms: C_32  and  C_34
REMARK                            x       y       z     vdW  Elec       q    Type
REMARK                         _______ _______ _______ _____ _____    ______ ____
ROOT
ATOM      1  C   UNL     1      -0.072  10.636  21.424  0.00  0.00    +0.000 A 
ATOM      2  C   UNL     1       0.317   9.419  22.025  0.00  0.00    +0.000 A 
ATOM      3  C   UNL     1       1.048   8.442  21.320  0.00  0.00    +0.000 A 
ATOM      4  C   UNL     1       1.388   8.696  20.007  0.00  0.00    +0.000 A 
ATOM      5  C   UNL     1       1.006   9.895  19.406  0.00  0.00    +0.000 A 
ATOM      6  C   UNL     1       0.270  10.850  20.087  0.00  0.00    +0.000 A 
ATOM      7  C   UNL     1       1.544  10.023  18.023  0.00  0.00    +0.000 C 
ATOM      8  C   UNL     1       2.095   8.622  17.785  0.00  0.00    +0.000 C 
ATOM      9  N   UNL     1       2.113   7.920  19.081  0.00  0.00    +0.000 N 
ATOM     10  C   UNL     1       2.661   6.664  19.294  0.00  0.00    +0.000 C 
ATOM     11  O   UNL     1       2.624   6.051  20.358  0.00  0.00    +0.000 OA
ENDROOT
BRANCH   1  17
ATOM     12  C   UNL     1      -0.122  16.987  23.358  0.00  0.00    +0.000 C 
ATOM     13  C   UNL     1      -0.224  15.528  23.067  0.00  0.00    +0.000 A 
ATOM     14  C   UNL     1      -1.227  14.758  23.621  0.00  0.00    +0.000 A 
ATOM     15  N   UNL     1      -1.437  13.454  23.351  0.00  0.00    +0.000 NA
ATOM     16  C   UNL     1      -0.594  12.875  22.488  0.00  0.00    +0.000 A 
ATOM     17  N   UNL     1      -0.854  11.550  22.140  0.00  0.00    +0.000 N 
ATOM     18  N   UNL     1       0.421  13.530  21.915  0.00  0.00    +0.000 NA
ATOM     19  C   UNL     1       0.600  14.836  22.197  0.00  0.00    +0.000 A 
ATOM     20  H   UNL     1      -1.715  11.222  22.550  0.00  0.00    +0.000 HD
BRANCH  19  21
ATOM     21  C   UNL     1       1.701  15.443  21.466  0.00  0.00    +0.000 A 
ATOM     22  C   UNL     1       2.927  16.009  21.875  0.00  0.00    +0.000 A 
ATOM     23  N   UNL     1       3.646  16.486  20.858  0.00  0.00    +0.000 NA
ATOM     24  N   UNL     1       2.890  16.205  19.775  0.00  0.00    +0.000 N 
ATOM     25  C   UNL     1       1.733  15.556  20.087  0.00  0.00    +0.000 A 
BRANCH  24  26
ATOM     26  C   UNL     1       3.330  16.615  18.446  0.00  0.00    +0.000 C 
ATOM     27  C   UNL     1       4.022  15.462  17.719  0.00  0.00    +0.000 C 
ATOM     28  C   UNL     1       2.173  17.179  17.625  0.00  0.00    +0.000 C 
ENDBRANCH  24  26
ENDBRANCH  19  21
ENDBRANCH   1  17
BRANCH  10  29
ATOM     29  C   UNL     1       3.428   6.112  18.097  0.00  0.00    +0.000 C 
BRANCH  29  30
ATOM     30  C   UNL     1       3.897   4.675  18.302  0.00  0.00    +0.000 C 
BRANCH  30  31
ATOM     31  N   UNL     1       3.205   3.728  17.397  0.00  0.00    +0.000 NA
ATOM     32  C   UNL     1       1.733   3.842  17.549  0.00  0.00    +0.000 C 
ATOM     33  C   UNL     1       1.205   3.274  18.881  0.00  0.00    +0.000 C 
ATOM     34  O   UNL     1       1.618   1.914  19.083  0.00  0.00    +0.000 OA
ATOM     35  C   UNL     1       3.043   1.784  18.991  0.00  0.00    +0.000 C 
ATOM     36  C   UNL     1       3.552   2.308  17.640  0.00  0.00    +0.000 C 
ENDBRANCH  30  31
ENDBRANCH  29  30
ENDBRANCH  10  29
TORSDOF 6
ENDMDL
MODEL 8
REMARK VINA RESULT:      -7.9      1.843      2.707
REMARK  Name = 
REMARK  9 active torsions:
REMARK  status: ('A' for Active; 'I' for Inactive)
REMARK    1  A    between atoms: C_1  and  C_2
REMARK    2  A    between atoms: N_6  and  C_7
REMARK    3  A    between atoms: C_16  and  C_18
REMARK    4  A    between atoms: C_18  and  C_19
REMARK    5  A    between atoms: C_19  and  N_20
REMARK    6  A    between atoms: C_27  and  C_28
REMARK    7  A    between atoms: N_31  and  C_32
REMARK    8  A    between atoms: C_32  and  C_33
REMARK    9  A    between atoms: C_32  and  C_34
REMARK                            x       y       z     vdW  Elec       q    Type
REMARK                         _______ _______ _______ _____ _____    ______ ____
ROOT
ATOM      1  C   UNL     1       0.847  10.115  21.346  0.00  0.00    +0.000 A 
ATOM      2  C   UNL     1       1.041   8.839  21.918  0.00  0.00    +0.000 A 
ATOM      3  C   UNL     1       1.499   7.745  21.157  0.00  0.00    +0.000 A 
ATOM      4  C   UNL     1       1.762   7.941  19.816  0.00  0.00    +0.000 A 
ATOM      5  C   UNL     1       1.571   9.198  19.243  0.00  0.00    +0.000 A 
ATOM      6  C   UNL     1       1.102  10.272  19.981  0.00  0.00    +0.000 A 
ATOM      7  C   UNL     1       1.996   9.232  17.816  0.00  0.00    +0.000 C 
ATOM      8  C   UNL     1       2.237   7.753  17.540  0.00  0.00    +0.000 C 
ATOM      9  N   UNL     1       2.233   7.048  18.834  0.00  0.00    +0.000 N 
ATOM     10  C   UNL     1       2.541   5.706  19.006  0.00  0.00    +0.000 C 
ATOM     11  O   UNL     1       2.480   5.101  20.073  0.00  0.00    +0.000 OA
ENDROOT
BRANCH   1  17
ATOM     12  C   UNL     1      -3.990  14.662  21.315  0.00  0.00    +0.000 C 
ATOM     13  C   UNL     1      -2.814  13.754  21.438  0.00  0.00    +0.000 A 
ATOM     14  C   UNL     1      -1.900  13.904  22.461  0.00  0.00    +0.000 A 
ATOM     15  N   UNL     1      -0.855  13.083  22.691  0.00  0.00    +0.000 NA
ATOM     16  C   UNL     1      -0.700  12.057  21.845  0.00  0.00    +0.000 A 
ATOM     17  N   UNL     1       0.328  11.158  22.123  0.00  0.00    +0.000 N 
ATOM     18  N   UNL     1      -1.519  11.839  20.811  0.00  0.00    +0.000 NA
ATOM     19  C   UNL     1      -2.561  12.671  20.613  0.00  0.00    +0.000 A 
ATOM     20  H   UNL     1       0.784  11.374  22.995  0.00  0.00    +0.000 HD
BRANCH  19  21
ATOM     21  C   UNL     1      -3.405  12.291  19.492  0.00  0.00    +0.000 A 
ATOM     22  C   UNL     1      -3.121  11.761  18.215  0.00  0.00    +0.000 A 
ATOM     23  N   UNL     1      -4.213  11.581  17.471  0.00  0.00    +0.000 NA
ATOM     24  N   UNL     1      -5.218  11.974  18.282  0.00  0.00    +0.000 N 
ATOM     25  C   UNL     1      -4.785  12.379  19.509  0.00  0.00    +0.000 A 
BRANCH  24  26
ATOM     26  C   UNL     1      -6.596  11.962  17.803  0.00  0.00    +0.000 C 
ATOM     27  C   UNL     1      -7.581  11.954  18.972  0.00  0.00    +0.000 C 
ATOM     28  C   UNL     1      -6.866  13.125  16.852  0.00  0.00    +0.000 C 
ENDBRANCH  24  26
ENDBRANCH  19  21
ENDBRANCH   1  17
BRANCH  10  29
ATOM     29  C   UNL     1       3.073   5.026  17.748  0.00  0.00    +0.000 C 
BRANCH  29  30
ATOM     30  C   UNL     1       4.553   4.673  17.844  0.00  0.00    +0.000 C 
BRANCH  30  31
ATOM     31  N   UNL     1       5.422   5.774  17.365  0.00  0.00    +0.000 NA
ATOM     32  C   UNL     1       5.670   5.647  15.908  0.00  0.00    +0.000 C 
ATOM     33  C   UNL     1       6.603   4.477  15.541  0.00  0.00    +0.000 C 
ATOM     34  O   UNL     1       7.850   4.545  16.249  0.00  0.00    +0.000 OA
ATOM     35  C   UNL     1       7.640   4.618  17.665  0.00  0.00    +0.000 C 
ATOM     36  C   UNL     1       6.748   5.817  18.024  0.00  0.00    +0.000 C 
ENDBRANCH  30  31
ENDBRANCH  29  30
ENDBRANCH  10  29
TORSDOF 6
ENDMDL
MODEL 9
REMARK VINA RESULT:      -7.9      3.975      6.592
REMARK  Name = 
REMARK  9 active torsions:
REMARK  status: ('A' for Active; 'I' for Inactive)
REMARK    1  A    between atoms: C_1  and  C_2
REMARK    2  A    between atoms: N_6  and  C_7
REMARK    3  A    between atoms: C_16  and  C_18
REMARK    4  A    between atoms: C_18  and  C_19
REMARK    5  A    between atoms: C_19  and  N_20
REMARK    6  A    between atoms: C_27  and  C_28
REMARK    7  A    between atoms: N_31  and  C_32
REMARK    8  A    between atoms: C_32  and  C_33
REMARK    9  A    between atoms: C_32  and  C_34
REMARK                            x       y       z     vdW  Elec       q    Type
REMARK                         _______ _______ _______ _____ _____    ______ ____
ROOT
ATOM      1  C   UNL     1       0.247  10.415  20.951  0.00  0.00    +0.000 A 
ATOM      2  C   UNL     1       0.418   9.283  21.778  0.00  0.00    +0.000 A 
ATOM      3  C   UNL     1       1.075   8.123  21.322  0.00  0.00    +0.000 A 
ATOM      4  C   UNL     1       1.563   8.107  20.030  0.00  0.00    +0.000 A 
ATOM      5  C   UNL     1       1.396   9.221  19.208  0.00  0.00    +0.000 A 
ATOM      6  C   UNL     1       0.733  10.356  19.642  0.00  0.00    +0.000 A 
ATOM      7  C   UNL     1       2.068   9.047  17.890  0.00  0.00    +0.000 C 
ATOM      8  C   UNL     1       2.451   7.573  17.941  0.00  0.00    +0.000 C 
ATOM      9  N   UNL     1       2.260   7.107  19.326  0.00  0.00    +0.000 N 
ATOM     10  C   UNL     1       2.619   5.852  19.796  0.00  0.00    +0.000 C 
ATOM     11  O   UNL     1       2.406   5.439  20.933  0.00  0.00    +0.000 OA
ENDROOT
BRANCH   1  17
ATOM     12  C   UNL     1       1.069  16.810  22.533  0.00  0.00    +0.000 C 
ATOM     13  C   UNL     1       0.738  15.376  22.291  0.00  0.00    +0.000 A 
ATOM     14  C   UNL     1      -0.498  14.863  22.628  0.00  0.00    +0.000 A 
ATOM     15  N   UNL     1      -0.906  13.603  22.375  0.00  0.00    +0.000 NA
ATOM     16  C   UNL     1      -0.029  12.799  21.761  0.00  0.00    +0.000 A 
ATOM     17  N   UNL     1      -0.471  11.522  21.422  0.00  0.00    +0.000 N 
ATOM     18  N   UNL     1       1.200  13.196  21.414  0.00  0.00    +0.000 NA
ATOM     19  C   UNL     1       1.576  14.465  21.671  0.00  0.00    +0.000 A 
ATOM     20  H   UNL     1      -1.449  11.400  21.631  0.00  0.00    +0.000 HD
BRANCH  19  21
ATOM     21  C   UNL     1       2.911  14.785  21.193  0.00  0.00    +0.000 A 
ATOM     22  C   UNL     1       3.388  15.355  19.994  0.00  0.00    +0.000 A 
ATOM     23  N   UNL     1       4.718  15.447  19.954  0.00  0.00    +0.000 NA
ATOM     24  N   UNL     1       5.107  14.955  21.150  0.00  0.00    +0.000 N 
ATOM     25  C   UNL     1       4.060  14.573  21.934  0.00  0.00    +0.000 A 
BRANCH  24  26
ATOM     26  C   UNL     1       6.524  14.850  21.475  0.00  0.00    +0.000 C 
ATOM     27  C   UNL     1       6.778  13.705  22.456  0.00  0.00    +0.000 C 
ATOM     28  C   UNL     1       7.377  14.706  20.217  0.00  0.00    +0.000 C 
ENDBRANCH  24  26
ENDBRANCH  19  21
ENDBRANCH   1  17
BRANCH  10  29
ATOM     29  C   UNL     1       3.412   5.018  18.794  0.00  0.00    +0.000 C 
BRANCH  29  30
ATOM     30  C   UNL     1       4.918   5.091  19.020  0.00  0.00    +0.000 C 
BRANCH  30  31
ATOM     31  N   UNL     1       5.678   4.445  17.924  0.00  0.00    +0.000 NA
ATOM     32  C   UNL     1       7.105   4.850  17.972  0.00  0.00    +0.000 C 
ATOM     33  C   UNL     1       7.346   6.313  17.554  0.00  0.00    +0.000 C 
ATOM     34  O   UNL     1       6.797   6.596  16.258  0.00  0.00    +0.000 OA
ATOM     35  C   UNL     1       5.404   6.261  16.200  0.00  0.00    +0.000 C 
ATOM     36  C   UNL     1       5.181   4.787  16.571  0.00  0.00    +0.000 C 
ENDBRANCH  30  31
ENDBRANCH  29  30
ENDBRANCH  10  29
TORSDOF 6
ENDMDL
