MODEL 1
REMARK VINA RESULT:      -8.4      0.000      0.000
REMARK  Name = 
REMARK  14 active torsions:
REMARK  status: ('A' for Active; 'I' for Inactive)
REMARK    1  A    between atoms: C_1  and  C_2
REMARK    2  A    between atoms: C_2  and  C_3
REMARK    3  A    between atoms: C_3  and  O_4
REMARK    4  A    between atoms: O_4  and  C_5
REMARK    5  A    between atoms: C_10  and  N_11
REMARK    6  A    between atoms: C_12  and  C_14
REMARK    7  A    between atoms: C_14  and  C_15
REMARK    8  A    between atoms: C_14  and  C_31
REMARK    9  A    between atoms: C_15  and  C_16
REMARK   10  A    between atoms: N_18  and  C_19
REMARK   11  A    between atoms: C_19  and  C_20
REMARK   12  A    between atoms: C_20  and  C_21
REMARK   13  A    between atoms: C_31  and  C_32
REMARK   14  A    between atoms: C_31  and  C_33
REMARK                            x       y       z     vdW  Elec       q    Type
REMARK                         _______ _______ _______ _____ _____    ______ ____
ROOT
ATOM      1  C   UNL     1       3.588   4.155  19.467  0.00  0.00    +0.000 C 
ENDROOT
BRANCH   1   3
ATOM      2  N   UNL     1       4.669   4.297  17.241  0.00  0.00    +0.000 N 
ATOM      3  C   UNL     1       4.836   4.040  18.586  0.00  0.00    +0.000 C 
ATOM      4  O   UNL     1       5.919   3.669  19.025  0.00  0.00    +0.000 OA
ATOM      5  H   UNL     1       3.811   4.724  16.917  0.00  0.00    +0.000 HD
BRANCH   2  11
ATOM      6  C   UNL     1       6.504   5.455  15.899  0.00  0.00    +0.000 C 
ATOM      7  O   UNL     1       7.031   5.227  14.595  0.00  0.00    +0.000 OA
ATOM      8  C   UNL     1       6.365   4.200  14.014  0.00  0.00    +0.000 C 
ATOM      9  O   UNL     1       6.545   3.849  12.856  0.00  0.00    +0.000 OA
ATOM     10  C   UNL     1       5.385   3.573  14.953  0.00  0.00    +0.000 C 
ATOM     11  C   UNL     1       5.789   4.152  16.295  0.00  0.00    +0.000 C 
BRANCH   6  12
ATOM     12  O   UNL     1       7.549   5.763  16.830  0.00  0.00    +0.000 OA
BRANCH  12  13
ATOM     13  C   UNL     1       7.500   7.151  17.176  0.00  0.00    +0.000 C 
BRANCH  13  15
ATOM     14  C   UNL     1       8.130   6.063  19.337  0.00  0.00    +0.000 C 
ATOM     15  C   UNL     1       8.105   7.366  18.555  0.00  0.00    +0.000 C 
ENDBRANCH  13  15
ENDBRANCH  12  13
ENDBRANCH   6  12
ENDBRANCH   2  11
ENDBRANCH   1   3
BRANCH   1  16
ATOM     16  C   UNL     1       3.113   2.767  19.990  0.00  0.00    +0.000 C 
ATOM     17  C   UNL     1       2.520   2.767  21.404  0.00  0.00    +0.000 C 
ATOM     18  C   UNL     1       2.132   2.108  19.012  0.00  0.00    +0.000 C 
ENDBRANCH   1  16
BRANCH   1  19
ATOM     19  C   UNL     1       2.510   4.885  18.641  0.00  0.00    +0.000 C 
BRANCH  19  20
ATOM     20  C   UNL     1       2.215   6.263  19.196  0.00  0.00    +0.000 C 
ATOM     21  O   UNL     1       1.911   6.431  20.374  0.00  0.00    +0.000 OA
ATOM     22  N   UNL     1       2.334   7.302  18.294  0.00  0.00    +0.000 N 
ATOM     23  H   UNL     1       2.440   7.094  17.310  0.00  0.00    +0.000 HD
BRANCH  22  24
ATOM     24  C   UNL     1       2.031   8.671  18.701  0.00  0.00    +0.000 C 
BRANCH  24  25
ATOM     25  C   UNL     1       1.018   9.364  17.789  0.00  0.00    +0.000 C 
BRANCH  25  26
ATOM     26  C   UNL     1       0.105  10.331  18.526  0.00  0.00    +0.000 A 
ATOM     27  C   UNL     1       0.627  11.006  19.643  0.00  0.00    +0.000 A 
ATOM     28  C   UNL     1      -0.173  11.859  20.388  0.00  0.00    +0.000 A 
ATOM     29  C   UNL     1      -1.513  12.032  20.047  0.00  0.00    +0.000 A 
ATOM     30  C   UNL     1      -2.072  11.394  18.951  0.00  0.00    +0.000 A 
ATOM     31  N   UNL     1      -3.376  11.604  18.707  0.00  0.00    +0.000 NA
ATOM     32  C   UNL     1      -3.931  11.004  17.636  0.00  0.00    +0.000 A 
ATOM     33  C   UNL     1      -3.224  10.208  16.761  0.00  0.00    +0.000 A 
ATOM     34  C   UNL     1      -1.874   9.991  17.018  0.00  0.00    +0.000 A 
ATOM     35  C   UNL     1      -1.254  10.555  18.151  0.00  0.00    +0.000 A 
ENDBRANCH  25  26
ENDBRANCH  24  25
ENDBRANCH  22  24
ENDBRANCH  19  20
ENDBRANCH   1  19
TORSDOF 11
ENDMDL
MODEL 2
REMARK VINA RESULT:      -8.4      1.977      2.620
REMARK  Name = 
REMARK  14 active torsions:
REMARK  status: ('A' for Active; 'I' for Inactive)
REMARK    1  A    between atoms: C_1  and  C_2
REMARK    2  A    between atoms: C_2  and  C_3
REMARK    3  A    between atoms: C_3  and  O_4
REMARK    4  A    between atoms: O_4  and  C_5
REMARK    5  A    between atoms: C_10  and  N_11
REMARK    6  A    between atoms: C_12  and  C_14
REMARK    7  A    between atoms: C_14  and  C_15
REMARK    8  A    between atoms: C_14  and  C_31
REMARK    9  A    between atoms: C_15  and  C_16
REMARK   10  A    between atoms: N_18  and  C_19
REMARK   11  A    between atoms: C_19  and  C_20
REMARK   12  A    between atoms: C_20  and  C_21
REMARK   13  A    between atoms: C_31  and  C_32
REMARK   14  A    between atoms: C_31  and  C_33
REMARK                            x       y       z     vdW  Elec       q    Type
REMARK                         _______ _______ _______ _____ _____    ______ ____
ROOT
ATOM      1  C   UNL     1       2.889   4.076  19.385  0.00  0.00    +0.000 C 
ENDROOT
BRANCH   1   3
ATOM      2  N   UNL     1       4.676   4.534  17.731  0.00  0.00    +0.000 N 
ATOM      3  C   UNL     1       4.046   3.586  18.508  0.00  0.00    +0.000 C 
ATOM      4  O   UNL     1       4.360   2.402  18.435  0.00  0.00    +0.000 OA
ATOM      5  H   UNL     1       4.496   5.516  17.896  0.00  0.00    +0.000 HD
BRANCH   2  11
ATOM      6  C   UNL     1       6.850   5.220  16.586  0.00  0.00    +0.000 C 
ATOM      7  O   UNL     1       7.364   4.984  15.278  0.00  0.00    +0.000 OA
ATOM      8  C   UNL     1       6.459   4.275  14.560  0.00  0.00    +0.000 C 
ATOM      9  O   UNL     1       6.598   4.012  13.373  0.00  0.00    +0.000 OA
ATOM     10  C   UNL     1       5.282   3.876  15.391  0.00  0.00    +0.000 C 
ATOM     11  C   UNL     1       5.757   4.160  16.803  0.00  0.00    +0.000 C 
BRANCH   6  12
ATOM     12  O   UNL     1       7.880   5.097  17.574  0.00  0.00    +0.000 OA
BRANCH  12  13
ATOM     13  C   UNL     1       7.860   6.232  18.444  0.00  0.00    +0.000 C 
BRANCH  13  15
ATOM     14  C   UNL     1       8.218   8.658  17.957  0.00  0.00    +0.000 C 
ATOM     15  C   UNL     1       7.332   7.449  17.701  0.00  0.00    +0.000 C 
ENDBRANCH  13  15
ENDBRANCH  12  13
ENDBRANCH   6  12
ENDBRANCH   2  11
ENDBRANCH   1   3
BRANCH   1  16
ATOM     16  C   UNL     1       1.970   2.906  19.846  0.00  0.00    +0.000 C 
ATOM     17  C   UNL     1       1.414   3.029  21.270  0.00  0.00    +0.000 C 
ATOM     18  C   UNL     1       0.822   2.675  18.856  0.00  0.00    +0.000 C 
ENDBRANCH   1  16
BRANCH   1  19
ATOM     19  C   UNL     1       2.131   5.153  18.585  0.00  0.00    +0.000 C 
BRANCH  19  20
ATOM     20  C   UNL     1       2.251   6.519  19.228  0.00  0.00    +0.000 C 
ATOM     21  O   UNL     1       2.842   7.442  18.674  0.00  0.00    +0.000 OA
ATOM     22  N   UNL     1       1.637   6.649  20.458  0.00  0.00    +0.000 N 
ATOM     23  H   UNL     1       1.295   5.824  20.931  0.00  0.00    +0.000 HD
BRANCH  22  24
ATOM     24  C   UNL     1       1.722   7.906  21.196  0.00  0.00    +0.000 C 
BRANCH  24  25
ATOM     25  C   UNL     1       0.369   8.596  21.375  0.00  0.00    +0.000 C 
BRANCH  25  26
ATOM     26  C   UNL     1       0.300   9.968  20.723  0.00  0.00    +0.000 A 
ATOM     27  C   UNL     1       0.876  10.121  19.451  0.00  0.00    +0.000 A 
ATOM     28  C   UNL     1       0.893  11.360  18.828  0.00  0.00    +0.000 A 
ATOM     29  C   UNL     1       0.360  12.472  19.478  0.00  0.00    +0.000 A 
ATOM     30  C   UNL     1      -0.225  12.371  20.730  0.00  0.00    +0.000 A 
ATOM     31  N   UNL     1      -0.697  13.498  21.289  0.00  0.00    +0.000 NA
ATOM     32  C   UNL     1      -1.282  13.415  22.499  0.00  0.00    +0.000 A 
ATOM     33  C   UNL     1      -1.448  12.229  23.182  0.00  0.00    +0.000 A 
ATOM     34  C   UNL     1      -0.957  11.065  22.601  0.00  0.00    +0.000 A 
ATOM     35  C   UNL     1      -0.292  11.101  21.359  0.00  0.00    +0.000 A 
ENDBRANCH  25  26
ENDBRANCH  24  25
ENDBRANCH  22  24
ENDBRANCH  19  20
ENDBRANCH   1  19
TORSDOF 11
ENDMDL
MODEL 3
REMARK VINA RESULT:      -8.3      2.086      2.665
REMARK  Name = 
REMARK  14 active torsions:
REMARK  status: ('A' for Active; 'I' for Inactive)
REMARK    1  A    between atoms: C_1  and  C_2
REMARK    2  A    between atoms: C_2  and  C_3
REMARK    3  A    between atoms: C_3  and  O_4
REMARK    4  A    between atoms: O_4  and  C_5
REMARK    5  A    between atoms: C_10  and  N_11
REMARK    6  A    between atoms: C_12  and  C_14
REMARK    7  A    between atoms: C_14  and  C_15
REMARK    8  A    between atoms: C_14  and  C_31
REMARK    9  A    between atoms: C_15  and  C_16
REMARK   10  A    between atoms: N_18  and  C_19
REMARK   11  A    between atoms: C_19  and  C_20
REMARK   12  A    between atoms: C_20  and  C_21
REMARK   13  A    between atoms: C_31  and  C_32
REMARK   14  A    between atoms: C_31  and  C_33
REMARK                            x       y       z     vdW  Elec       q    Type
REMARK                         _______ _______ _______ _____ _____    ______ ____
ROOT
ATOM      1  C   UNL     1       3.048   4.315  20.001  0.00  0.00    +0.000 C 
ENDROOT
BRANCH   1   3
ATOM      2  N   UNL     1       4.185   4.926  17.885  0.00  0.00    +0.000 N 
ATOM      3  C   UNL     1       4.285   4.276  19.096  0.00  0.00    +0.000 C 
ATOM      4  O   UNL     1       5.293   3.641  19.388  0.00  0.00    +0.000 OA
ATOM      5  H   UNL     1       3.404   5.548  17.715  0.00  0.00    +0.000 HD
BRANCH   2  11
ATOM      6  C   UNL     1       5.437   6.146  16.027  0.00  0.00    +0.000 C 
ATOM      7  O   UNL     1       6.041   5.694  14.817  0.00  0.00    +0.000 OA
ATOM      8  C   UNL     1       5.851   4.358  14.691  0.00  0.00    +0.000 C 
ATOM      9  O   UNL     1       6.182   3.722  13.701  0.00  0.00    +0.000 OA
ATOM     10  C   UNL     1       5.181   3.778  15.895  0.00  0.00    +0.000 C 
ATOM     11  C   UNL     1       5.290   4.897  16.912  0.00  0.00    +0.000 C 
BRANCH   6  12
ATOM     12  O   UNL     1       6.251   7.133  16.672  0.00  0.00    +0.000 OA
BRANCH  12  13
ATOM     13  C   UNL     1       7.510   6.561  17.041  0.00  0.00    +0.000 C 
BRANCH  13  15
ATOM     14  C   UNL     1       7.932   5.810  19.387  0.00  0.00    +0.000 C 
ATOM     15  C   UNL     1       7.891   7.002  18.445  0.00  0.00    +0.000 C 
ENDBRANCH  13  15
ENDBRANCH  12  13
ENDBRANCH   6  12
ENDBRANCH   2  11
ENDBRANCH   1   3
BRANCH   1  16
ATOM     16  C   UNL     1       2.529   2.886  20.340  0.00  0.00    +0.000 C 
ATOM     17  C   UNL     1       2.079   2.679  21.792  0.00  0.00    +0.000 C 
ATOM     18  C   UNL     1       1.412   2.457  19.381  0.00  0.00    +0.000 C 
ENDBRANCH   1  16
BRANCH   1  19
ATOM     19  C   UNL     1       1.991   5.185  19.294  0.00  0.00    +0.000 C 
BRANCH  19  20
ATOM     20  C   UNL     1       2.066   6.631  19.738  0.00  0.00    +0.000 C 
ATOM     21  O   UNL     1       2.633   7.484  19.060  0.00  0.00    +0.000 OA
ATOM     22  N   UNL     1       1.441   6.916  20.936  0.00  0.00    +0.000 N 
ATOM     23  H   UNL     1       1.121   6.156  21.521  0.00  0.00    +0.000 HD
BRANCH  22  24
ATOM     24  C   UNL     1       1.485   8.267  21.488  0.00  0.00    +0.000 C 
BRANCH  24  25
ATOM     25  C   UNL     1       0.144   8.998  21.407  0.00  0.00    +0.000 C 
BRANCH  25  26
ATOM     26  C   UNL     1       0.241  10.364  20.744  0.00  0.00    +0.000 A 
ATOM     27  C   UNL     1       0.854  10.439  19.482  0.00  0.00    +0.000 A 
ATOM     28  C   UNL     1       1.021  11.663  18.851  0.00  0.00    +0.000 A 
ATOM     29  C   UNL     1       0.602  12.833  19.482  0.00  0.00    +0.000 A 
ATOM     30  C   UNL     1      -0.014  12.810  20.723  0.00  0.00    +0.000 A 
ATOM     31  N   UNL     1      -0.368  13.987  21.264  0.00  0.00    +0.000 NA
ATOM     32  C   UNL     1      -0.982  13.981  22.463  0.00  0.00    +0.000 A 
ATOM     33  C   UNL     1      -1.292  12.827  23.151  0.00  0.00    +0.000 A 
ATOM     34  C   UNL     1      -0.922  11.610  22.588  0.00  0.00    +0.000 A 
ATOM     35  C   UNL     1      -0.234  11.561  21.359  0.00  0.00    +0.000 A 
ENDBRANCH  25  26
ENDBRANCH  24  25
ENDBRANCH  22  24
ENDBRANCH  19  20
ENDBRANCH   1  19
TORSDOF 11
ENDMDL
MODEL 4
REMARK VINA RESULT:      -8.2      1.940      2.520
REMARK  Name = 
REMARK  14 active torsions:
REMARK  status: ('A' for Active; 'I' for Inactive)
REMARK    1  A    between atoms: C_1  and  C_2
REMARK    2  A    between atoms: C_2  and  C_3
REMARK    3  A    between atoms: C_3  and  O_4
REMARK    4  A    between atoms: O_4  and  C_5
REMARK    5  A    between atoms: C_10  and  N_11
REMARK    6  A    between atoms: C_12  and  C_14
REMARK    7  A    between atoms: C_14  and  C_15
REMARK    8  A    between atoms: C_14  and  C_31
REMARK    9  A    between atoms: C_15  and  C_16
REMARK   10  A    between atoms: N_18  and  C_19
REMARK   11  A    between atoms: C_19  and  C_20
REMARK   12  A    between atoms: C_20  and  C_21
REMARK   13  A    between atoms: C_31  and  C_32
REMARK   14  A    between atoms: C_31  and  C_33
REMARK                            x       y       z     vdW  Elec       q    Type
REMARK                         _______ _______ _______ _____ _____    ______ ____
ROOT
ATOM      1  C   UNL     1       3.133   4.007  19.432  0.00  0.00    +0.000 C 
ENDROOT
BRANCH   1   3
ATOM      2  N   UNL     1       4.334   4.515  17.324  0.00  0.00    +0.000 N 
ATOM      3  C   UNL     1       4.443   4.163  18.653  0.00  0.00    +0.000 C 
ATOM      4  O   UNL     1       5.538   3.919  19.151  0.00  0.00    +0.000 OA
ATOM      5  H   UNL     1       3.444   4.837  16.964  0.00  0.00    +0.000 HD
BRANCH   2  11
ATOM      6  C   UNL     1       5.705   5.974  15.743  0.00  0.00    +0.000 C 
ATOM      7  O   UNL     1       6.438   5.681  14.557  0.00  0.00    +0.000 OA
ATOM      8  C   UNL     1       6.315   4.363  14.266  0.00  0.00    +0.000 C 
ATOM      9  O   UNL     1       6.763   3.852  13.249  0.00  0.00    +0.000 OA
ATOM     10  C   UNL     1       5.558   3.629  15.327  0.00  0.00    +0.000 C 
ATOM     11  C   UNL     1       5.527   4.629  16.467  0.00  0.00    +0.000 C 
BRANCH   6  12
ATOM     12  O   UNL     1       6.415   6.905  16.570  0.00  0.00    +0.000 OA
BRANCH  12  13
ATOM     13  C   UNL     1       7.405   6.217  17.340  0.00  0.00    +0.000 C 
BRANCH  13  15
ATOM     14  C   UNL     1       8.002   8.587  17.863  0.00  0.00    +0.000 C 
ATOM     15  C   UNL     1       8.007   7.155  18.374  0.00  0.00    +0.000 C 
ENDBRANCH  13  15
ENDBRANCH  12  13
ENDBRANCH   6  12
ENDBRANCH   2  11
ENDBRANCH   1   3
BRANCH   1  16
ATOM     16  C   UNL     1       2.705   2.515  19.560  0.00  0.00    +0.000 C 
ATOM     17  C   UNL     1       1.193   2.271  19.642  0.00  0.00    +0.000 C 
ATOM     18  C   UNL     1       3.312   1.662  18.440  0.00  0.00    +0.000 C 
ENDBRANCH   1  16
BRANCH   1  19
ATOM     19  C   UNL     1       2.073   4.875  18.725  0.00  0.00    +0.000 C 
BRANCH  19  20
ATOM     20  C   UNL     1       2.294   6.351  18.984  0.00  0.00    +0.000 C 
ATOM     21  O   UNL     1       2.389   6.797  20.124  0.00  0.00    +0.000 OA
ATOM     22  N   UNL     1       2.398   7.141  17.856  0.00  0.00    +0.000 N 
ATOM     23  H   UNL     1       2.166   6.748  16.954  0.00  0.00    +0.000 HD
BRANCH  22  24
ATOM     24  C   UNL     1       2.567   8.586  17.980  0.00  0.00    +0.000 C 
BRANCH  24  25
ATOM     25  C   UNL     1       1.257   9.362  17.840  0.00  0.00    +0.000 C 
BRANCH  25  26
ATOM     26  C   UNL     1       0.966  10.272  19.024  0.00  0.00    +0.000 A 
ATOM     27  C   UNL     1       0.157   9.769  20.056  0.00  0.00    +0.000 A 
ATOM     28  C   UNL     1      -0.188  10.569  21.135  0.00  0.00    +0.000 A 
ATOM     29  C   UNL     1       0.248  11.892  21.188  0.00  0.00    +0.000 A 
ATOM     30  C   UNL     1       1.054  12.431  20.198  0.00  0.00    +0.000 A 
ATOM     31  N   UNL     1       1.412  13.720  20.321  0.00  0.00    +0.000 NA
ATOM     32  C   UNL     1       2.208  14.256  19.375  0.00  0.00    +0.000 A 
ATOM     33  C   UNL     1       2.697  13.542  18.302  0.00  0.00    +0.000 A 
ATOM     34  C   UNL     1       2.323  12.208  18.177  0.00  0.00    +0.000 A 
ATOM     35  C   UNL     1       1.454  11.611  19.111  0.00  0.00    +0.000 A 
ENDBRANCH  25  26
ENDBRANCH  24  25
ENDBRANCH  22  24
ENDBRANCH  19  20
ENDBRANCH   1  19
TORSDOF 11
ENDMDL
MODEL 5
REMARK VINA RESULT:      -8.1      1.886      2.316
REMARK  Name = 
REMARK  14 active torsions:
REMARK  status: ('A' for Active; 'I' for Inactive)
REMARK    1  A    between atoms: C_1  and  C_2
REMARK    2  A    between atoms: C_2  and  C_3
REMARK    3  A    between atoms: C_3  and  O_4
REMARK    4  A    between atoms: O_4  and  C_5
REMARK    5  A    between atoms: C_10  and  N_11
REMARK    6  A    between atoms: C_12  and  C_14
REMARK    7  A    between atoms: C_14  and  C_15
REMARK    8  A    between atoms: C_14  and  C_31
REMARK    9  A    between atoms: C_15  and  C_16
REMARK   10  A    between atoms: N_18  and  C_19
REMARK   11  A    between atoms: C_19  and  C_20
REMARK   12  A    between atoms: C_20  and  C_21
REMARK   13  A    between atoms: C_31  and  C_32
REMARK   14  A    between atoms: C_31  and  C_33
REMARK                            x       y       z     vdW  Elec       q    Type
REMARK                         _______ _______ _______ _____ _____    ______ ____
ROOT
ATOM      1  C   UNL     1       3.239   4.289  19.790  0.00  0.00    +0.000 C 
ENDROOT
BRANCH   1   3
ATOM      2  N   UNL     1       4.273   4.755  17.586  0.00  0.00    +0.000 N 
ATOM      3  C   UNL     1       4.481   4.387  18.898  0.00  0.00    +0.000 C 
ATOM      4  O   UNL     1       5.602   4.085  19.296  0.00  0.00    +0.000 OA
ATOM      5  H   UNL     1       3.371   5.124  17.308  0.00  0.00    +0.000 HD
BRANCH   2  11
ATOM      6  C   UNL     1       5.357   5.995  15.637  0.00  0.00    +0.000 C 
ATOM      7  O   UNL     1       6.048   5.543  14.476  0.00  0.00    +0.000 OA
ATOM      8  C   UNL     1       6.070   4.187  14.464  0.00  0.00    +0.000 C 
ATOM      9  O   UNL     1       6.516   3.529  13.534  0.00  0.00    +0.000 OA
ATOM     10  C   UNL     1       5.474   3.612  15.709  0.00  0.00    +0.000 C 
ATOM     11  C   UNL     1       5.388   4.817  16.626  0.00  0.00    +0.000 C 
BRANCH   6  12
ATOM     12  O   UNL     1       5.996   7.147  16.200  0.00  0.00    +0.000 OA
BRANCH  12  13
ATOM     13  C   UNL     1       7.051   6.741  17.076  0.00  0.00    +0.000 C 
BRANCH  13  15
ATOM     14  C   UNL     1       8.496   7.658  18.898  0.00  0.00    +0.000 C 
ATOM     15  C   UNL     1       7.815   7.958  17.572  0.00  0.00    +0.000 C 
ENDBRANCH  13  15
ENDBRANCH  12  13
ENDBRANCH   6  12
ENDBRANCH   2  11
ENDBRANCH   1   3
BRANCH   1  16
ATOM     16  C   UNL     1       2.867   2.812  20.113  0.00  0.00    +0.000 C 
ATOM     17  C   UNL     1       1.797   2.626  21.196  0.00  0.00    +0.000 C 
ATOM     18  C   UNL     1       2.466   2.048  18.846  0.00  0.00    +0.000 C 
ENDBRANCH   1  16
BRANCH   1  19
ATOM     19  C   UNL     1       2.103   5.051  19.078  0.00  0.00    +0.000 C 
BRANCH  19  20
ATOM     20  C   UNL     1       2.225   6.548  19.270  0.00  0.00    +0.000 C 
ATOM     21  O   UNL     1       2.366   7.045  20.384  0.00  0.00    +0.000 OA
ATOM     22  N   UNL     1       2.187   7.298  18.111  0.00  0.00    +0.000 N 
ATOM     23  H   UNL     1       1.923   6.854  17.242  0.00  0.00    +0.000 HD
BRANCH  22  24
ATOM     24  C   UNL     1       2.251   8.756  18.173  0.00  0.00    +0.000 C 
BRANCH  24  25
ATOM     25  C   UNL     1       0.876   9.424  18.116  0.00  0.00    +0.000 C 
BRANCH  25  26
ATOM     26  C   UNL     1       0.698  10.526  19.149  0.00  0.00    +0.000 A 
ATOM     27  C   UNL     1       1.019  11.840  18.770  0.00  0.00    +0.000 A 
ATOM     28  C   UNL     1       0.929  12.880  19.683  0.00  0.00    +0.000 A 
ATOM     29  C   UNL     1       0.544  12.619  20.997  0.00  0.00    +0.000 A 
ATOM     30  C   UNL     1       0.211  11.342  21.418  0.00  0.00    +0.000 A 
ATOM     31  N   UNL     1      -0.131  11.180  22.707  0.00  0.00    +0.000 NA
ATOM     32  C   UNL     1      -0.472   9.947  23.128  0.00  0.00    +0.000 A 
ATOM     33  C   UNL     1      -0.516   8.847  22.298  0.00  0.00    +0.000 A 
ATOM     34  C   UNL     1      -0.159   9.018  20.965  0.00  0.00    +0.000 A 
ATOM     35  C   UNL     1       0.253  10.276  20.482  0.00  0.00    +0.000 A 
ENDBRANCH  25  26
ENDBRANCH  24  25
ENDBRANCH  22  24
ENDBRANCH  19  20
ENDBRANCH   1  19
TORSDOF 11
ENDMDL
MODEL 6
REMARK VINA RESULT:      -8.0      1.075      1.542
REMARK  Name = 
REMARK  14 active torsions:
REMARK  status: ('A' for Active; 'I' for Inactive)
REMARK    1  A    between atoms: C_1  and  C_2
REMARK    2  A    between atoms: C_2  and  C_3
REMARK    3  A    between atoms: C_3  and  O_4
REMARK    4  A    between atoms: O_4  and  C_5
REMARK    5  A    between atoms: C_10  and  N_11
REMARK    6  A    between atoms: C_12  and  C_14
REMARK    7  A    between atoms: C_14  and  C_15
REMARK    8  A    between atoms: C_14  and  C_31
REMARK    9  A    between atoms: C_15  and  C_16
REMARK   10  A    between atoms: N_18  and  C_19
REMARK   11  A    between atoms: C_19  and  C_20
REMARK   12  A    between atoms: C_20  and  C_21
REMARK   13  A    between atoms: C_31  and  C_32
REMARK   14  A    between atoms: C_31  and  C_33
REMARK                            x       y       z     vdW  Elec       q    Type
REMARK                         _______ _______ _______ _____ _____    ______ ____
ROOT
ATOM      1  C   UNL     1       3.106   5.262  19.219  0.00  0.00    +0.000 C 
ENDROOT
BRANCH   1   3
ATOM      2  N   UNL     1       4.594   5.314  17.238  0.00  0.00    +0.000 N 
ATOM      3  C   UNL     1       4.252   4.657  18.401  0.00  0.00    +0.000 C 
ATOM      4  O   UNL     1       4.797   3.603  18.712  0.00  0.00    +0.000 OA
ATOM      5  H   UNL     1       4.230   6.242  17.062  0.00  0.00    +0.000 HD
BRANCH   2  11
ATOM      6  C   UNL     1       6.488   5.833  15.608  0.00  0.00    +0.000 C 
ATOM      7  O   UNL     1       6.915   5.208  14.401  0.00  0.00    +0.000 OA
ATOM      8  C   UNL     1       6.097   4.165  14.120  0.00  0.00    +0.000 C 
ATOM      9  O   UNL     1       6.173   3.507  13.091  0.00  0.00    +0.000 OA
ATOM     10  C   UNL     1       5.096   3.937  15.207  0.00  0.00    +0.000 C 
ATOM     11  C   UNL     1       5.637   4.783  16.343  0.00  0.00    +0.000 C 
BRANCH   6  12
ATOM     12  O   UNL     1       7.609   6.228  16.409  0.00  0.00    +0.000 OA
BRANCH  12  13
ATOM     13  C   UNL     1       7.206   7.222  17.355  0.00  0.00    +0.000 C 
BRANCH  13  15
ATOM     14  C   UNL     1       7.805   5.772  19.302  0.00  0.00    +0.000 C 
ATOM     15  C   UNL     1       8.045   7.109  18.619  0.00  0.00    +0.000 C 
ENDBRANCH  13  15
ENDBRANCH  12  13
ENDBRANCH   6  12
ENDBRANCH   2  11
ENDBRANCH   1   3
BRANCH   1  16
ATOM     16  C   UNL     1       1.765   4.504  18.994  0.00  0.00    +0.000 C 
ATOM     17  C   UNL     1       1.626   3.805  17.635  0.00  0.00    +0.000 C 
ATOM     18  C   UNL     1       1.492   3.505  20.124  0.00  0.00    +0.000 C 
ENDBRANCH   1  16
BRANCH   1  19
ATOM     19  C   UNL     1       3.019   6.756  18.850  0.00  0.00    +0.000 C 
BRANCH  19  20
ATOM     20  C   UNL     1       2.071   7.506  19.763  0.00  0.00    +0.000 C 
ATOM     21  O   UNL     1       1.770   7.074  20.873  0.00  0.00    +0.000 OA
ATOM     22  N   UNL     1       1.595   8.703  19.268  0.00  0.00    +0.000 N 
ATOM     23  H   UNL     1       1.755   8.937  18.297  0.00  0.00    +0.000 HD
BRANCH  22  24
ATOM     24  C   UNL     1       0.639   9.493  20.039  0.00  0.00    +0.000 C 
BRANCH  24  25
ATOM     25  C   UNL     1       0.557  10.953  19.588  0.00  0.00    +0.000 C 
BRANCH  25  26
ATOM     26  C   UNL     1      -0.859  11.507  19.595  0.00  0.00    +0.000 A 
ATOM     27  C   UNL     1      -1.233  12.342  20.662  0.00  0.00    +0.000 A 
ATOM     28  C   UNL     1      -2.526  12.834  20.752  0.00  0.00    +0.000 A 
ATOM     29  C   UNL     1      -3.473  12.480  19.793  0.00  0.00    +0.000 A 
ATOM     30  C   UNL     1      -3.151  11.666  18.719  0.00  0.00    +0.000 A 
ATOM     31  N   UNL     1      -4.132  11.361  17.853  0.00  0.00    +0.000 NA
ATOM     32  C   UNL     1      -3.832  10.584  16.795  0.00  0.00    +0.000 A 
ATOM     33  C   UNL     1      -2.564  10.107  16.538  0.00  0.00    +0.000 A 
ATOM     34  C   UNL     1      -1.552  10.424  17.438  0.00  0.00    +0.000 A 
ATOM     35  C   UNL     1      -1.820  11.193  18.587  0.00  0.00    +0.000 A 
ENDBRANCH  25  26
ENDBRANCH  24  25
ENDBRANCH  22  24
ENDBRANCH  19  20
ENDBRANCH   1  19
TORSDOF 11
ENDMDL
MODEL 7
REMARK VINA RESULT:      -7.9      1.866      2.512
REMARK  Name = 
REMARK  14 active torsions:
REMARK  status: ('A' for Active; 'I' for Inactive)
REMARK    1  A    between atoms: C_1  and  C_2
REMARK    2  A    between atoms: C_2  and  C_3
REMARK    3  A    between atoms: C_3  and  O_4
REMARK    4  A    between atoms: O_4  and  C_5
REMARK    5  A    between atoms: C_10  and  N_11
REMARK    6  A    between atoms: C_12  and  C_14
REMARK    7  A    between atoms: C_14  and  C_15
REMARK    8  A    between atoms: C_14  and  C_31
REMARK    9  A    between atoms: C_15  and  C_16
REMARK   10  A    between atoms: N_18  and  C_19
REMARK   11  A    between atoms: C_19  and  C_20
REMARK   12  A    between atoms: C_20  and  C_21
REMARK   13  A    between atoms: C_31  and  C_32
REMARK   14  A    between atoms: C_31  and  C_33
REMARK                            x       y       z     vdW  Elec       q    Type
REMARK                         _______ _______ _______ _____ _____    ______ ____
ROOT
ATOM      1  C   UNL     1       3.017   4.307  18.895  0.00  0.00    +0.000 C 
ENDROOT
BRANCH   1   3
ATOM      2  N   UNL     1       4.881   4.843  17.352  0.00  0.00    +0.000 N 
ATOM      3  C   UNL     1       4.094   3.854  17.903  0.00  0.00    +0.000 C 
ATOM      4  O   UNL     1       4.215   2.685  17.551  0.00  0.00    +0.000 OA
ATOM      5  H   UNL     1       4.859   5.776  17.744  0.00  0.00    +0.000 HD
BRANCH   2  11
ATOM      6  C   UNL     1       6.509   5.730  15.599  0.00  0.00    +0.000 C 
ATOM      7  O   UNL     1       6.910   5.239  14.323  0.00  0.00    +0.000 OA
ATOM      8  C   UNL     1       6.238   4.093  14.050  0.00  0.00    +0.000 C 
ATOM      9  O   UNL     1       6.315   3.505  12.981  0.00  0.00    +0.000 OA
ATOM     10  C   UNL     1       5.392   3.659  15.204  0.00  0.00    +0.000 C 
ATOM     11  C   UNL     1       5.903   4.526  16.339  0.00  0.00    +0.000 C 
BRANCH   6  12
ATOM     12  O   UNL     1       7.628   6.259  16.322  0.00  0.00    +0.000 OA
BRANCH  12  13
ATOM     13  C   UNL     1       7.168   7.033  17.433  0.00  0.00    +0.000 C 
BRANCH  13  15
ATOM     14  C   UNL     1       7.543   5.698  19.514  0.00  0.00    +0.000 C 
ATOM     15  C   UNL     1       8.078   6.815  18.632  0.00  0.00    +0.000 C 
ENDBRANCH  13  15
ENDBRANCH  12  13
ENDBRANCH   6  12
ENDBRANCH   2  11
ENDBRANCH   1   3
BRANCH   1  16
ATOM     16  C   UNL     1       2.182   3.109  19.435  0.00  0.00    +0.000 C 
ATOM     17  C   UNL     1       1.847   3.165  20.931  0.00  0.00    +0.000 C 
ATOM     18  C   UNL     1       0.898   2.911  18.620  0.00  0.00    +0.000 C 
ENDBRANCH   1  16
BRANCH   1  19
ATOM     19  C   UNL     1       2.154   5.366  18.182  0.00  0.00    +0.000 C 
BRANCH  19  20
ATOM     20  C   UNL     1       2.236   6.713  18.869  0.00  0.00    +0.000 C 
ATOM     21  O   UNL     1       2.533   6.812  20.057  0.00  0.00    +0.000 OA
ATOM     22  N   UNL     1       1.977   7.805  18.065  0.00  0.00    +0.000 N 
ATOM     23  H   UNL     1       1.595   7.659  17.140  0.00  0.00    +0.000 HD
BRANCH  22  24
ATOM     24  C   UNL     1       1.982   9.153  18.626  0.00  0.00    +0.000 C 
BRANCH  24  25
ATOM     25  C   UNL     1       0.580   9.720  18.853  0.00  0.00    +0.000 C 
BRANCH  25  26
ATOM     26  C   UNL     1       0.224   9.878  20.323  0.00  0.00    +0.000 A 
ATOM     27  C   UNL     1       0.024   8.711  21.080  0.00  0.00    +0.000 A 
ATOM     28  C   UNL     1      -0.355   8.791  22.412  0.00  0.00    +0.000 A 
ATOM     29  C   UNL     1      -0.567  10.036  23.001  0.00  0.00    +0.000 A 
ATOM     30  C   UNL     1      -0.376  11.215  22.298  0.00  0.00    +0.000 A 
ATOM     31  N   UNL     1      -0.622  12.369  22.940  0.00  0.00    +0.000 NA
ATOM     32  C   UNL     1      -0.427  13.525  22.276  0.00  0.00    +0.000 A 
ATOM     33  C   UNL     1       0.039  13.586  20.980  0.00  0.00    +0.000 A 
ATOM     34  C   UNL     1       0.291  12.389  20.318  0.00  0.00    +0.000 A 
ATOM     35  C   UNL     1       0.057  11.151  20.949  0.00  0.00    +0.000 A 
ENDBRANCH  25  26
ENDBRANCH  24  25
ENDBRANCH  22  24
ENDBRANCH  19  20
ENDBRANCH   1  19
TORSDOF 11
ENDMDL
MODEL 8
REMARK VINA RESULT:      -7.8      2.365      2.985
REMARK  Name = 
REMARK  14 active torsions:
REMARK  status: ('A' for Active; 'I' for Inactive)
REMARK    1  A    between atoms: C_1  and  C_2
REMARK    2  A    between atoms: C_2  and  C_3
REMARK    3  A    between atoms: C_3  and  O_4
REMARK    4  A    between atoms: O_4  and  C_5
REMARK    5  A    between atoms: C_10  and  N_11
REMARK    6  A    between atoms: C_12  and  C_14
REMARK    7  A    between atoms: C_14  and  C_15
REMARK    8  A    between atoms: C_14  and  C_31
REMARK    9  A    between atoms: C_15  and  C_16
REMARK   10  A    between atoms: N_18  and  C_19
REMARK   11  A    between atoms: C_19  and  C_20
REMARK   12  A    between atoms: C_20  and  C_21
REMARK   13  A    between atoms: C_31  and  C_32
REMARK   14  A    between atoms: C_31  and  C_33
REMARK                            x       y       z     vdW  Elec       q    Type
REMARK                         _______ _______ _______ _____ _____    ______ ____
ROOT
ATOM      1  C   UNL     1       3.034   5.720  19.124  0.00  0.00    +0.000 C 
ENDROOT
BRANCH   1   3
ATOM      2  N   UNL     1       4.580   5.417  17.210  0.00  0.00    +0.000 N 
ATOM      3  C   UNL     1       4.256   5.040  18.497  0.00  0.00    +0.000 C 
ATOM      4  O   UNL     1       4.880   4.152  19.068  0.00  0.00    +0.000 OA
ATOM      5  H   UNL     1       4.142   6.235  16.804  0.00  0.00    +0.000 HD
BRANCH   2  11
ATOM      6  C   UNL     1       6.970   5.630  16.344  0.00  0.00    +0.000 C 
ATOM      7  O   UNL     1       7.604   5.174  15.152  0.00  0.00    +0.000 OA
ATOM      8  C   UNL     1       6.696   4.537  14.374  0.00  0.00    +0.000 C 
ATOM      9  O   UNL     1       6.943   4.126  13.248  0.00  0.00    +0.000 OA
ATOM     10  C   UNL     1       5.369   4.419  15.053  0.00  0.00    +0.000 C 
ATOM     11  C   UNL     1       5.695   4.781  16.490  0.00  0.00    +0.000 C 
BRANCH   6  12
ATOM     12  O   UNL     1       7.825   5.460  17.481  0.00  0.00    +0.000 OA
BRANCH  12  13
ATOM     13  C   UNL     1       7.732   6.603  18.336  0.00  0.00    +0.000 C 
BRANCH  13  15
ATOM     14  C   UNL     1       8.298   9.028  18.119  0.00  0.00    +0.000 C 
ATOM     15  C   UNL     1       7.539   7.862  17.506  0.00  0.00    +0.000 C 
ENDBRANCH  13  15
ENDBRANCH  12  13
ENDBRANCH   6  12
ENDBRANCH   2  11
ENDBRANCH   1   3
BRANCH   1  16
ATOM     16  C   UNL     1       1.756   4.835  19.018  0.00  0.00    +0.000 C 
ATOM     17  C   UNL     1       1.720   3.876  17.821  0.00  0.00    +0.000 C 
ATOM     18  C   UNL     1       1.505   4.060  20.317  0.00  0.00    +0.000 C 
ENDBRANCH   1  16
BRANCH   1  19
ATOM     19  C   UNL     1       2.871   7.092  18.441  0.00  0.00    +0.000 C 
BRANCH  19  20
ATOM     20  C   UNL     1       2.019   8.033  19.268  0.00  0.00    +0.000 C 
ATOM     21  O   UNL     1       1.391   8.953  18.751  0.00  0.00    +0.000 OA
ATOM     22  N   UNL     1       1.987   7.766  20.622  0.00  0.00    +0.000 N 
ATOM     23  H   UNL     1       2.634   7.093  21.010  0.00  0.00    +0.000 HD
BRANCH  22  24
ATOM     24  C   UNL     1       1.235   8.632  21.527  0.00  0.00    +0.000 C 
BRANCH  24  25
ATOM     25  C   UNL     1       0.122   9.415  20.829  0.00  0.00    +0.000 C 
BRANCH  25  26
ATOM     26  C   UNL     1      -0.201  10.737  21.508  0.00  0.00    +0.000 A 
ATOM     27  C   UNL     1      -1.039  10.710  22.635  0.00  0.00    +0.000 A 
ATOM     28  C   UNL     1      -1.413  11.887  23.265  0.00  0.00    +0.000 A 
ATOM     29  C   UNL     1      -0.978  13.113  22.763  0.00  0.00    +0.000 A 
ATOM     30  C   UNL     1      -0.145  13.192  21.659  0.00  0.00    +0.000 A 
ATOM     31  N   UNL     1       0.210  14.415  21.233  0.00  0.00    +0.000 NA
ATOM     32  C   UNL     1       1.032  14.510  20.171  0.00  0.00    +0.000 A 
ATOM     33  C   UNL     1       1.551  13.414  19.514  0.00  0.00    +0.000 A 
ATOM     34  C   UNL     1       1.180  12.149  19.956  0.00  0.00    +0.000 A 
ATOM     35  C   UNL     1       0.285  11.993  21.033  0.00  0.00    +0.000 A 
ENDBRANCH  25  26
ENDBRANCH  24  25
ENDBRANCH  22  24
ENDBRANCH  19  20
ENDBRANCH   1  19
TORSDOF 11
ENDMDL
MODEL 9
REMARK VINA RESULT:      -7.8      1.705      2.324
REMARK  Name = 
REMARK  14 active torsions:
REMARK  status: ('A' for Active; 'I' for Inactive)
REMARK    1  A    between atoms: C_1  and  C_2
REMARK    2  A    between atoms: C_2  and  C_3
REMARK    3  A    between atoms: C_3  and  O_4
REMARK    4  A    between atoms: O_4  and  C_5
REMARK    5  A    between atoms: C_10  and  N_11
REMARK    6  A    between atoms: C_12  and  C_14
REMARK    7  A    between atoms: C_14  and  C_15
REMARK    8  A    between atoms: C_14  and  C_31
REMARK    9  A    between atoms: C_15  and  C_16
REMARK   10  A    between atoms: N_18  and  C_19
REMARK   11  A    between atoms: C_19  and  C_20
REMARK   12  A    between atoms: C_20  and  C_21
REMARK   13  A    between atoms: C_31  and  C_32
REMARK   14  A    between atoms: C_31  and  C_33
REMARK                            x       y       z     vdW  Elec       q    Type
REMARK                         _______ _______ _______ _____ _____    ______ ____
ROOT
ATOM      1  C   UNL     1       3.087   5.654  19.000  0.00  0.00    +0.000 C 
ENDROOT
BRANCH   1   3
ATOM      2  N   UNL     1       4.604   5.484  17.047  0.00  0.00    +0.000 N 
ATOM      3  C   UNL     1       4.248   4.965  18.274  0.00  0.00    +0.000 C 
ATOM      4  O   UNL     1       4.794   3.959  18.714  0.00  0.00    +0.000 OA
ATOM      5  H   UNL     1       4.237   6.383  16.760  0.00  0.00    +0.000 HD
BRANCH   2  11
ATOM      6  C   UNL     1       6.627   5.830  15.532  0.00  0.00    +0.000 C 
ATOM      7  O   UNL     1       7.086   5.144  14.370  0.00  0.00    +0.000 OA
ATOM      8  C   UNL     1       6.218   4.150  14.062  0.00  0.00    +0.000 C 
ATOM      9  O   UNL     1       6.314   3.460  13.056  0.00  0.00    +0.000 OA
ATOM     10  C   UNL     1       5.137   4.020  15.087  0.00  0.00    +0.000 C 
ATOM     11  C   UNL     1       5.662   4.860  16.235  0.00  0.00    +0.000 C 
BRANCH   6  12
ATOM     12  O   UNL     1       7.720   6.172  16.394  0.00  0.00    +0.000 OA
BRANCH  12  13
ATOM     13  C   UNL     1       7.347   7.259  17.246  0.00  0.00    +0.000 C 
BRANCH  13  15
ATOM     14  C   UNL     1       7.746   5.790  19.230  0.00  0.00    +0.000 C 
ATOM     15  C   UNL     1       8.052   7.134  18.588  0.00  0.00    +0.000 C 
ENDBRANCH  13  15
ENDBRANCH  12  13
ENDBRANCH   6  12
ENDBRANCH   2  11
ENDBRANCH   1   3
BRANCH   1  16
ATOM     16  C   UNL     1       1.855   4.714  19.153  0.00  0.00    +0.000 C 
ATOM     17  C   UNL     1       1.611   3.756  17.980  0.00  0.00    +0.000 C 
ATOM     18  C   UNL     1       1.914   3.926  20.467  0.00  0.00    +0.000 C 
ENDBRANCH   1  16
BRANCH   1  19
ATOM     19  C   UNL     1       2.762   6.945  18.224  0.00  0.00    +0.000 C 
BRANCH  19  20
ATOM     20  C   UNL     1       2.151   8.001  19.122  0.00  0.00    +0.000 C 
ATOM     21  O   UNL     1       1.848   9.112  18.695  0.00  0.00    +0.000 OA
ATOM     22  N   UNL     1       1.946   7.617  20.432  0.00  0.00    +0.000 N 
ATOM     23  H   UNL     1       2.347   6.750  20.763  0.00  0.00    +0.000 HD
BRANCH  22  24
ATOM     24  C   UNL     1       1.404   8.564  21.402  0.00  0.00    +0.000 C 
BRANCH  24  25
ATOM     25  C   UNL     1      -0.116   8.717  21.314  0.00  0.00    +0.000 C 
BRANCH  25  26
ATOM     26  C   UNL     1      -0.602  10.112  21.676  0.00  0.00    +0.000 A 
ATOM     27  C   UNL     1      -0.941  10.363  23.016  0.00  0.00    +0.000 A 
ATOM     28  C   UNL     1      -1.442  11.598  23.398  0.00  0.00    +0.000 A 
ATOM     29  C   UNL     1      -1.638  12.594  22.442  0.00  0.00    +0.000 A 
ATOM     30  C   UNL     1      -1.313  12.397  21.110  0.00  0.00    +0.000 A 
ATOM     31  N   UNL     1      -1.553  13.406  20.255  0.00  0.00    +0.000 NA
ATOM     32  C   UNL     1      -1.228  13.237  18.959  0.00  0.00    +0.000 A 
ATOM     33  C   UNL     1      -0.637  12.092  18.468  0.00  0.00    +0.000 A 
ATOM     34  C   UNL     1      -0.391  11.050  19.356  0.00  0.00    +0.000 A 
ATOM     35  C   UNL     1      -0.755  11.155  20.713  0.00  0.00    +0.000 A 
ENDBRANCH  25  26
ENDBRANCH  24  25
ENDBRANCH  22  24
ENDBRANCH  19  20
ENDBRANCH   1  19
TORSDOF 11
ENDMDL
