MODEL 1
REMARK VINA RESULT:      -7.7      0.000      0.000
REMARK  Name = 
REMARK  6 active torsions:
REMARK  status: ('A' for Active; 'I' for Inactive)
REMARK    1  A    between atoms: C_1  and  S_2
REMARK    2  A    between atoms: S_2  and  N_5
REMARK    3  A    between atoms: C_8  and  C_9
REMARK    4  A    between atoms: N_11  and  C_12
REMARK    5  A    between atoms: C_12  and  C_13
REMARK    6  A    between atoms: C_12  and  C_19
REMARK                            x       y       z     vdW  Elec       q    Type
REMARK                         _______ _______ _______ _____ _____    ______ ____
ROOT
ATOM      1  C   UNL     1       1.625   8.311  20.308  0.00  0.00    +0.000 C 
ATOM      2  O   UNL     1       1.683   8.913  21.377  0.00  0.00    +0.000 OA
ATOM      3  N   UNL     1       2.413   7.215  20.154  0.00  0.00    +0.000 N 
ATOM      4  H   UNL     1       2.982   7.016  20.966  0.00  0.00    +0.000 HD
ENDROOT
BRANCH   1   8
ATOM      5  N   UNL     1       1.276  11.593  18.778  0.00  0.00    +0.000 NA
ATOM      6  C   UNL     1       2.232  10.557  18.347  0.00  0.00    +0.000 C 
ATOM      7  C   UNL     1       1.450   9.325  17.949  0.00  0.00    +0.000 C 
ATOM      8  C   UNL     1       0.702   8.754  19.159  0.00  0.00    +0.000 C 
ATOM      9  C   UNL     1      -0.289   9.832  19.622  0.00  0.00    +0.000 C 
ATOM     10  C   UNL     1       0.383  11.184  19.898  0.00  0.00    +0.000 C 
BRANCH   5  12
ATOM     11  C   UNL     1       2.285  13.356  20.583  0.00  0.00    +0.000 C 
ATOM     12  S   UNL     1       1.917  13.167  18.849  0.00  0.00    +0.000 S 
ATOM     13  O   UNL     1       0.863  14.097  18.512  0.00  0.00    +0.000 OA
ATOM     14  O   UNL     1       3.174  13.167  18.128  0.00  0.00    +0.000 OA
ENDBRANCH   5  12
ENDBRANCH   1   8
BRANCH   3  15
ATOM     15  C   UNL     1       2.541   6.325  19.009  0.00  0.00    +0.000 C 
BRANCH  15  16
ATOM     16  C   UNL     1       3.966   6.294  18.477  0.00  0.00    +0.000 A 
ATOM     17  C   UNL     1       4.345   6.953  17.298  0.00  0.00    +0.000 A 
ATOM     18  C   UNL     1       5.647   6.832  16.800  0.00  0.00    +0.000 A 
ATOM     19  C   UNL     1       6.589   6.055  17.472  0.00  0.00    +0.000 A 
ATOM     20  C   UNL     1       6.233   5.401  18.646  0.00  0.00    +0.000 A 
ATOM     21  C   UNL     1       4.938   5.526  19.148  0.00  0.00    +0.000 A 
ENDBRANCH  15  16
BRANCH  15  22
ATOM     22  C   UNL     1       1.866   4.984  19.207  0.00  0.00    +0.000 A 
ATOM     23  C   UNL     1       1.578   4.577  20.527  0.00  0.00    +0.000 A 
ATOM     24  C   UNL     1       1.082   3.307  20.796  0.00  0.00    +0.000 A 
ATOM     25  C   UNL     1       0.851   2.424  19.747  0.00  0.00    +0.000 A 
ATOM     26  C   UNL     1       1.098   2.821  18.432  0.00  0.00    +0.000 A 
ATOM     27  C   UNL     1       1.595   4.098  18.159  0.00  0.00    +0.000 A 
ENDBRANCH  15  22
ENDBRANCH   3  15
TORSDOF 5
ENDMDL
MODEL 2
REMARK VINA RESULT:      -7.4      1.188      1.504
REMARK  Name = 
REMARK  6 active torsions:
REMARK  status: ('A' for Active; 'I' for Inactive)
REMARK    1  A    between atoms: C_1  and  S_2
REMARK    2  A    between atoms: S_2  and  N_5
REMARK    3  A    between atoms: C_8  and  C_9
REMARK    4  A    between atoms: N_11  and  C_12
REMARK    5  A    between atoms: C_12  and  C_13
REMARK    6  A    between atoms: C_12  and  C_19
REMARK                            x       y       z     vdW  Elec       q    Type
REMARK                         _______ _______ _______ _____ _____    ______ ____
ROOT
ATOM      1  C   UNL     1       1.751   8.459  19.660  0.00  0.00    +0.000 C 
ATOM      2  O   UNL     1       1.543   9.106  20.684  0.00  0.00    +0.000 OA
ATOM      3  N   UNL     1       2.218   7.191  19.795  0.00  0.00    +0.000 N 
ATOM      4  H   UNL     1       2.350   6.915  20.758  0.00  0.00    +0.000 HD
ENDROOT
BRANCH   1   8
ATOM      5  N   UNL     1       0.205  11.613  18.711  0.00  0.00    +0.000 NA
ATOM      6  C   UNL     1       1.642  11.424  18.982  0.00  0.00    +0.000 C 
ATOM      7  C   UNL     1       2.175  10.391  18.013  0.00  0.00    +0.000 C 
ATOM      8  C   UNL     1       1.502   9.035  18.255  0.00  0.00    +0.000 C 
ATOM      9  C   UNL     1       0.002   9.226  17.987  0.00  0.00    +0.000 C 
ATOM     10  C   UNL     1      -0.612  10.371  18.804  0.00  0.00    +0.000 C 
BRANCH   5  12
ATOM     11  C   UNL     1      -2.172  12.558  19.631  0.00  0.00    +0.000 C 
ATOM     12  S   UNL     1      -0.467  13.021  19.390  0.00  0.00    +0.000 S 
ATOM     13  O   UNL     1      -0.425  14.066  18.391  0.00  0.00    +0.000 OA
ATOM     14  O   UNL     1       0.129  13.211  20.697  0.00  0.00    +0.000 OA
ENDBRANCH   5  12
ENDBRANCH   1   8
BRANCH   3  15
ATOM     15  C   UNL     1       2.543   6.214  18.764  0.00  0.00    +0.000 C 
BRANCH  15  16
ATOM     16  C   UNL     1       4.025   6.233  18.419  0.00  0.00    +0.000 A 
ATOM     17  C   UNL     1       4.530   6.912  17.299  0.00  0.00    +0.000 A 
ATOM     18  C   UNL     1       5.888   6.836  16.972  0.00  0.00    +0.000 A 
ATOM     19  C   UNL     1       6.761   6.087  17.759  0.00  0.00    +0.000 A 
ATOM     20  C   UNL     1       6.281   5.415  18.877  0.00  0.00    +0.000 A 
ATOM     21  C   UNL     1       4.928   5.495  19.208  0.00  0.00    +0.000 A 
ENDBRANCH  15  16
BRANCH  15  22
ATOM     22  C   UNL     1       1.925   4.854  19.004  0.00  0.00    +0.000 A 
ATOM     23  C   UNL     1       1.500   4.541  20.313  0.00  0.00    +0.000 A 
ATOM     24  C   UNL     1       1.046   3.268  20.637  0.00  0.00    +0.000 A 
ATOM     25  C   UNL     1       0.995   2.287  19.654  0.00  0.00    +0.000 A 
ATOM     26  C   UNL     1       1.378   2.587  18.346  0.00  0.00    +0.000 A 
ATOM     27  C   UNL     1       1.834   3.866  18.017  0.00  0.00    +0.000 A 
ENDBRANCH  15  22
ENDBRANCH   3  15
TORSDOF 5
ENDMDL
MODEL 3
REMARK VINA RESULT:      -7.4      0.760      1.261
REMARK  Name = 
REMARK  6 active torsions:
REMARK  status: ('A' for Active; 'I' for Inactive)
REMARK    1  A    between atoms: C_1  and  S_2
REMARK    2  A    between atoms: S_2  and  N_5
REMARK    3  A    between atoms: C_8  and  C_9
REMARK    4  A    between atoms: N_11  and  C_12
REMARK    5  A    between atoms: C_12  and  C_13
REMARK    6  A    between atoms: C_12  and  C_19
REMARK                            x       y       z     vdW  Elec       q    Type
REMARK                         _______ _______ _______ _____ _____    ______ ____
ROOT
ATOM      1  C   UNL     1       1.649   8.333  20.171  0.00  0.00    +0.000 C 
ATOM      2  O   UNL     1       1.644   8.970  21.222  0.00  0.00    +0.000 OA
ATOM      3  N   UNL     1       2.413   7.211  20.115  0.00  0.00    +0.000 N 
ATOM      4  H   UNL     1       2.911   7.024  20.974  0.00  0.00    +0.000 HD
ENDROOT
BRANCH   1   8
ATOM      5  N   UNL     1       1.224  11.651  18.740  0.00  0.00    +0.000 NA
ATOM      6  C   UNL     1       2.301  10.708  18.384  0.00  0.00    +0.000 C 
ATOM      7  C   UNL     1       1.666   9.442  17.850  0.00  0.00    +0.000 C 
ATOM      8  C   UNL     1       0.832   8.762  18.941  0.00  0.00    +0.000 C 
ATOM      9  C   UNL     1      -0.285   9.743  19.327  0.00  0.00    +0.000 C 
ATOM     10  C   UNL     1       0.244  11.126  19.731  0.00  0.00    +0.000 C 
BRANCH   5  12
ATOM     11  C   UNL     1       0.198  14.166  18.825  0.00  0.00    +0.000 C 
ATOM     12  S   UNL     1       1.730  13.261  18.947  0.00  0.00    +0.000 S 
ATOM     13  O   UNL     1       2.553  13.623  17.815  0.00  0.00    +0.000 OA
ATOM     14  O   UNL     1       2.221  13.402  20.303  0.00  0.00    +0.000 OA
ENDBRANCH   5  12
ENDBRANCH   1   8
BRANCH   3  15
ATOM     15  C   UNL     1       2.601   6.278  19.012  0.00  0.00    +0.000 C 
BRANCH  15  16
ATOM     16  C   UNL     1       4.027   6.310  18.485  0.00  0.00    +0.000 A 
ATOM     17  C   UNL     1       4.377   6.963  17.292  0.00  0.00    +0.000 A 
ATOM     18  C   UNL     1       5.685   6.898  16.801  0.00  0.00    +0.000 A 
ATOM     19  C   UNL     1       6.663   6.187  17.494  0.00  0.00    +0.000 A 
ATOM     20  C   UNL     1       6.338   5.542  18.681  0.00  0.00    +0.000 A 
ATOM     21  C   UNL     1       5.036   5.610  19.176  0.00  0.00    +0.000 A 
ENDBRANCH  15  16
BRANCH  15  22
ATOM     22  C   UNL     1       2.008   4.910  19.270  0.00  0.00    +0.000 A 
ATOM     23  C   UNL     1       1.766   4.074  18.159  0.00  0.00    +0.000 A 
ATOM     24  C   UNL     1       1.104   2.859  18.303  0.00  0.00    +0.000 A 
ATOM     25  C   UNL     1       0.683   2.453  19.564  0.00  0.00    +0.000 A 
ATOM     26  C   UNL     1       0.944   3.251  20.679  0.00  0.00    +0.000 A 
ATOM     27  C   UNL     1       1.610   4.471  20.537  0.00  0.00    +0.000 A 
ENDBRANCH  15  22
ENDBRANCH   3  15
TORSDOF 5
ENDMDL
MODEL 4
REMARK VINA RESULT:      -7.4      5.222      7.485
REMARK  Name = 
REMARK  6 active torsions:
REMARK  status: ('A' for Active; 'I' for Inactive)
REMARK    1  A    between atoms: C_1  and  S_2
REMARK    2  A    between atoms: S_2  and  N_5
REMARK    3  A    between atoms: C_8  and  C_9
REMARK    4  A    between atoms: N_11  and  C_12
REMARK    5  A    between atoms: C_12  and  C_13
REMARK    6  A    between atoms: C_12  and  C_19
REMARK                            x       y       z     vdW  Elec       q    Type
REMARK                         _______ _______ _______ _____ _____    ______ ____
ROOT
ATOM      1  C   UNL     1       4.179   3.164  16.970  0.00  0.00    +0.000 C 
ATOM      2  O   UNL     1       3.985   1.998  17.303  0.00  0.00    +0.000 OA
ATOM      3  N   UNL     1       5.319   3.447  16.287  0.00  0.00    +0.000 N 
ATOM      4  H   UNL     1       5.901   2.636  16.128  0.00  0.00    +0.000 HD
ENDROOT
BRANCH   1   8
ATOM      5  N   UNL     1       2.322   3.765  20.040  0.00  0.00    +0.000 NA
ATOM      6  C   UNL     1       3.672   4.285  19.754  0.00  0.00    +0.000 C 
ATOM      7  C   UNL     1       3.596   5.142  18.509  0.00  0.00    +0.000 C 
ATOM      8  C   UNL     1       3.188   4.293  17.301  0.00  0.00    +0.000 C 
ATOM      9  C   UNL     1       1.787   3.738  17.596  0.00  0.00    +0.000 C 
ATOM     10  C   UNL     1       1.711   2.983  18.930  0.00  0.00    +0.000 C 
BRANCH   5  12
ATOM     11  C   UNL     1       3.283   1.799  21.652  0.00  0.00    +0.000 C 
ATOM     12  S   UNL     1       2.118   3.147  21.612  0.00  0.00    +0.000 S 
ATOM     13  O   UNL     1       0.787   2.591  21.707  0.00  0.00    +0.000 OA
ATOM     14  O   UNL     1       2.575   4.155  22.548  0.00  0.00    +0.000 OA
ENDBRANCH   5  12
ENDBRANCH   1   8
BRANCH   3  15
ATOM     15  C   UNL     1       5.794   4.725  15.776  0.00  0.00    +0.000 C 
BRANCH  15  16
ATOM     16  C   UNL     1       6.671   5.446  16.789  0.00  0.00    +0.000 A 
ATOM     17  C   UNL     1       7.298   4.780  17.853  0.00  0.00    +0.000 A 
ATOM     18  C   UNL     1       8.029   5.493  18.809  0.00  0.00    +0.000 A 
ATOM     19  C   UNL     1       8.149   6.878  18.715  0.00  0.00    +0.000 A 
ATOM     20  C   UNL     1       7.542   7.554  17.663  0.00  0.00    +0.000 A 
ATOM     21  C   UNL     1       6.818   6.845  16.705  0.00  0.00    +0.000 A 
ENDBRANCH  15  16
BRANCH  15  22
ATOM     22  C   UNL     1       6.323   4.651  14.359  0.00  0.00    +0.000 A 
ATOM     23  C   UNL     1       5.719   3.732  13.475  0.00  0.00    +0.000 A 
ATOM     24  C   UNL     1       6.234   3.513  12.202  0.00  0.00    +0.000 A 
ATOM     25  C   UNL     1       7.355   4.220  11.785  0.00  0.00    +0.000 A 
ATOM     26  C   UNL     1       7.945   5.158  12.634  0.00  0.00    +0.000 A 
ATOM     27  C   UNL     1       7.429   5.381  13.912  0.00  0.00    +0.000 A 
ENDBRANCH  15  22
ENDBRANCH   3  15
TORSDOF 5
ENDMDL
MODEL 5
REMARK VINA RESULT:      -7.3      1.006      1.462
REMARK  Name = 
REMARK  6 active torsions:
REMARK  status: ('A' for Active; 'I' for Inactive)
REMARK    1  A    between atoms: C_1  and  S_2
REMARK    2  A    between atoms: S_2  and  N_5
REMARK    3  A    between atoms: C_8  and  C_9
REMARK    4  A    between atoms: N_11  and  C_12
REMARK    5  A    between atoms: C_12  and  C_13
REMARK    6  A    between atoms: C_12  and  C_19
REMARK                            x       y       z     vdW  Elec       q    Type
REMARK                         _______ _______ _______ _____ _____    ______ ____
ROOT
ATOM      1  C   UNL     1       1.696   8.459  19.680  0.00  0.00    +0.000 C 
ATOM      2  O   UNL     1       1.567   9.148  20.689  0.00  0.00    +0.000 OA
ATOM      3  N   UNL     1       2.267   7.234  19.818  0.00  0.00    +0.000 N 
ATOM      4  H   UNL     1       2.534   7.023  20.770  0.00  0.00    +0.000 HD
ENDROOT
BRANCH   1   8
ATOM      5  N   UNL     1       0.796  11.809  18.582  0.00  0.00    +0.000 NA
ATOM      6  C   UNL     1       2.159  11.247  18.550  0.00  0.00    +0.000 C 
ATOM      7  C   UNL     1       2.143  10.011  17.677  0.00  0.00    +0.000 C 
ATOM      8  C   UNL     1       1.240   8.936  18.290  0.00  0.00    +0.000 C 
ATOM      9  C   UNL     1      -0.181   9.517  18.338  0.00  0.00    +0.000 C 
ATOM     10  C   UNL     1      -0.251  10.867  19.066  0.00  0.00    +0.000 C 
BRANCH   5  12
ATOM     11  C   UNL     1       2.222  14.122  18.545  0.00  0.00    +0.000 C 
ATOM     12  S   UNL     1       0.701  13.411  19.145  0.00  0.00    +0.000 S 
ATOM     13  O   UNL     1       0.759  13.384  20.589  0.00  0.00    +0.000 OA
ATOM     14  O   UNL     1      -0.394  14.060  18.453  0.00  0.00    +0.000 OA
ENDBRANCH   5  12
ENDBRANCH   1   8
BRANCH   3  15
ATOM     15  C   UNL     1       2.537   6.223  18.805  0.00  0.00    +0.000 C 
BRANCH  15  16
ATOM     16  C   UNL     1       4.012   6.175  18.437  0.00  0.00    +0.000 A 
ATOM     17  C   UNL     1       4.953   5.450  19.184  0.00  0.00    +0.000 A 
ATOM     18  C   UNL     1       6.312   5.498  18.859  0.00  0.00    +0.000 A 
ATOM     19  C   UNL     1       6.752   6.266  17.782  0.00  0.00    +0.000 A 
ATOM     20  C   UNL     1       5.834   6.984  17.025  0.00  0.00    +0.000 A 
ATOM     21  C   UNL     1       4.477   6.932  17.344  0.00  0.00    +0.000 A 
ENDBRANCH  15  16
BRANCH  15  22
ATOM     22  C   UNL     1       1.868   4.894  19.084  0.00  0.00    +0.000 A 
ATOM     23  C   UNL     1       1.552   4.581  20.423  0.00  0.00    +0.000 A 
ATOM     24  C   UNL     1       1.059   3.328  20.771  0.00  0.00    +0.000 A 
ATOM     25  C   UNL     1       0.860   2.370  19.784  0.00  0.00    +0.000 A 
ATOM     26  C   UNL     1       1.134   2.674  18.449  0.00  0.00    +0.000 A 
ATOM     27  C   UNL     1       1.628   3.932  18.096  0.00  0.00    +0.000 A 
ENDBRANCH  15  22
ENDBRANCH   3  15
TORSDOF 5
ENDMDL
MODEL 6
REMARK VINA RESULT:      -7.3      0.191      1.350
REMARK  Name = 
REMARK  6 active torsions:
REMARK  status: ('A' for Active; 'I' for Inactive)
REMARK    1  A    between atoms: C_1  and  S_2
REMARK    2  A    between atoms: S_2  and  N_5
REMARK    3  A    between atoms: C_8  and  C_9
REMARK    4  A    between atoms: N_11  and  C_12
REMARK    5  A    between atoms: C_12  and  C_13
REMARK    6  A    between atoms: C_12  and  C_19
REMARK                            x       y       z     vdW  Elec       q    Type
REMARK                         _______ _______ _______ _____ _____    ______ ____
ROOT
ATOM      1  C   UNL     1       1.729   8.243  20.211  0.00  0.00    +0.000 C 
ATOM      2  O   UNL     1       1.757   8.892  21.254  0.00  0.00    +0.000 OA
ATOM      3  N   UNL     1       2.506   7.131  20.135  0.00  0.00    +0.000 N 
ATOM      4  H   UNL     1       3.041   6.961  20.976  0.00  0.00    +0.000 HD
ENDROOT
BRANCH   1   8
ATOM      5  N   UNL     1       1.275  11.523  18.703  0.00  0.00    +0.000 NA
ATOM      6  C   UNL     1       2.320  10.555  18.322  0.00  0.00    +0.000 C 
ATOM      7  C   UNL     1       1.643   9.283  17.859  0.00  0.00    +0.000 C 
ATOM      8  C   UNL     1       0.857   8.647  19.010  0.00  0.00    +0.000 C 
ATOM      9  C   UNL     1      -0.227   9.655  19.421  0.00  0.00    +0.000 C 
ATOM     10  C   UNL     1       0.339  11.041  19.756  0.00  0.00    +0.000 C 
BRANCH   5  12
ATOM     11  C   UNL     1       2.153  13.283  20.578  0.00  0.00    +0.000 C 
ATOM     12  S   UNL     1       1.810  13.132  18.835  0.00  0.00    +0.000 S 
ATOM     13  O   UNL     1       0.700  14.002  18.520  0.00  0.00    +0.000 OA
ATOM     14  O   UNL     1       3.070  13.240  18.126  0.00  0.00    +0.000 OA
ENDBRANCH   5  12
ENDBRANCH   1   8
BRANCH   3  15
ATOM     15  C   UNL     1       2.661   6.189  19.036  0.00  0.00    +0.000 C 
BRANCH  15  16
ATOM     16  C   UNL     1       4.086   6.178  18.502  0.00  0.00    +0.000 A 
ATOM     17  C   UNL     1       5.132   5.507  19.155  0.00  0.00    +0.000 A 
ATOM     18  C   UNL     1       6.442   5.590  18.673  0.00  0.00    +0.000 A 
ATOM     19  C   UNL     1       6.728   6.339  17.534  0.00  0.00    +0.000 A 
ATOM     20  C   UNL     1       5.704   7.004  16.869  0.00  0.00    +0.000 A 
ATOM     21  C   UNL     1       4.395   6.917  17.343  0.00  0.00    +0.000 A 
ENDBRANCH  15  16
BRANCH  15  22
ATOM     22  C   UNL     1       2.032   4.839  19.303  0.00  0.00    +0.000 A 
ATOM     23  C   UNL     1       1.756   4.007  18.197  0.00  0.00    +0.000 A 
ATOM     24  C   UNL     1       1.060   2.813  18.351  0.00  0.00    +0.000 A 
ATOM     25  C   UNL     1       0.639   2.422  19.617  0.00  0.00    +0.000 A 
ATOM     26  C   UNL     1       0.933   3.215  20.727  0.00  0.00    +0.000 A 
ATOM     27  C   UNL     1       1.633   4.415  20.575  0.00  0.00    +0.000 A 
ENDBRANCH  15  22
ENDBRANCH   3  15
TORSDOF 5
ENDMDL
MODEL 7
REMARK VINA RESULT:      -7.3      1.182      1.719
REMARK  Name = 
REMARK  6 active torsions:
REMARK  status: ('A' for Active; 'I' for Inactive)
REMARK    1  A    between atoms: C_1  and  S_2
REMARK    2  A    between atoms: S_2  and  N_5
REMARK    3  A    between atoms: C_8  and  C_9
REMARK    4  A    between atoms: N_11  and  C_12
REMARK    5  A    between atoms: C_12  and  C_13
REMARK    6  A    between atoms: C_12  and  C_19
REMARK                            x       y       z     vdW  Elec       q    Type
REMARK                         _______ _______ _______ _____ _____    ______ ____
ROOT
ATOM      1  C   UNL     1       1.801   8.478  19.637  0.00  0.00    +0.000 C 
ATOM      2  O   UNL     1       1.566   9.139  20.646  0.00  0.00    +0.000 OA
ATOM      3  N   UNL     1       2.254   7.208  19.802  0.00  0.00    +0.000 N 
ATOM      4  H   UNL     1       2.354   6.944  20.772  0.00  0.00    +0.000 HD
ENDROOT
BRANCH   1   8
ATOM      5  N   UNL     1       0.098  11.517  18.586  0.00  0.00    +0.000 NA
ATOM      6  C   UNL     1       1.525  11.429  18.947  0.00  0.00    +0.000 C 
ATOM      7  C   UNL     1       2.190  10.439  18.016  0.00  0.00    +0.000 C 
ATOM      8  C   UNL     1       1.601   9.039  18.218  0.00  0.00    +0.000 C 
ATOM      9  C   UNL     1       0.111   9.123  17.855  0.00  0.00    +0.000 C 
ATOM     10  C   UNL     1      -0.632  10.220  18.630  0.00  0.00    +0.000 C 
BRANCH   5  12
ATOM     11  C   UNL     1      -0.043  12.989  20.866  0.00  0.00    +0.000 C 
ATOM     12  S   UNL     1      -0.713  12.872  19.218  0.00  0.00    +0.000 S 
ATOM     13  O   UNL     1      -2.117  12.544  19.328  0.00  0.00    +0.000 OA
ATOM     14  O   UNL     1      -0.274  14.037  18.477  0.00  0.00    +0.000 OA
ENDBRANCH   5  12
ENDBRANCH   1   8
BRANCH   3  15
ATOM     15  C   UNL     1       2.605   6.217  18.795  0.00  0.00    +0.000 C 
BRANCH  15  16
ATOM     16  C   UNL     1       4.083   6.271  18.442  0.00  0.00    +0.000 A 
ATOM     17  C   UNL     1       4.565   6.939  17.306  0.00  0.00    +0.000 A 
ATOM     18  C   UNL     1       5.923   6.895  16.974  0.00  0.00    +0.000 A 
ATOM     19  C   UNL     1       6.821   6.189  17.773  0.00  0.00    +0.000 A 
ATOM     20  C   UNL     1       6.364   5.528  18.908  0.00  0.00    +0.000 A 
ATOM     21  C   UNL     1       5.011   5.576  19.243  0.00  0.00    +0.000 A 
ENDBRANCH  15  16
BRANCH  15  22
ATOM     22  C   UNL     1       2.027   4.845  19.070  0.00  0.00    +0.000 A 
ATOM     23  C   UNL     1       2.016   3.908  18.015  0.00  0.00    +0.000 A 
ATOM     24  C   UNL     1       1.384   2.677  18.153  0.00  0.00    +0.000 A 
ATOM     25  C   UNL     1       0.764   2.355  19.355  0.00  0.00    +0.000 A 
ATOM     26  C   UNL     1       0.795   3.255  20.421  0.00  0.00    +0.000 A 
ATOM     27  C   UNL     1       1.430   4.492  20.285  0.00  0.00    +0.000 A 
ENDBRANCH  15  22
ENDBRANCH   3  15
TORSDOF 5
ENDMDL
MODEL 8
REMARK VINA RESULT:      -7.2      5.208      7.565
REMARK  Name = 
REMARK  6 active torsions:
REMARK  status: ('A' for Active; 'I' for Inactive)
REMARK    1  A    between atoms: C_1  and  S_2
REMARK    2  A    between atoms: S_2  and  N_5
REMARK    3  A    between atoms: C_8  and  C_9
REMARK    4  A    between atoms: N_11  and  C_12
REMARK    5  A    between atoms: C_12  and  C_13
REMARK    6  A    between atoms: C_12  and  C_19
REMARK                            x       y       z     vdW  Elec       q    Type
REMARK                         _______ _______ _______ _____ _____    ______ ____
ROOT
ATOM      1  C   UNL     1       3.904   3.745  16.676  0.00  0.00    +0.000 C 
ATOM      2  O   UNL     1       2.700   3.967  16.573  0.00  0.00    +0.000 OA
ATOM      3  N   UNL     1       4.745   4.408  15.840  0.00  0.00    +0.000 N 
ATOM      4  H   UNL     1       4.265   5.028  15.202  0.00  0.00    +0.000 HD
ENDROOT
BRANCH   1   8
ATOM      5  N   UNL     1       2.690   2.940  20.010  0.00  0.00    +0.000 NA
ATOM      6  C   UNL     1       2.268   2.263  18.771  0.00  0.00    +0.000 C 
ATOM      7  C   UNL     1       3.492   1.655  18.121  0.00  0.00    +0.000 C 
ATOM      8  C   UNL     1       4.476   2.754  17.705  0.00  0.00    +0.000 C 
ATOM      9  C   UNL     1       4.912   3.474  18.990  0.00  0.00    +0.000 C 
ATOM     10  C   UNL     1       3.728   3.991  19.819  0.00  0.00    +0.000 C 
BRANCH   5  12
ATOM     11  C   UNL     1       1.410   5.087  21.078  0.00  0.00    +0.000 C 
ATOM     12  S   UNL     1       1.425   3.304  21.088  0.00  0.00    +0.000 S 
ATOM     13  O   UNL     1       1.819   2.868  22.408  0.00  0.00    +0.000 OA
ATOM     14  O   UNL     1       0.187   2.849  20.489  0.00  0.00    +0.000 OA
ENDBRANCH   5  12
ENDBRANCH   1   8
BRANCH   3  15
ATOM     15  C   UNL     1       6.196   4.338  15.747  0.00  0.00    +0.000 C 
BRANCH  15  16
ATOM     16  C   UNL     1       6.669   4.352  14.302  0.00  0.00    +0.000 A 
ATOM     17  C   UNL     1       7.615   5.273  13.825  0.00  0.00    +0.000 A 
ATOM     18  C   UNL     1       7.961   5.303  12.470  0.00  0.00    +0.000 A 
ATOM     19  C   UNL     1       7.373   4.414  11.573  0.00  0.00    +0.000 A 
ATOM     20  C   UNL     1       6.440   3.489  12.028  0.00  0.00    +0.000 A 
ATOM     21  C   UNL     1       6.099   3.453  13.379  0.00  0.00    +0.000 A 
ENDBRANCH  15  16
BRANCH  15  22
ATOM     22  C   UNL     1       6.908   5.277  16.698  0.00  0.00    +0.000 A 
ATOM     23  C   UNL     1       7.606   4.712  17.787  0.00  0.00    +0.000 A 
ATOM     24  C   UNL     1       8.171   5.513  18.773  0.00  0.00    +0.000 A 
ATOM     25  C   UNL     1       8.060   6.895  18.681  0.00  0.00    +0.000 A 
ATOM     26  C   UNL     1       7.404   7.473  17.593  0.00  0.00    +0.000 A 
ATOM     27  C   UNL     1       6.836   6.670  16.600  0.00  0.00    +0.000 A 
ENDBRANCH  15  22
ENDBRANCH   3  15
TORSDOF 5
ENDMDL
MODEL 9
REMARK VINA RESULT:      -7.2      1.270      2.051
REMARK  Name = 
REMARK  6 active torsions:
REMARK  status: ('A' for Active; 'I' for Inactive)
REMARK    1  A    between atoms: C_1  and  S_2
REMARK    2  A    between atoms: S_2  and  N_5
REMARK    3  A    between atoms: C_8  and  C_9
REMARK    4  A    between atoms: N_11  and  C_12
REMARK    5  A    between atoms: C_12  and  C_13
REMARK    6  A    between atoms: C_12  and  C_19
REMARK                            x       y       z     vdW  Elec       q    Type
REMARK                         _______ _______ _______ _____ _____    ______ ____
ROOT
ATOM      1  C   UNL     1       1.881   8.291  19.586  0.00  0.00    +0.000 C 
ATOM      2  O   UNL     1       1.633   8.929  20.607  0.00  0.00    +0.000 OA
ATOM      3  N   UNL     1       2.382   7.036  19.730  0.00  0.00    +0.000 N 
ATOM      4  H   UNL     1       2.502   6.763  20.695  0.00  0.00    +0.000 HD
ENDROOT
BRANCH   1   8
ATOM      5  N   UNL     1       0.263  11.399  18.609  0.00  0.00    +0.000 NA
ATOM      6  C   UNL     1       1.698  11.253  18.911  0.00  0.00    +0.000 C 
ATOM      7  C   UNL     1       2.284  10.238  17.953  0.00  0.00    +0.000 C 
ATOM      8  C   UNL     1       1.647   8.863  18.178  0.00  0.00    +0.000 C 
ATOM      9  C   UNL     1       0.148   9.009  17.877  0.00  0.00    +0.000 C 
ATOM     10  C   UNL     1      -0.518  10.133  18.682  0.00  0.00    +0.000 C 
BRANCH   5  12
ATOM     11  C   UNL     1      -2.169  12.285  19.439  0.00  0.00    +0.000 C 
ATOM     12  S   UNL     1      -0.466  12.785  19.275  0.00  0.00    +0.000 S 
ATOM     13  O   UNL     1      -0.403  13.842  18.291  0.00  0.00    +0.000 OA
ATOM     14  O   UNL     1       0.071  12.971  20.607  0.00  0.00    +0.000 OA
ENDBRANCH   5  12
ENDBRANCH   1   8
BRANCH   3  15
ATOM     15  C   UNL     1       2.758   6.072  18.706  0.00  0.00    +0.000 C 
BRANCH  15  16
ATOM     16  C   UNL     1       4.249   6.116  18.411  0.00  0.00    +0.000 A 
ATOM     17  C   UNL     1       5.198   5.466  19.216  0.00  0.00    +0.000 A 
ATOM     18  C   UNL     1       6.566   5.601  18.956  0.00  0.00    +0.000 A 
ATOM     19  C   UNL     1       7.007   6.380  17.888  0.00  0.00    +0.000 A 
ATOM     20  C   UNL     1       6.082   7.025  17.075  0.00  0.00    +0.000 A 
ATOM     21  C   UNL     1       4.717   6.887  17.328  0.00  0.00    +0.000 A 
ENDBRANCH  15  16
BRANCH  15  22
ATOM     22  C   UNL     1       2.153   4.700  18.916  0.00  0.00    +0.000 A 
ATOM     23  C   UNL     1       2.331   3.736  17.902  0.00  0.00    +0.000 A 
ATOM     24  C   UNL     1       1.696   2.500  17.964  0.00  0.00    +0.000 A 
ATOM     25  C   UNL     1       0.881   2.202  19.049  0.00  0.00    +0.000 A 
ATOM     26  C   UNL     1       0.720   3.130  20.079  0.00  0.00    +0.000 A 
ATOM     27  C   UNL     1       1.359   4.372  20.020  0.00  0.00    +0.000 A 
ENDBRANCH  15  22
ENDBRANCH   3  15
TORSDOF 5
ENDMDL
