MODEL 1
REMARK VINA RESULT:      -7.0      0.000      0.000
REMARK  Name = 
REMARK  9 active torsions:
REMARK  status: ('A' for Active; 'I' for Inactive)
REMARK    1  A    between atoms: C_1  and  C_2
REMARK    2  A    between atoms: C_2  and  C_3
REMARK    3  A    between atoms: C_2  and  C_4
REMARK    4  A    between atoms: C_2  and  O_5
REMARK    5  A    between atoms: O_5  and  C_6
REMARK    6  A    between atoms: C_13  and  N_14
REMARK    7  A    between atoms: N_14  and  C_15
REMARK    8  A    between atoms: C_15  and  O_16
REMARK    9  A    between atoms: O_16  and  C_17
REMARK                            x       y       z     vdW  Elec       q    Type
REMARK                         _______ _______ _______ _____ _____    ______ ____
ROOT
ATOM      1  C   UNL     1       5.054   5.187  17.523  0.00  0.00    +0.000 C 
ATOM      2  N   UNL     1       5.518   6.571  17.388  0.00  0.00    +0.000 NA
ATOM      3  S   UNL     1       7.165   6.742  17.618  0.00  0.00    +0.000 S 
ATOM      4  O   UNL     1       7.451   6.268  18.958  0.00  0.00    +0.000 OA
ATOM      5  O   UNL     1       7.530   8.072  17.198  0.00  0.00    +0.000 OA
ATOM      6  O   UNL     1       7.768   5.671  16.560  0.00  0.00    +0.000 OA
ATOM      7  C   UNL     1       7.264   4.351  16.654  0.00  0.00    +0.000 C 
ATOM      8  C   UNL     1       5.739   4.317  16.416  0.00  0.00    +0.000 C 
ATOM      9  H   UNL     1       4.991   7.210  17.988  0.00  0.00    +0.000 HD
ENDROOT
BRANCH   8  10
ATOM     10  N   UNL     1       5.341   4.742  15.048  0.00  0.00    +0.000 NA
ATOM     11  H   UNL     1       5.233   5.755  15.007  0.00  0.00    +0.000 HD
BRANCH  10  12
ATOM     12  C   UNL     1       6.267   4.275  14.035  0.00  0.00    +0.000 C 
BRANCH  12  13
ATOM     13  O   UNL     1       5.795   3.098  13.427  0.00  0.00    +0.000 OA
BRANCH  13  14
ATOM     14  C   UNL     1       5.893   3.057  12.000  0.00  0.00    +0.000 C 
ATOM     15 CL   UNL     1       6.296   1.461  11.285  0.00  0.00    +0.000 Cl
ATOM     16 CL   UNL     1       4.309   3.552  11.336  0.00  0.00    +0.000 Cl
ATOM     17 CL   UNL     1       7.134   4.232  11.489  0.00  0.00    +0.000 Cl
ENDBRANCH  13  14
ENDBRANCH  12  13
ENDBRANCH  10  12
ENDBRANCH   8  10
BRANCH   1  18
ATOM     18  O   UNL     1       3.634   5.263  17.442  0.00  0.00    +0.000 OA
BRANCH  18  20
ATOM     19  C   UNL     1       2.389   5.999  19.455  0.00  0.00    +0.000 C 
ATOM     20  C   UNL     1       2.814   4.838  18.544  0.00  0.00    +0.000 C 
ATOM     21  C   UNL     1       3.458   3.712  19.362  0.00  0.00    +0.000 C 
ATOM     22  C   UNL     1       1.544   4.245  17.903  0.00  0.00    +0.000 C 
ENDBRANCH  18  20
ENDBRANCH   1  18
TORSDOF 6
ENDMDL
MODEL 2
REMARK VINA RESULT:      -6.9      0.187      1.018
REMARK  Name = 
REMARK  9 active torsions:
REMARK  status: ('A' for Active; 'I' for Inactive)
REMARK    1  A    between atoms: C_1  and  C_2
REMARK    2  A    between atoms: C_2  and  C_3
REMARK    3  A    between atoms: C_2  and  C_4
REMARK    4  A    between atoms: C_2  and  O_5
REMARK    5  A    between atoms: O_5  and  C_6
REMARK    6  A    between atoms: C_13  and  N_14
REMARK    7  A    between atoms: N_14  and  C_15
REMARK    8  A    between atoms: C_15  and  O_16
REMARK    9  A    between atoms: O_16  and  C_17
REMARK                            x       y       z     vdW  Elec       q    Type
REMARK                         _______ _______ _______ _____ _____    ______ ____
ROOT
ATOM      1  C   UNL     1       5.105   5.146  17.551  0.00  0.00    +0.000 C 
ATOM      2  N   UNL     1       5.517   6.544  17.396  0.00  0.00    +0.000 NA
ATOM      3  S   UNL     1       7.161   6.775  17.593  0.00  0.00    +0.000 S 
ATOM      4  O   UNL     1       7.489   6.322  18.931  0.00  0.00    +0.000 OA
ATOM      5  O   UNL     1       7.471   8.113  17.155  0.00  0.00    +0.000 OA
ATOM      6  O   UNL     1       7.781   5.716  16.532  0.00  0.00    +0.000 OA
ATOM      7  C   UNL     1       7.326   4.381  16.646  0.00  0.00    +0.000 C 
ATOM      8  C   UNL     1       5.799   4.290  16.438  0.00  0.00    +0.000 C 
ATOM      9  H   UNL     1       4.979   7.170  18.001  0.00  0.00    +0.000 HD
ENDROOT
BRANCH   8  10
ATOM     10  N   UNL     1       5.360   4.689  15.075  0.00  0.00    +0.000 NA
ATOM     11  H   UNL     1       5.167   5.689  15.041  0.00  0.00    +0.000 HD
BRANCH  10  12
ATOM     12  C   UNL     1       6.318   4.309  14.055  0.00  0.00    +0.000 C 
BRANCH  12  13
ATOM     13  O   UNL     1       5.961   3.084  13.462  0.00  0.00    +0.000 OA
BRANCH  13  14
ATOM     14  C   UNL     1       5.977   3.062  12.032  0.00  0.00    +0.000 C 
ATOM     15 CL   UNL     1       6.435   1.501  11.274  0.00  0.00    +0.000 Cl
ATOM     16 CL   UNL     1       4.330   3.464  11.467  0.00  0.00    +0.000 Cl
ATOM     17 CL   UNL     1       7.111   4.317  11.464  0.00  0.00    +0.000 Cl
ENDBRANCH  13  14
ENDBRANCH  12  13
ENDBRANCH  10  12
ENDBRANCH   8  10
BRANCH   1  18
ATOM     18  O   UNL     1       3.681   5.171  17.497  0.00  0.00    +0.000 OA
BRANCH  18  20
ATOM     19  C   UNL     1       3.609   3.359  19.184  0.00  0.00    +0.000 C 
ATOM     20  C   UNL     1       2.898   4.552  18.531  0.00  0.00    +0.000 C 
ATOM     21  C   UNL     1       1.495   4.155  18.055  0.00  0.00    +0.000 C 
ATOM     22  C   UNL     1       2.706   5.640  19.605  0.00  0.00    +0.000 C 
ENDBRANCH  18  20
ENDBRANCH   1  18
TORSDOF 6
ENDMDL
MODEL 3
REMARK VINA RESULT:      -6.9      4.161      5.989
REMARK  Name = 
REMARK  9 active torsions:
REMARK  status: ('A' for Active; 'I' for Inactive)
REMARK    1  A    between atoms: C_1  and  C_2
REMARK    2  A    between atoms: C_2  and  C_3
REMARK    3  A    between atoms: C_2  and  C_4
REMARK    4  A    between atoms: C_2  and  O_5
REMARK    5  A    between atoms: O_5  and  C_6
REMARK    6  A    between atoms: C_13  and  N_14
REMARK    7  A    between atoms: N_14  and  C_15
REMARK    8  A    between atoms: C_15  and  O_16
REMARK    9  A    between atoms: O_16  and  C_17
REMARK                            x       y       z     vdW  Elec       q    Type
REMARK                         _______ _______ _______ _____ _____    ______ ____
ROOT
ATOM      1  C   UNL     1       6.217   4.750  17.027  0.00  0.00    +0.000 C 
ATOM      2  N   UNL     1       7.471   4.475  17.734  0.00  0.00    +0.000 NA
ATOM      3  S   UNL     1       7.715   5.465  19.059  0.00  0.00    +0.000 S 
ATOM      4  O   UNL     1       7.730   6.828  18.565  0.00  0.00    +0.000 OA
ATOM      5  O   UNL     1       8.820   4.926  19.811  0.00  0.00    +0.000 OA
ATOM      6  O   UNL     1       6.346   5.245  19.902  0.00  0.00    +0.000 OA
ATOM      7  C   UNL     1       5.138   5.448  19.193  0.00  0.00    +0.000 C 
ATOM      8  C   UNL     1       5.020   4.474  18.000  0.00  0.00    +0.000 C 
ATOM      9  H   UNL     1       8.276   4.494  17.103  0.00  0.00    +0.000 HD
ENDROOT
BRANCH   8  10
ATOM     10  N   UNL     1       4.949   3.046  18.403  0.00  0.00    +0.000 NA
ATOM     11  H   UNL     1       5.542   2.875  19.214  0.00  0.00    +0.000 HD
BRANCH  10  12
ATOM     12  C   UNL     1       3.588   2.611  18.653  0.00  0.00    +0.000 C 
BRANCH  12  13
ATOM     13  O   UNL     1       3.203   2.901  19.974  0.00  0.00    +0.000 OA
BRANCH  13  14
ATOM     14  C   UNL     1       1.823   3.231  20.156  0.00  0.00    +0.000 C 
ATOM     15 CL   UNL     1       0.687   2.566  18.935  0.00  0.00    +0.000 Cl
ATOM     16 CL   UNL     1       1.322   2.594  21.749  0.00  0.00    +0.000 Cl
ATOM     17 CL   UNL     1       1.667   5.008  20.162  0.00  0.00    +0.000 Cl
ENDBRANCH  13  14
ENDBRANCH  12  13
ENDBRANCH  10  12
ENDBRANCH   8  10
BRANCH   1  18
ATOM     18  O   UNL     1       6.257   3.925  15.866  0.00  0.00    +0.000 OA
BRANCH  18  20
ATOM     19  C   UNL     1       5.486   3.580  13.537  0.00  0.00    +0.000 C 
ATOM     20  C   UNL     1       6.171   4.504  14.553  0.00  0.00    +0.000 C 
ATOM     21  C   UNL     1       7.530   4.980  14.026  0.00  0.00    +0.000 C 
ATOM     22  C   UNL     1       5.298   5.763  14.718  0.00  0.00    +0.000 C 
ENDBRANCH  18  20
ENDBRANCH   1  18
TORSDOF 6
ENDMDL
MODEL 4
REMARK VINA RESULT:      -6.9      4.185      6.068
REMARK  Name = 
REMARK  9 active torsions:
REMARK  status: ('A' for Active; 'I' for Inactive)
REMARK    1  A    between atoms: C_1  and  C_2
REMARK    2  A    between atoms: C_2  and  C_3
REMARK    3  A    between atoms: C_2  and  C_4
REMARK    4  A    between atoms: C_2  and  O_5
REMARK    5  A    between atoms: O_5  and  C_6
REMARK    6  A    between atoms: C_13  and  N_14
REMARK    7  A    between atoms: N_14  and  C_15
REMARK    8  A    between atoms: C_15  and  O_16
REMARK    9  A    between atoms: O_16  and  C_17
REMARK                            x       y       z     vdW  Elec       q    Type
REMARK                         _______ _______ _______ _____ _____    ______ ____
ROOT
ATOM      1  C   UNL     1       6.286   4.769  17.057  0.00  0.00    +0.000 C 
ATOM      2  N   UNL     1       7.522   4.489  17.793  0.00  0.00    +0.000 NA
ATOM      3  S   UNL     1       7.743   5.484  19.119  0.00  0.00    +0.000 S 
ATOM      4  O   UNL     1       7.779   6.844  18.619  0.00  0.00    +0.000 OA
ATOM      5  O   UNL     1       8.828   4.940  19.898  0.00  0.00    +0.000 OA
ATOM      6  O   UNL     1       6.355   5.277  19.932  0.00  0.00    +0.000 OA
ATOM      7  C   UNL     1       5.164   5.484  19.195  0.00  0.00    +0.000 C 
ATOM      8  C   UNL     1       5.066   4.506  18.004  0.00  0.00    +0.000 C 
ATOM      9  H   UNL     1       8.341   4.500  17.180  0.00  0.00    +0.000 HD
ENDROOT
BRANCH   8  10
ATOM     10  N   UNL     1       4.976   3.080  18.413  0.00  0.00    +0.000 NA
ATOM     11  H   UNL     1       5.594   2.896  19.202  0.00  0.00    +0.000 HD
BRANCH  10  12
ATOM     12  C   UNL     1       3.616   2.677  18.711  0.00  0.00    +0.000 C 
BRANCH  12  13
ATOM     13  O   UNL     1       3.296   2.945  20.055  0.00  0.00    +0.000 OA
BRANCH  13  14
ATOM     14  C   UNL     1       1.940   3.326  20.302  0.00  0.00    +0.000 C 
ATOM     15 CL   UNL     1       1.637   5.087  20.477  0.00  0.00    +0.000 Cl
ATOM     16 CL   UNL     1       0.958   2.753  18.924  0.00  0.00    +0.000 Cl
ATOM     17 CL   UNL     1       1.390   2.510  21.791  0.00  0.00    +0.000 Cl
ENDBRANCH  13  14
ENDBRANCH  12  13
ENDBRANCH  10  12
ENDBRANCH   8  10
BRANCH   1  18
ATOM     18  O   UNL     1       6.346   3.938  15.902  0.00  0.00    +0.000 OA
BRANCH  18  20
ATOM     19  C   UNL     1       5.526   3.561  13.594  0.00  0.00    +0.000 C 
ATOM     20  C   UNL     1       6.221   4.504  14.586  0.00  0.00    +0.000 C 
ATOM     21  C   UNL     1       7.560   4.995  14.022  0.00  0.00    +0.000 C 
ATOM     22  C   UNL     1       5.334   5.752  14.761  0.00  0.00    +0.000 C 
ENDBRANCH  18  20
ENDBRANCH   1  18
TORSDOF 6
ENDMDL
MODEL 5
REMARK VINA RESULT:      -6.8      0.132      1.469
REMARK  Name = 
REMARK  9 active torsions:
REMARK  status: ('A' for Active; 'I' for Inactive)
REMARK    1  A    between atoms: C_1  and  C_2
REMARK    2  A    between atoms: C_2  and  C_3
REMARK    3  A    between atoms: C_2  and  C_4
REMARK    4  A    between atoms: C_2  and  O_5
REMARK    5  A    between atoms: O_5  and  C_6
REMARK    6  A    between atoms: C_13  and  N_14
REMARK    7  A    between atoms: N_14  and  C_15
REMARK    8  A    between atoms: C_15  and  O_16
REMARK    9  A    between atoms: O_16  and  C_17
REMARK                            x       y       z     vdW  Elec       q    Type
REMARK                         _______ _______ _______ _____ _____    ______ ____
ROOT
ATOM      1  C   UNL     1       5.103   5.113  17.533  0.00  0.00    +0.000 C 
ATOM      2  N   UNL     1       5.526   6.510  17.397  0.00  0.00    +0.000 NA
ATOM      3  S   UNL     1       7.168   6.729  17.625  0.00  0.00    +0.000 S 
ATOM      4  O   UNL     1       7.470   6.262  18.964  0.00  0.00    +0.000 OA
ATOM      5  O   UNL     1       7.494   8.068  17.204  0.00  0.00    +0.000 OA
ATOM      6  O   UNL     1       7.800   5.676  16.565  0.00  0.00    +0.000 OA
ATOM      7  C   UNL     1       7.335   4.342  16.659  0.00  0.00    +0.000 C 
ATOM      8  C   UNL     1       5.811   4.263  16.424  0.00  0.00    +0.000 C 
ATOM      9  H   UNL     1       4.982   7.133  17.998  0.00  0.00    +0.000 HD
ENDROOT
BRANCH   8  10
ATOM     10  N   UNL     1       5.399   4.676  15.057  0.00  0.00    +0.000 NA
ATOM     11  H   UNL     1       5.264   5.686  15.016  0.00  0.00    +0.000 HD
BRANCH  10  12
ATOM     12  C   UNL     1       6.334   4.234  14.042  0.00  0.00    +0.000 C 
BRANCH  12  13
ATOM     13  O   UNL     1       5.877   3.059  13.417  0.00  0.00    +0.000 OA
BRANCH  13  14
ATOM     14  C   UNL     1       5.849   3.091  11.987  0.00  0.00    +0.000 C 
ATOM     15 CL   UNL     1       4.278   3.535  11.241  0.00  0.00    +0.000 Cl
ATOM     16 CL   UNL     1       7.052   4.299  11.451  0.00  0.00    +0.000 Cl
ATOM     17 CL   UNL     1       6.325   1.482  11.380  0.00  0.00    +0.000 Cl
ENDBRANCH  13  14
ENDBRANCH  12  13
ENDBRANCH  10  12
ENDBRANCH   8  10
BRANCH   1  18
ATOM     18  O   UNL     1       3.681   5.147  17.454  0.00  0.00    +0.000 OA
BRANCH  18  20
ATOM     19  C   UNL     1       1.534   4.147  18.183  0.00  0.00    +0.000 C 
ATOM     20  C   UNL     1       2.876   4.774  18.585  0.00  0.00    +0.000 C 
ATOM     21  C   UNL     1       2.662   5.932  19.568  0.00  0.00    +0.000 C 
ATOM     22  C   UNL     1       3.696   3.707  19.336  0.00  0.00    +0.000 C 
ENDBRANCH  18  20
ENDBRANCH   1  18
TORSDOF 6
ENDMDL
MODEL 6
REMARK VINA RESULT:      -6.7      0.249      1.195
REMARK  Name = 
REMARK  9 active torsions:
REMARK  status: ('A' for Active; 'I' for Inactive)
REMARK    1  A    between atoms: C_1  and  C_2
REMARK    2  A    between atoms: C_2  and  C_3
REMARK    3  A    between atoms: C_2  and  C_4
REMARK    4  A    between atoms: C_2  and  O_5
REMARK    5  A    between atoms: O_5  and  C_6
REMARK    6  A    between atoms: C_13  and  N_14
REMARK    7  A    between atoms: N_14  and  C_15
REMARK    8  A    between atoms: C_15  and  O_16
REMARK    9  A    between atoms: O_16  and  C_17
REMARK                            x       y       z     vdW  Elec       q    Type
REMARK                         _______ _______ _______ _____ _____    ______ ____
ROOT
ATOM      1  C   UNL     1       5.079   5.275  17.616  0.00  0.00    +0.000 C 
ATOM      2  N   UNL     1       5.581   6.637  17.410  0.00  0.00    +0.000 NA
ATOM      3  S   UNL     1       7.233   6.773  17.625  0.00  0.00    +0.000 S 
ATOM      4  O   UNL     1       7.514   6.358  18.986  0.00  0.00    +0.000 OA
ATOM      5  O   UNL     1       7.633   8.069  17.138  0.00  0.00    +0.000 OA
ATOM      6  O   UNL     1       7.800   5.634  16.619  0.00  0.00    +0.000 OA
ATOM      7  C   UNL     1       7.260   4.335  16.780  0.00  0.00    +0.000 C 
ATOM      8  C   UNL     1       5.733   4.332  16.550  0.00  0.00    +0.000 C 
ATOM      9  H   UNL     1       5.075   7.320  17.980  0.00  0.00    +0.000 HD
ENDROOT
BRANCH   8  10
ATOM     10  N   UNL     1       5.340   4.699  15.165  0.00  0.00    +0.000 NA
ATOM     11  H   UNL     1       5.045   5.674  15.126  0.00  0.00    +0.000 HD
BRANCH  10  12
ATOM     12  C   UNL     1       6.393   4.435  14.205  0.00  0.00    +0.000 C 
BRANCH  12  13
ATOM     13  O   UNL     1       6.156   3.230  13.519  0.00  0.00    +0.000 OA
BRANCH  13  14
ATOM     14  C   UNL     1       6.168   3.319  12.091  0.00  0.00    +0.000 C 
ATOM     15 CL   UNL     1       7.148   4.652  11.394  0.00  0.00    +0.000 Cl
ATOM     16 CL   UNL     1       6.832   1.785  11.460  0.00  0.00    +0.000 Cl
ATOM     17 CL   UNL     1       4.485   3.504  11.527  0.00  0.00    +0.000 Cl
ENDBRANCH  13  14
ENDBRANCH  12  13
ENDBRANCH  10  12
ENDBRANCH   8  10
BRANCH   1  18
ATOM     18  O   UNL     1       3.661   5.387  17.538  0.00  0.00    +0.000 OA
BRANCH  18  20
ATOM     19  C   UNL     1       2.342   5.890  19.574  0.00  0.00    +0.000 C 
ATOM     20  C   UNL     1       2.825   4.835  18.569  0.00  0.00    +0.000 C 
ATOM     21  C   UNL     1       3.480   3.653  19.293  0.00  0.00    +0.000 C 
ATOM     22  C   UNL     1       1.591   4.273  17.837  0.00  0.00    +0.000 C 
ENDBRANCH  18  20
ENDBRANCH   1  18
TORSDOF 6
ENDMDL
MODEL 7
REMARK VINA RESULT:      -6.7      0.277      1.481
REMARK  Name = 
REMARK  9 active torsions:
REMARK  status: ('A' for Active; 'I' for Inactive)
REMARK    1  A    between atoms: C_1  and  C_2
REMARK    2  A    between atoms: C_2  and  C_3
REMARK    3  A    between atoms: C_2  and  C_4
REMARK    4  A    between atoms: C_2  and  O_5
REMARK    5  A    between atoms: O_5  and  C_6
REMARK    6  A    between atoms: C_13  and  N_14
REMARK    7  A    between atoms: N_14  and  C_15
REMARK    8  A    between atoms: C_15  and  O_16
REMARK    9  A    between atoms: O_16  and  C_17
REMARK                            x       y       z     vdW  Elec       q    Type
REMARK                         _______ _______ _______ _____ _____    ______ ____
ROOT
ATOM      1  C   UNL     1       5.114   5.286  17.718  0.00  0.00    +0.000 C 
ATOM      2  N   UNL     1       5.599   6.648  17.476  0.00  0.00    +0.000 NA
ATOM      3  S   UNL     1       7.262   6.786  17.580  0.00  0.00    +0.000 S 
ATOM      4  O   UNL     1       7.632   6.375  18.920  0.00  0.00    +0.000 OA
ATOM      5  O   UNL     1       7.627   8.082  17.063  0.00  0.00    +0.000 OA
ATOM      6  O   UNL     1       7.762   5.645  16.541  0.00  0.00    +0.000 OA
ATOM      7  C   UNL     1       7.236   4.346  16.742  0.00  0.00    +0.000 C 
ATOM      8  C   UNL     1       5.697   4.340  16.614  0.00  0.00    +0.000 C 
ATOM      9  H   UNL     1       5.131   7.332  18.076  0.00  0.00    +0.000 HD
ENDROOT
BRANCH   8  10
ATOM     10  N   UNL     1       5.212   4.704  15.257  0.00  0.00    +0.000 NA
ATOM     11  H   UNL     1       4.975   5.694  15.217  0.00  0.00    +0.000 HD
BRANCH  10  12
ATOM     12  C   UNL     1       6.163   4.354  14.220  0.00  0.00    +0.000 C 
BRANCH  12  13
ATOM     13  O   UNL     1       5.777   3.171  13.563  0.00  0.00    +0.000 OA
BRANCH  13  14
ATOM     14  C   UNL     1       5.809   3.220  12.134  0.00  0.00    +0.000 C 
ATOM     15 CL   UNL     1       4.308   3.792  11.333  0.00  0.00    +0.000 Cl
ATOM     16 CL   UNL     1       7.122   4.336  11.662  0.00  0.00    +0.000 Cl
ATOM     17 CL   UNL     1       6.184   1.585  11.525  0.00  0.00    +0.000 Cl
ENDBRANCH  13  14
ENDBRANCH  12  13
ENDBRANCH  10  12
ENDBRANCH   8  10
BRANCH   1  18
ATOM     18  O   UNL     1       3.694   5.396  17.734  0.00  0.00    +0.000 OA
BRANCH  18  20
ATOM     19  C   UNL     1       3.753   3.590  19.429  0.00  0.00    +0.000 C 
ATOM     20  C   UNL     1       2.902   4.542  18.577  0.00  0.00    +0.000 C 
ATOM     21  C   UNL     1       1.833   3.766  17.798  0.00  0.00    +0.000 C 
ATOM     22  C   UNL     1       2.150   5.491  19.529  0.00  0.00    +0.000 C 
ENDBRANCH  18  20
ENDBRANCH   1  18
TORSDOF 6
ENDMDL
MODEL 8
REMARK VINA RESULT:      -6.7      3.755      5.636
REMARK  Name = 
REMARK  9 active torsions:
REMARK  status: ('A' for Active; 'I' for Inactive)
REMARK    1  A    between atoms: C_1  and  C_2
REMARK    2  A    between atoms: C_2  and  C_3
REMARK    3  A    between atoms: C_2  and  C_4
REMARK    4  A    between atoms: C_2  and  O_5
REMARK    5  A    between atoms: O_5  and  C_6
REMARK    6  A    between atoms: C_13  and  N_14
REMARK    7  A    between atoms: N_14  and  C_15
REMARK    8  A    between atoms: C_15  and  O_16
REMARK    9  A    between atoms: O_16  and  C_17
REMARK                            x       y       z     vdW  Elec       q    Type
REMARK                         _______ _______ _______ _____ _____    ______ ____
ROOT
ATOM      1  C   UNL     1       6.459   4.828  17.203  0.00  0.00    +0.000 C 
ATOM      2  N   UNL     1       7.698   4.507  17.920  0.00  0.00    +0.000 NA
ATOM      3  S   UNL     1       7.957   5.474  19.259  0.00  0.00    +0.000 S 
ATOM      4  O   UNL     1       8.017   6.842  18.782  0.00  0.00    +0.000 OA
ATOM      5  O   UNL     1       9.038   4.893  20.015  0.00  0.00    +0.000 OA
ATOM      6  O   UNL     1       6.574   5.284  20.085  0.00  0.00    +0.000 OA
ATOM      7  C   UNL     1       5.379   5.531  19.367  0.00  0.00    +0.000 C 
ATOM      8  C   UNL     1       5.245   4.576  18.161  0.00  0.00    +0.000 C 
ATOM      9  H   UNL     1       8.509   4.510  17.297  0.00  0.00    +0.000 HD
ENDROOT
BRANCH   8  10
ATOM     10  N   UNL     1       5.127   3.146  18.546  0.00  0.00    +0.000 NA
ATOM     11  H   UNL     1       6.021   2.794  18.886  0.00  0.00    +0.000 HD
BRANCH  10  12
ATOM     12  C   UNL     1       4.076   2.921  19.518  0.00  0.00    +0.000 C 
BRANCH  12  13
ATOM     13  O   UNL     1       2.902   2.463  18.892  0.00  0.00    +0.000 OA
BRANCH  13  14
ATOM     14  C   UNL     1       1.779   3.346  18.965  0.00  0.00    +0.000 C 
ATOM     15 CL   UNL     1       1.672   4.592  17.676  0.00  0.00    +0.000 Cl
ATOM     16 CL   UNL     1       0.300   2.347  18.861  0.00  0.00    +0.000 Cl
ATOM     17 CL   UNL     1       1.816   4.172  20.545  0.00  0.00    +0.000 Cl
ENDBRANCH  13  14
ENDBRANCH  12  13
ENDBRANCH  10  12
ENDBRANCH   8  10
BRANCH   1  18
ATOM     18  O   UNL     1       6.487   4.016  16.033  0.00  0.00    +0.000 OA
BRANCH  18  20
ATOM     19  C   UNL     1       5.294   5.799  14.793  0.00  0.00    +0.000 C 
ATOM     20  C   UNL     1       6.236   4.589  14.739  0.00  0.00    +0.000 C 
ATOM     21  C   UNL     1       5.738   3.556  13.720  0.00  0.00    +0.000 C 
ATOM     22  C   UNL     1       7.609   5.075  14.235  0.00  0.00    +0.000 C 
ENDBRANCH  18  20
ENDBRANCH   1  18
TORSDOF 6
ENDMDL
MODEL 9
REMARK VINA RESULT:      -6.7      4.178      6.020
REMARK  Name = 
REMARK  9 active torsions:
REMARK  status: ('A' for Active; 'I' for Inactive)
REMARK    1  A    between atoms: C_1  and  C_2
REMARK    2  A    between atoms: C_2  and  C_3
REMARK    3  A    between atoms: C_2  and  C_4
REMARK    4  A    between atoms: C_2  and  O_5
REMARK    5  A    between atoms: O_5  and  C_6
REMARK    6  A    between atoms: C_13  and  N_14
REMARK    7  A    between atoms: N_14  and  C_15
REMARK    8  A    between atoms: C_15  and  O_16
REMARK    9  A    between atoms: O_16  and  C_17
REMARK                            x       y       z     vdW  Elec       q    Type
REMARK                         _______ _______ _______ _____ _____    ______ ____
ROOT
ATOM      1  C   UNL     1       6.297   4.792  17.075  0.00  0.00    +0.000 C 
ATOM      2  N   UNL     1       7.543   4.501  17.790  0.00  0.00    +0.000 NA
ATOM      3  S   UNL     1       7.779   5.472  19.130  0.00  0.00    +0.000 S 
ATOM      4  O   UNL     1       7.804   6.842  18.656  0.00  0.00    +0.000 OA
ATOM      5  O   UNL     1       8.875   4.917  19.885  0.00  0.00    +0.000 OA
ATOM      6  O   UNL     1       6.402   5.245  19.958  0.00  0.00    +0.000 OA
ATOM      7  C   UNL     1       5.201   5.462  19.240  0.00  0.00    +0.000 C 
ATOM      8  C   UNL     1       5.090   4.507  18.033  0.00  0.00    +0.000 C 
ATOM      9  H   UNL     1       8.354   4.526  17.166  0.00  0.00    +0.000 HD
ENDROOT
BRANCH   8  10
ATOM     10  N   UNL     1       5.009   3.073  18.415  0.00  0.00    +0.000 NA
ATOM     11  H   UNL     1       5.636   2.877  19.194  0.00  0.00    +0.000 HD
BRANCH  10  12
ATOM     12  C   UNL     1       3.654   2.659  18.720  0.00  0.00    +0.000 C 
BRANCH  12  13
ATOM     13  O   UNL     1       3.317   2.985  20.047  0.00  0.00    +0.000 OA
BRANCH  13  14
ATOM     14  C   UNL     1       1.927   3.228  20.289  0.00  0.00    +0.000 C 
ATOM     15 CL   UNL     1       1.264   2.549  21.813  0.00  0.00    +0.000 Cl
ATOM     16 CL   UNL     1       1.692   4.998  20.349  0.00  0.00    +0.000 Cl
ATOM     17 CL   UNL     1       0.995   2.560  18.923  0.00  0.00    +0.000 Cl
ENDBRANCH  13  14
ENDBRANCH  12  13
ENDBRANCH  10  12
ENDBRANCH   8  10
BRANCH   1  18
ATOM     18  O   UNL     1       6.344   3.983  15.903  0.00  0.00    +0.000 OA
BRANCH  18  20
ATOM     19  C   UNL     1       5.279   5.833  14.645  0.00  0.00    +0.000 C 
ATOM     20  C   UNL     1       6.142   4.564  14.604  0.00  0.00    +0.000 C 
ATOM     21  C   UNL     1       5.586   3.561  13.586  0.00  0.00    +0.000 C 
ATOM     22  C   UNL     1       7.547   4.958  14.110  0.00  0.00    +0.000 C 
ENDBRANCH  18  20
ENDBRANCH   1  18
TORSDOF 6
ENDMDL
