MODEL 1
REMARK VINA RESULT:      -7.9      0.000      0.000
REMARK  Name = 
REMARK  5 active torsions:
REMARK  status: ('A' for Active; 'I' for Inactive)
REMARK    1  A    between atoms: C_1  and  C_2
REMARK    2  A    between atoms: C_5  and  C_7
REMARK    3  A    between atoms: C_7  and  N_8
REMARK    4  A    between atoms: C_14  and  C_15
REMARK    5  A    between atoms: C_22  and  O_23
REMARK                            x       y       z     vdW  Elec       q    Type
REMARK                         _______ _______ _______ _____ _____    ______ ____
ROOT
ATOM      1  C   UNL     1       1.407   3.250  20.939  0.00  0.00    +0.000 C 
ATOM      2  C   UNL     1       1.892   4.340  20.050  0.00  0.00    +0.000 C 
ATOM      3  N   UNL     1       2.191   5.509  20.513  0.00  0.00    +0.000 NA
ATOM      4  N   UNL     1       2.488   6.286  19.422  0.00  0.00    +0.000 N 
ATOM      5  C   UNL     1       2.163   7.646  19.441  0.00  0.00    +0.000 C 
ATOM      6  O   UNL     1       2.354   8.373  18.468  0.00  0.00    +0.000 OA
ATOM      7  C   UNL     1       2.630   5.504  18.178  0.00  0.00    +0.000 C 
ATOM      8  C   UNL     1       1.908   4.208  18.558  0.00  0.00    +0.000 C 
ENDROOT
BRANCH   7   9
ATOM      9  C   UNL     1       4.064   5.254  17.716  0.00  0.00    +0.000 A 
ATOM     10  C   UNL     1       4.361   4.802  16.423  0.00  0.00    +0.000 A 
ATOM     11  C   UNL     1       5.684   4.574  16.026  0.00  0.00    +0.000 A 
ATOM     12 BR   UNL     1       6.035   3.977  14.265  0.00  0.00    +0.000 Br
ATOM     13  C   UNL     1       6.745   4.786  16.902  0.00  0.00    +0.000 A 
ATOM     14  C   UNL     1       6.474   5.225  18.189  0.00  0.00    +0.000 A 
ATOM     15 BR   UNL     1       7.923   5.506  19.382  0.00  0.00    +0.000 Br
ATOM     16  C   UNL     1       5.146   5.459  18.600  0.00  0.00    +0.000 A 
BRANCH  16  17
ATOM     17  O   UNL     1       4.880   5.898  19.869  0.00  0.00    +0.000 OA
ATOM     18  H   UNL     1       5.124   5.171  20.488  0.00  0.00    +0.000 HD
ENDBRANCH  16  17
ENDBRANCH   7   9
BRANCH   5  19
ATOM     19  C   UNL     1       1.487   8.081  20.769  0.00  0.00    +0.000 C 
BRANCH  19  20
ATOM     20  N   UNL     1       0.116   8.634  20.640  0.00  0.00    +0.000 NA
ATOM     21  C   UNL     1      -0.599   8.542  21.940  0.00  0.00    +0.000 C 
ATOM     22  C   UNL     1      -0.091   9.511  23.041  0.00  0.00    +0.000 C 
ATOM     23  N   UNL     1       0.057  10.907  22.601  0.00  0.00    +0.000 NA
ATOM     24  C   UNL     1       0.742  10.987  21.304  0.00  0.00    +0.000 C 
ATOM     25  C   UNL     1       0.108  10.057  20.250  0.00  0.00    +0.000 C 
ATOM     26  H   UNL     1       0.587  11.430  23.296  0.00  0.00    +0.000 HD
ENDBRANCH  19  20
ENDBRANCH   5  19
TORSDOF 4
ENDMDL
MODEL 2
REMARK VINA RESULT:      -7.6      1.000      2.150
REMARK  Name = 
REMARK  5 active torsions:
REMARK  status: ('A' for Active; 'I' for Inactive)
REMARK    1  A    between atoms: C_1  and  C_2
REMARK    2  A    between atoms: C_5  and  C_7
REMARK    3  A    between atoms: C_7  and  N_8
REMARK    4  A    between atoms: C_14  and  C_15
REMARK    5  A    between atoms: C_22  and  O_23
REMARK                            x       y       z     vdW  Elec       q    Type
REMARK                         _______ _______ _______ _____ _____    ______ ____
ROOT
ATOM      1  C   UNL     1       1.801   3.164  21.672  0.00  0.00    +0.000 C 
ATOM      2  C   UNL     1       2.174   4.197  20.668  0.00  0.00    +0.000 C 
ATOM      3  N   UNL     1       2.375   5.428  21.005  0.00  0.00    +0.000 NA
ATOM      4  N   UNL     1       2.586   6.113  19.835  0.00  0.00    +0.000 N 
ATOM      5  C   UNL     1       2.140   7.435  19.726  0.00  0.00    +0.000 C 
ATOM      6  O   UNL     1       2.253   8.073  18.681  0.00  0.00    +0.000 OA
ATOM      7  C   UNL     1       2.780   5.224  18.673  0.00  0.00    +0.000 C 
ATOM      8  C   UNL     1       2.181   3.916  19.196  0.00  0.00    +0.000 C 
ENDROOT
BRANCH   7   9
ATOM      9  C   UNL     1       4.223   5.056  18.205  0.00  0.00    +0.000 A 
ATOM     10  C   UNL     1       5.314   5.395  19.018  0.00  0.00    +0.000 A 
ATOM     11  C   UNL     1       6.628   5.237  18.564  0.00  0.00    +0.000 A 
ATOM     12 BR   UNL     1       8.067   5.695  19.704  0.00  0.00    +0.000 Br
ATOM     13  C   UNL     1       6.894   4.743  17.289  0.00  0.00    +0.000 A 
ATOM     14  C   UNL     1       5.830   4.409  16.464  0.00  0.00    +0.000 A 
ATOM     15 BR   UNL     1       6.198   3.742  14.726  0.00  0.00    +0.000 Br
ATOM     16  C   UNL     1       4.502   4.562  16.912  0.00  0.00    +0.000 A 
BRANCH  16  17
ATOM     17  O   UNL     1       3.454   4.227  16.099  0.00  0.00    +0.000 OA
ATOM     18  H   UNL     1       2.994   3.461  16.513  0.00  0.00    +0.000 HD
ENDBRANCH  16  17
ENDBRANCH   7   9
BRANCH   5  19
ATOM     19  C   UNL     1       1.447   7.941  21.019  0.00  0.00    +0.000 C 
BRANCH  19  20
ATOM     20  N   UNL     1       0.090   8.513  20.838  0.00  0.00    +0.000 NA
ATOM     21  C   UNL     1      -0.626   8.560  22.140  0.00  0.00    +0.000 C 
ATOM     22  C   UNL     1      -0.093   9.615  23.146  0.00  0.00    +0.000 C 
ATOM     23  N   UNL     1       0.088  10.959  22.578  0.00  0.00    +0.000 NA
ATOM     24  C   UNL     1       0.773  10.902  21.280  0.00  0.00    +0.000 C 
ATOM     25  C   UNL     1       0.116   9.893  20.317  0.00  0.00    +0.000 C 
ATOM     26  H   UNL     1       0.632  11.532  23.222  0.00  0.00    +0.000 HD
ENDBRANCH  19  20
ENDBRANCH   5  19
TORSDOF 4
ENDMDL
MODEL 3
REMARK VINA RESULT:      -7.5      0.623      1.175
REMARK  Name = 
REMARK  5 active torsions:
REMARK  status: ('A' for Active; 'I' for Inactive)
REMARK    1  A    between atoms: C_1  and  C_2
REMARK    2  A    between atoms: C_5  and  C_7
REMARK    3  A    between atoms: C_7  and  N_8
REMARK    4  A    between atoms: C_14  and  C_15
REMARK    5  A    between atoms: C_22  and  O_23
REMARK                            x       y       z     vdW  Elec       q    Type
REMARK                         _______ _______ _______ _____ _____    ______ ____
ROOT
ATOM      1  C   UNL     1       1.243   3.087  20.667  0.00  0.00    +0.000 C 
ATOM      2  C   UNL     1       1.769   4.207  19.840  0.00  0.00    +0.000 C 
ATOM      3  N   UNL     1       2.035   5.361  20.355  0.00  0.00    +0.000 NA
ATOM      4  N   UNL     1       2.387   6.174  19.307  0.00  0.00    +0.000 N 
ATOM      5  C   UNL     1       2.052   7.532  19.350  0.00  0.00    +0.000 C 
ATOM      6  O   UNL     1       2.292   8.289  18.412  0.00  0.00    +0.000 OA
ATOM      7  C   UNL     1       2.602   5.432  18.049  0.00  0.00    +0.000 C 
ATOM      8  C   UNL     1       1.868   4.122  18.348  0.00  0.00    +0.000 C 
ENDROOT
BRANCH   7   9
ATOM      9  C   UNL     1       4.061   5.204  17.660  0.00  0.00    +0.000 A 
ATOM     10  C   UNL     1       4.430   4.771  16.379  0.00  0.00    +0.000 A 
ATOM     11  C   UNL     1       5.774   4.563  16.048  0.00  0.00    +0.000 A 
ATOM     12 BR   UNL     1       6.224   3.992  14.301  0.00  0.00    +0.000 Br
ATOM     13  C   UNL     1       6.785   4.774  16.982  0.00  0.00    +0.000 A 
ATOM     14  C   UNL     1       6.443   5.195  18.258  0.00  0.00    +0.000 A 
ATOM     15 BR   UNL     1       7.824   5.475  19.528  0.00  0.00    +0.000 Br
ATOM     16  C   UNL     1       5.093   5.409  18.602  0.00  0.00    +0.000 A 
BRANCH  16  17
ATOM     17  O   UNL     1       4.756   5.829  19.860  0.00  0.00    +0.000 OA
ATOM     18  H   UNL     1       3.786   6.000  19.863  0.00  0.00    +0.000 HD
ENDBRANCH  16  17
ENDBRANCH   7   9
BRANCH   5  19
ATOM     19  C   UNL     1       1.301   7.921  20.652  0.00  0.00    +0.000 C 
BRANCH  19  20
ATOM     20  N   UNL     1       1.691   9.221  21.253  0.00  0.00    +0.000 NA
ATOM     21  C   UNL     1       0.989  10.336  20.565  0.00  0.00    +0.000 C 
ATOM     22  C   UNL     1      -0.534  10.428  20.849  0.00  0.00    +0.000 C 
ATOM     23  N   UNL     1      -0.892  10.359  22.273  0.00  0.00    +0.000 NA
ATOM     24  C   UNL     1      -0.175   9.271  22.951  0.00  0.00    +0.000 C 
ATOM     25  C   UNL     1       1.343   9.317  22.683  0.00  0.00    +0.000 C 
ATOM     26  H   UNL     1      -1.896  10.212  22.367  0.00  0.00    +0.000 HD
ENDBRANCH  19  20
ENDBRANCH   5  19
TORSDOF 4
ENDMDL
MODEL 4
REMARK VINA RESULT:      -7.1      1.198      2.460
REMARK  Name = 
REMARK  5 active torsions:
REMARK  status: ('A' for Active; 'I' for Inactive)
REMARK    1  A    between atoms: C_1  and  C_2
REMARK    2  A    between atoms: C_5  and  C_7
REMARK    3  A    between atoms: C_7  and  N_8
REMARK    4  A    between atoms: C_14  and  C_15
REMARK    5  A    between atoms: C_22  and  O_23
REMARK                            x       y       z     vdW  Elec       q    Type
REMARK                         _______ _______ _______ _____ _____    ______ ____
ROOT
ATOM      1  C   UNL     1       2.062   3.002  21.664  0.00  0.00    +0.000 C 
ATOM      2  C   UNL     1       2.355   4.020  20.619  0.00  0.00    +0.000 C 
ATOM      3  N   UNL     1       2.453   5.276  20.906  0.00  0.00    +0.000 NA
ATOM      4  N   UNL     1       2.614   5.929  19.710  0.00  0.00    +0.000 N 
ATOM      5  C   UNL     1       2.063   7.204  19.546  0.00  0.00    +0.000 C 
ATOM      6  O   UNL     1       2.129   7.806  18.476  0.00  0.00    +0.000 OA
ATOM      7  C   UNL     1       2.886   5.012  18.585  0.00  0.00    +0.000 C 
ATOM      8  C   UNL     1       2.392   3.682  19.160  0.00  0.00    +0.000 C 
ENDROOT
BRANCH   7   9
ATOM      9  C   UNL     1       4.340   4.943  18.128  0.00  0.00    +0.000 A 
ATOM     10  C   UNL     1       5.403   5.311  18.965  0.00  0.00    +0.000 A 
ATOM     11  C   UNL     1       6.728   5.245  18.520  0.00  0.00    +0.000 A 
ATOM     12 BR   UNL     1       8.128   5.738  19.692  0.00  0.00    +0.000 Br
ATOM     13  C   UNL     1       7.033   4.816  17.231  0.00  0.00    +0.000 A 
ATOM     14  C   UNL     1       5.997   4.455  16.382  0.00  0.00    +0.000 A 
ATOM     15 BR   UNL     1       6.418   3.878  14.624  0.00  0.00    +0.000 Br
ATOM     16  C   UNL     1       4.659   4.516  16.820  0.00  0.00    +0.000 A 
BRANCH  16  17
ATOM     17  O   UNL     1       3.639   4.155  15.983  0.00  0.00    +0.000 OA
ATOM     18  H   UNL     1       3.351   4.966  15.502  0.00  0.00    +0.000 HD
ENDBRANCH  16  17
ENDBRANCH   7   9
BRANCH   5  19
ATOM     19  C   UNL     1       1.325   7.704  20.817  0.00  0.00    +0.000 C 
BRANCH  19  20
ATOM     20  N   UNL     1       1.714   9.054  21.296  0.00  0.00    +0.000 NA
ATOM     21  C   UNL     1       1.011  10.101  20.509  0.00  0.00    +0.000 C 
ATOM     22  C   UNL     1      -0.512  10.218  20.784  0.00  0.00    +0.000 C 
ATOM     23  N   UNL     1      -0.869  10.280  22.210  0.00  0.00    +0.000 NA
ATOM     24  C   UNL     1      -0.151   9.258  22.984  0.00  0.00    +0.000 C 
ATOM     25  C   UNL     1       1.367   9.280  22.712  0.00  0.00    +0.000 C 
ATOM     26  H   UNL     1      -1.873  10.141  22.317  0.00  0.00    +0.000 HD
ENDBRANCH  19  20
ENDBRANCH   5  19
TORSDOF 4
ENDMDL
MODEL 5
REMARK VINA RESULT:      -7.1      1.291      2.152
REMARK  Name = 
REMARK  5 active torsions:
REMARK  status: ('A' for Active; 'I' for Inactive)
REMARK    1  A    between atoms: C_1  and  C_2
REMARK    2  A    between atoms: C_5  and  C_7
REMARK    3  A    between atoms: C_7  and  N_8
REMARK    4  A    between atoms: C_14  and  C_15
REMARK    5  A    between atoms: C_22  and  O_23
REMARK                            x       y       z     vdW  Elec       q    Type
REMARK                         _______ _______ _______ _____ _____    ______ ____
ROOT
ATOM      1  C   UNL     1       2.522   3.649  21.319  0.00  0.00    +0.000 C 
ATOM      2  C   UNL     1       2.599   4.704  20.272  0.00  0.00    +0.000 C 
ATOM      3  N   UNL     1       2.677   5.957  20.579  0.00  0.00    +0.000 NA
ATOM      4  N   UNL     1       2.618   6.644  19.393  0.00  0.00    +0.000 N 
ATOM      5  C   UNL     1       1.985   7.891  19.353  0.00  0.00    +0.000 C 
ATOM      6  O   UNL     1       1.854   8.519  18.305  0.00  0.00    +0.000 OA
ATOM      7  C   UNL     1       2.758   5.768  18.212  0.00  0.00    +0.000 C 
ATOM      8  C   UNL     1       2.427   4.401  18.815  0.00  0.00    +0.000 C 
ENDROOT
BRANCH   7   9
ATOM      9  C   UNL     1       4.126   5.788  17.535  0.00  0.00    +0.000 A 
ATOM     10  C   UNL     1       5.113   6.724  17.877  0.00  0.00    +0.000 A 
ATOM     11  C   UNL     1       6.357   6.726  17.237  0.00  0.00    +0.000 A 
ATOM     12 BR   UNL     1       7.661   7.999  17.743  0.00  0.00    +0.000 Br
ATOM     13  C   UNL     1       6.653   5.801  16.238  0.00  0.00    +0.000 A 
ATOM     14  C   UNL     1       5.689   4.872  15.877  0.00  0.00    +0.000 A 
ATOM     15 BR   UNL     1       6.096   3.619  14.511  0.00  0.00    +0.000 Br
ATOM     16  C   UNL     1       4.433   4.859  16.516  0.00  0.00    +0.000 A 
BRANCH  16  17
ATOM     17  O   UNL     1       3.485   3.938  16.163  0.00  0.00    +0.000 OA
ATOM     18  H   UNL     1       3.958   3.153  15.801  0.00  0.00    +0.000 HD
ENDBRANCH  16  17
ENDBRANCH   7   9
BRANCH   5  19
ATOM     19  C   UNL     1       1.428   8.322  20.737  0.00  0.00    +0.000 C 
BRANCH  19  20
ATOM     20  N   UNL     1       0.003   8.737  20.753  0.00  0.00    +0.000 NA
ATOM     21  C   UNL     1      -0.565   8.572  22.117  0.00  0.00    +0.000 C 
ATOM     22  C   UNL     1      -0.045   9.585  23.172  0.00  0.00    +0.000 C 
ATOM     23  N   UNL     1      -0.080  10.989  22.736  0.00  0.00    +0.000 NA
ATOM     24  C   UNL     1       0.459  11.139  21.377  0.00  0.00    +0.000 C 
ATOM     25  C   UNL     1      -0.184  10.153  20.382  0.00  0.00    +0.000 C 
ATOM     26  H   UNL     1       0.464  11.561  23.380  0.00  0.00    +0.000 HD
ENDBRANCH  19  20
ENDBRANCH   5  19
TORSDOF 4
ENDMDL
MODEL 6
REMARK VINA RESULT:      -7.1      1.706      2.444
REMARK  Name = 
REMARK  5 active torsions:
REMARK  status: ('A' for Active; 'I' for Inactive)
REMARK    1  A    between atoms: C_1  and  C_2
REMARK    2  A    between atoms: C_5  and  C_7
REMARK    3  A    between atoms: C_7  and  N_8
REMARK    4  A    between atoms: C_14  and  C_15
REMARK    5  A    between atoms: C_22  and  O_23
REMARK                            x       y       z     vdW  Elec       q    Type
REMARK                         _______ _______ _______ _____ _____    ______ ____
ROOT
ATOM      1  C   UNL     1       2.209   4.623  21.185  0.00  0.00    +0.000 C 
ATOM      2  C   UNL     1       2.425   5.504  20.006  0.00  0.00    +0.000 C 
ATOM      3  N   UNL     1       2.485   6.789  20.123  0.00  0.00    +0.000 NA
ATOM      4  N   UNL     1       2.578   7.285  18.847  0.00  0.00    +0.000 N 
ATOM      5  C   UNL     1       1.973   8.508  18.541  0.00  0.00    +0.000 C 
ATOM      6  O   UNL     1       1.978   8.967  17.400  0.00  0.00    +0.000 OA
ATOM      7  C   UNL     1       2.845   6.238  17.840  0.00  0.00    +0.000 C 
ATOM      8  C   UNL     1       2.424   4.979  18.602  0.00  0.00    +0.000 C 
ENDROOT
BRANCH   7   9
ATOM      9  C   UNL     1       4.284   6.158  17.338  0.00  0.00    +0.000 A 
ATOM     10  C   UNL     1       5.258   7.094  17.714  0.00  0.00    +0.000 A 
ATOM     11  C   UNL     1       6.569   7.003  17.234  0.00  0.00    +0.000 A 
ATOM     12 BR   UNL     1       7.851   8.281  17.783  0.00  0.00    +0.000 Br
ATOM     13  C   UNL     1       6.947   5.983  16.365  0.00  0.00    +0.000 A 
ATOM     14  C   UNL     1       5.998   5.051  15.972  0.00  0.00    +0.000 A 
ATOM     15 BR   UNL     1       6.518   3.667  14.781  0.00  0.00    +0.000 Br
ATOM     16  C   UNL     1       4.675   5.132  16.450  0.00  0.00    +0.000 A 
BRANCH  16  17
ATOM     17  O   UNL     1       3.741   4.208  16.065  0.00  0.00    +0.000 OA
ATOM     18  H   UNL     1       3.288   3.892  16.881  0.00  0.00    +0.000 HD
ENDBRANCH  16  17
ENDBRANCH   7   9
BRANCH   5  19
ATOM     19  C   UNL     1       1.262   9.146  19.765  0.00  0.00    +0.000 C 
BRANCH  19  20
ATOM     20  N   UNL     1       0.223  10.157  19.447  0.00  0.00    +0.000 NA
ATOM     21  C   UNL     1      -0.752  10.260  20.564  0.00  0.00    +0.000 C 
ATOM     22  C   UNL     1      -0.205  10.928  21.855  0.00  0.00    +0.000 C 
ATOM     23  N   UNL     1       0.499  12.199  21.630  0.00  0.00    +0.000 NA
ATOM     24  C   UNL     1       1.441  12.096  20.508  0.00  0.00    +0.000 C 
ATOM     25  C   UNL     1       0.783  11.507  19.245  0.00  0.00    +0.000 C 
ATOM     26  H   UNL     1       1.005  12.463  22.474  0.00  0.00    +0.000 HD
ENDBRANCH  19  20
ENDBRANCH   5  19
TORSDOF 4
ENDMDL
MODEL 7
REMARK VINA RESULT:      -7.0      3.219      6.834
REMARK  Name = 
REMARK  5 active torsions:
REMARK  status: ('A' for Active; 'I' for Inactive)
REMARK    1  A    between atoms: C_1  and  C_2
REMARK    2  A    between atoms: C_5  and  C_7
REMARK    3  A    between atoms: C_7  and  N_8
REMARK    4  A    between atoms: C_14  and  C_15
REMARK    5  A    between atoms: C_22  and  O_23
REMARK                            x       y       z     vdW  Elec       q    Type
REMARK                         _______ _______ _______ _____ _____    ______ ____
ROOT
ATOM      1  C   UNL     1       0.369   2.873  18.734  0.00  0.00    +0.000 C 
ATOM      2  C   UNL     1       1.362   3.887  19.181  0.00  0.00    +0.000 C 
ATOM      3  N   UNL     1       2.351   4.244  18.430  0.00  0.00    +0.000 NA
ATOM      4  N   UNL     1       3.116   5.095  19.187  0.00  0.00    +0.000 N 
ATOM      5  C   UNL     1       4.505   5.100  19.020  0.00  0.00    +0.000 C 
ATOM      6  O   UNL     1       5.239   5.800  19.713  0.00  0.00    +0.000 OA
ATOM      7  C   UNL     1       2.448   5.515  20.435  0.00  0.00    +0.000 C 
ATOM      8  C   UNL     1       1.375   4.432  20.577  0.00  0.00    +0.000 C 
ENDROOT
BRANCH   7   9
ATOM      9  C   UNL     1       1.856   6.922  20.424  0.00  0.00    +0.000 A 
ATOM     10  C   UNL     1       1.103   7.421  21.496  0.00  0.00    +0.000 A 
ATOM     11  C   UNL     1       0.564   8.712  21.459  0.00  0.00    +0.000 A 
ATOM     12 BR   UNL     1      -0.433   9.345  22.937  0.00  0.00    +0.000 Br
ATOM     13  C   UNL     1       0.756   9.540  20.356  0.00  0.00    +0.000 A 
ATOM     14  C   UNL     1       1.491   9.064  19.280  0.00  0.00    +0.000 A 
ATOM     15 BR   UNL     1       1.743  10.195  17.777  0.00  0.00    +0.000 Br
ATOM     16  C   UNL     1       2.039   7.766  19.307  0.00  0.00    +0.000 A 
BRANCH  16  17
ATOM     17  O   UNL     1       2.768   7.300  18.247  0.00  0.00    +0.000 OA
ATOM     18  H   UNL     1       2.834   8.033  17.591  0.00  0.00    +0.000 HD
ENDBRANCH  16  17
ENDBRANCH   7   9
BRANCH   5  19
ATOM     19  C   UNL     1       4.980   4.090  17.940  0.00  0.00    +0.000 C 
BRANCH  19  20
ATOM     20  N   UNL     1       4.821   4.534  16.533  0.00  0.00    +0.000 NA
ATOM     21  C   UNL     1       5.051   5.999  16.427  0.00  0.00    +0.000 C 
ATOM     22  C   UNL     1       6.525   6.449  16.618  0.00  0.00    +0.000 C 
ATOM     23  N   UNL     1       7.500   5.688  15.823  0.00  0.00    +0.000 NA
ATOM     24  C   UNL     1       7.250   4.243  15.913  0.00  0.00    +0.000 C 
ATOM     25  C   UNL     1       5.780   3.886  15.618  0.00  0.00    +0.000 C 
ATOM     26  H   UNL     1       8.442   5.889  16.155  0.00  0.00    +0.000 HD
ENDBRANCH  19  20
ENDBRANCH   5  19
TORSDOF 4
ENDMDL
MODEL 8
REMARK VINA RESULT:      -7.0      1.132      1.565
REMARK  Name = 
REMARK  5 active torsions:
REMARK  status: ('A' for Active; 'I' for Inactive)
REMARK    1  A    between atoms: C_1  and  C_2
REMARK    2  A    between atoms: C_5  and  C_7
REMARK    3  A    between atoms: C_7  and  N_8
REMARK    4  A    between atoms: C_14  and  C_15
REMARK    5  A    between atoms: C_22  and  O_23
REMARK                            x       y       z     vdW  Elec       q    Type
REMARK                         _______ _______ _______ _____ _____    ______ ____
ROOT
ATOM      1  C   UNL     1       1.453   4.115  20.883  0.00  0.00    +0.000 C 
ATOM      2  C   UNL     1       1.963   4.998  19.799  0.00  0.00    +0.000 C 
ATOM      3  N   UNL     1       2.182   6.256  19.998  0.00  0.00    +0.000 NA
ATOM      4  N   UNL     1       2.533   6.778  18.779  0.00  0.00    +0.000 N 
ATOM      5  C   UNL     1       2.156   8.087  18.460  0.00  0.00    +0.000 C 
ATOM      6  O   UNL     1       2.395   8.581  17.359  0.00  0.00    +0.000 OA
ATOM      7  C   UNL     1       2.799   5.741  17.762  0.00  0.00    +0.000 C 
ATOM      8  C   UNL     1       2.099   4.530  18.383  0.00  0.00    +0.000 C 
ENDROOT
BRANCH   7   9
ATOM      9  C   UNL     1       4.272   5.471  17.466  0.00  0.00    +0.000 A 
ATOM     10  C   UNL     1       4.718   5.088  16.194  0.00  0.00    +0.000 A 
ATOM     11  C   UNL     1       6.074   4.839  15.949  0.00  0.00    +0.000 A 
ATOM     12 BR   UNL     1       6.628   4.339  14.211  0.00  0.00    +0.000 Br
ATOM     13  C   UNL     1       7.021   4.960  16.963  0.00  0.00    +0.000 A 
ATOM     14  C   UNL     1       6.602   5.330  18.232  0.00  0.00    +0.000 A 
ATOM     15 BR   UNL     1       7.896   5.487  19.611  0.00  0.00    +0.000 Br
ATOM     16  C   UNL     1       5.240   5.584  18.489  0.00  0.00    +0.000 A 
BRANCH  16  17
ATOM     17  O   UNL     1       4.828   5.954  19.741  0.00  0.00    +0.000 OA
ATOM     18  H   UNL     1       5.610   6.329  20.208  0.00  0.00    +0.000 HD
ENDBRANCH  16  17
ENDBRANCH   7   9
BRANCH   5  19
ATOM     19  C   UNL     1       1.365   8.776  19.604  0.00  0.00    +0.000 C 
BRANCH  19  20
ATOM     20  N   UNL     1       1.383  10.261  19.592  0.00  0.00    +0.000 NA
ATOM     21  C   UNL     1       0.364  10.780  18.644  0.00  0.00    +0.000 C 
ATOM     22  C   UNL     1      -1.110  10.598  19.097  0.00  0.00    +0.000 C 
ATOM     23  N   UNL     1      -1.380  11.033  20.476  0.00  0.00    +0.000 NA
ATOM     24  C   UNL     1      -0.354  10.537  21.402  0.00  0.00    +0.000 C 
ATOM     25  C   UNL     1       1.075  10.846  20.911  0.00  0.00    +0.000 C 
ATOM     26  H   UNL     1      -2.294  10.692  20.769  0.00  0.00    +0.000 HD
ENDBRANCH  19  20
ENDBRANCH   5  19
TORSDOF 4
ENDMDL
MODEL 9
REMARK VINA RESULT:      -6.9      4.350      7.836
REMARK  Name = 
REMARK  5 active torsions:
REMARK  status: ('A' for Active; 'I' for Inactive)
REMARK    1  A    between atoms: C_1  and  C_2
REMARK    2  A    between atoms: C_5  and  C_7
REMARK    3  A    between atoms: C_7  and  N_8
REMARK    4  A    between atoms: C_14  and  C_15
REMARK    5  A    between atoms: C_22  and  O_23
REMARK                            x       y       z     vdW  Elec       q    Type
REMARK                         _______ _______ _______ _____ _____    ______ ____
ROOT
ATOM      1  C   UNL     1       0.632   9.280  22.963  0.00  0.00    +0.000 C 
ATOM      2  C   UNL     1       0.678   9.544  21.499  0.00  0.00    +0.000 C 
ATOM      3  N   UNL     1       0.897   8.598  20.647  0.00  0.00    +0.000 NA
ATOM      4  N   UNL     1       0.983   9.203  19.419  0.00  0.00    +0.000 N 
ATOM      5  C   UNL     1       1.858   8.684  18.459  0.00  0.00    +0.000 C 
ATOM      6  O   UNL     1       2.015   9.224  17.366  0.00  0.00    +0.000 OA
ATOM      7  C   UNL     1       0.546  10.613  19.440  0.00  0.00    +0.000 C 
ATOM      8  C   UNL     1       0.638  10.931  20.934  0.00  0.00    +0.000 C 
ENDROOT
BRANCH   7   9
ATOM      9  C   UNL     1      -0.847  10.880  18.874  0.00  0.00    +0.000 A 
ATOM     10  C   UNL     1      -1.252  10.383  17.628  0.00  0.00    +0.000 A 
ATOM     11  C   UNL     1      -2.533  10.647  17.129  0.00  0.00    +0.000 A 
ATOM     12 BR   UNL     1      -3.039   9.942  15.448  0.00  0.00    +0.000 Br
ATOM     13  C   UNL     1      -3.442  11.415  17.851  0.00  0.00    +0.000 A 
ATOM     14  C   UNL     1      -3.060  11.925  19.083  0.00  0.00    +0.000 A 
ATOM     15 BR   UNL     1      -4.301  12.976  20.061  0.00  0.00    +0.000 Br
ATOM     16  C   UNL     1      -1.773  11.664  19.597  0.00  0.00    +0.000 A 
BRANCH  16  17
ATOM     17  O   UNL     1      -1.399  12.163  20.815  0.00  0.00    +0.000 OA
ATOM     18  H   UNL     1      -2.219  12.455  21.277  0.00  0.00    +0.000 HD
ENDBRANCH  16  17
ENDBRANCH   7   9
BRANCH   5  19
ATOM     19  C   UNL     1       2.627   7.434  18.965  0.00  0.00    +0.000 C 
BRANCH  19  20
ATOM     20  N   UNL     1       2.805   6.345  17.972  0.00  0.00    +0.000 NA
ATOM     21  C   UNL     1       4.251   6.116  17.714  0.00  0.00    +0.000 C 
ATOM     22  C   UNL     1       5.030   5.456  18.884  0.00  0.00    +0.000 C 
ATOM     23  N   UNL     1       4.384   4.261  19.447  0.00  0.00    +0.000 NA
ATOM     24  C   UNL     1       2.950   4.488  19.674  0.00  0.00    +0.000 C 
ATOM     25  C   UNL     1       2.245   5.059  18.428  0.00  0.00    +0.000 C 
ATOM     26  H   UNL     1       4.831   4.014  20.328  0.00  0.00    +0.000 HD
ENDBRANCH  19  20
ENDBRANCH   5  19
TORSDOF 4
ENDMDL
