MODEL 1
REMARK VINA RESULT:      -8.8      0.000      0.000
REMARK  Name = 
REMARK  4 active torsions:
REMARK  status: ('A' for Active; 'I' for Inactive)
REMARK    1  A    between atoms: C_5  and  N_6
REMARK    2  A    between atoms: N_6  and  C_7
REMARK    3  A    between atoms: N_18  and  C_19
REMARK    4  A    between atoms: C_19  and  C_20
REMARK                            x       y       z     vdW  Elec       q    Type
REMARK                         _______ _______ _______ _____ _____    ______ ____
ROOT
ATOM      1  C   UNL     1       2.300   6.243  19.825  0.00  0.00    +0.000 A 
ATOM      2  N   UNL     1       1.345   5.642  20.580  0.00  0.00    +0.000 NA
ATOM      3  C   UNL     1       1.464   4.349  20.898  0.00  0.00    +0.000 A 
ATOM      4  N   UNL     1       2.451   3.527  20.554  0.00  0.00    +0.000 NA
ATOM      5  C   UNL     1       3.379   4.132  19.797  0.00  0.00    +0.000 A 
ATOM      6  S   UNL     1       4.714   3.238  19.233  0.00  0.00    +0.000 S 
ATOM      7  C   UNL     1       5.322   4.578  18.398  0.00  0.00    +0.000 A 
ATOM      8  C   UNL     1       4.565   5.723  18.581  0.00  0.00    +0.000 A 
ATOM      9  C   UNL     1       3.390   5.461  19.383  0.00  0.00    +0.000 A 
ATOM     10  C   UNL     1       4.968   7.002  17.895  0.00  0.00    +0.000 C 
ATOM     11  C   UNL     1       6.320   6.860  17.142  0.00  0.00    +0.000 C 
ATOM     12  N   UNL     1       6.549   5.544  16.496  0.00  0.00    +0.000 NA
ATOM     13  C   UNL     1       6.551   4.494  17.543  0.00  0.00    +0.000 C 
ENDROOT
BRANCH   1  14
ATOM     14  N   UNL     1       2.140   7.605  19.515  0.00  0.00    +0.000 N 
ATOM     15  H   UNL     1       2.948   8.033  19.094  0.00  0.00    +0.000 HD
BRANCH  14  20
ATOM     16 BR   UNL     1      -1.124  11.653  22.712  0.00  0.00    +0.000 Br
ATOM     17  C   UNL     1      -0.108  10.404  21.724  0.00  0.00    +0.000 A 
ATOM     18  C   UNL     1       0.617   9.424  22.395  0.00  0.00    +0.000 A 
ATOM     19  C   UNL     1       1.355   8.494  21.666  0.00  0.00    +0.000 A 
ATOM     20  C   UNL     1       1.390   8.533  20.266  0.00  0.00    +0.000 A 
ATOM     21  C   UNL     1       0.668   9.536  19.607  0.00  0.00    +0.000 A 
ATOM     22  C   UNL     1      -0.087  10.464  20.332  0.00  0.00    +0.000 A 
ENDBRANCH  14  20
ENDBRANCH   1  14
BRANCH  12  23
ATOM     23  C   UNL     1       5.541   5.309  15.441  0.00  0.00    +0.000 C 
BRANCH  23  24
ATOM     24  C   UNL     1       6.074   4.724  14.153  0.00  0.00    +0.000 A 
ATOM     25  C   UNL     1       5.332   3.750  13.464  0.00  0.00    +0.000 A 
ATOM     26  C   UNL     1       5.786   3.244  12.246  0.00  0.00    +0.000 A 
ATOM     27  C   UNL     1       6.985   3.703  11.706  0.00  0.00    +0.000 A 
ATOM     28  C   UNL     1       7.738   4.659  12.389  0.00  0.00    +0.000 A 
ATOM     29  C   UNL     1       7.286   5.167  13.608  0.00  0.00    +0.000 A 
ENDBRANCH  23  24
ENDBRANCH  12  23
TORSDOF 4
ENDMDL
MODEL 2
REMARK VINA RESULT:      -8.7      0.098      1.292
REMARK  Name = 
REMARK  4 active torsions:
REMARK  status: ('A' for Active; 'I' for Inactive)
REMARK    1  A    between atoms: C_5  and  N_6
REMARK    2  A    between atoms: N_6  and  C_7
REMARK    3  A    between atoms: N_18  and  C_19
REMARK    4  A    between atoms: C_19  and  C_20
REMARK                            x       y       z     vdW  Elec       q    Type
REMARK                         _______ _______ _______ _____ _____    ______ ____
ROOT
ATOM      1  C   UNL     1       2.295   6.209  19.847  0.00  0.00    +0.000 A 
ATOM      2  N   UNL     1       1.361   5.623  20.639  0.00  0.00    +0.000 NA
ATOM      3  C   UNL     1       1.494   4.340  20.989  0.00  0.00    +0.000 A 
ATOM      4  N   UNL     1       2.477   3.514  20.644  0.00  0.00    +0.000 NA
ATOM      5  C   UNL     1       3.385   4.103  19.851  0.00  0.00    +0.000 A 
ATOM      6  S   UNL     1       4.712   3.201  19.282  0.00  0.00    +0.000 S 
ATOM      7  C   UNL     1       5.294   4.521  18.399  0.00  0.00    +0.000 A 
ATOM      8  C   UNL     1       4.535   5.667  18.568  0.00  0.00    +0.000 A 
ATOM      9  C   UNL     1       3.380   5.421  19.402  0.00  0.00    +0.000 A 
ATOM     10  C   UNL     1       4.917   6.928  17.839  0.00  0.00    +0.000 C 
ATOM     11  C   UNL     1       6.252   6.774  17.061  0.00  0.00    +0.000 C 
ATOM     12  N   UNL     1       6.474   5.441  16.445  0.00  0.00    +0.000 NA
ATOM     13  C   UNL     1       6.505   4.420  17.519  0.00  0.00    +0.000 C 
ENDROOT
BRANCH   1  14
ATOM     14  N   UNL     1       2.121   7.561  19.504  0.00  0.00    +0.000 N 
ATOM     15  H   UNL     1       2.922   7.984  19.065  0.00  0.00    +0.000 HD
BRANCH  14  20
ATOM     16 BR   UNL     1      -1.107  11.605  22.742  0.00  0.00    +0.000 Br
ATOM     17  C   UNL     1      -0.115  10.350  21.737  0.00  0.00    +0.000 A 
ATOM     18  C   UNL     1      -0.040  10.481  20.355  0.00  0.00    +0.000 A 
ATOM     19  C   UNL     1       0.704   9.564  19.616  0.00  0.00    +0.000 A 
ATOM     20  C   UNL     1       1.372   8.502  20.240  0.00  0.00    +0.000 A 
ATOM     21  C   UNL     1       1.273   8.375  21.631  0.00  0.00    +0.000 A 
ATOM     22  C   UNL     1       0.540   9.301  22.381  0.00  0.00    +0.000 A 
ENDBRANCH  14  20
ENDBRANCH   1  14
BRANCH  12  23
ATOM     23  C   UNL     1       5.445   5.173  15.419  0.00  0.00    +0.000 C 
BRANCH  23  24
ATOM     24  C   UNL     1       5.965   4.657  14.097  0.00  0.00    +0.000 A 
ATOM     25  C   UNL     1       7.221   5.073  13.626  0.00  0.00    +0.000 A 
ATOM     26  C   UNL     1       7.735   4.561  12.434  0.00  0.00    +0.000 A 
ATOM     27  C   UNL     1       7.001   3.631  11.702  0.00  0.00    +0.000 A 
ATOM     28  C   UNL     1       5.746   3.222  12.153  0.00  0.00    +0.000 A 
ATOM     29  C   UNL     1       5.228   3.733  13.345  0.00  0.00    +0.000 A 
ENDBRANCH  23  24
ENDBRANCH  12  23
TORSDOF 4
ENDMDL
MODEL 3
REMARK VINA RESULT:      -8.6      1.231      1.853
REMARK  Name = 
REMARK  4 active torsions:
REMARK  status: ('A' for Active; 'I' for Inactive)
REMARK    1  A    between atoms: C_5  and  N_6
REMARK    2  A    between atoms: N_6  and  C_7
REMARK    3  A    between atoms: N_18  and  C_19
REMARK    4  A    between atoms: C_19  and  C_20
REMARK                            x       y       z     vdW  Elec       q    Type
REMARK                         _______ _______ _______ _____ _____    ______ ____
ROOT
ATOM      1  C   UNL     1       2.326   5.593  20.070  0.00  0.00    +0.000 A 
ATOM      2  N   UNL     1       1.142   5.048  20.451  0.00  0.00    +0.000 NA
ATOM      3  C   UNL     1       0.887   3.762  20.191  0.00  0.00    +0.000 A 
ATOM      4  N   UNL     1       1.684   2.896  19.573  0.00  0.00    +0.000 NA
ATOM      5  C   UNL     1       2.843   3.452  19.191  0.00  0.00    +0.000 A 
ATOM      6  S   UNL     1       3.992   2.510  18.359  0.00  0.00    +0.000 S 
ATOM      7  C   UNL     1       5.039   3.830  18.207  0.00  0.00    +0.000 A 
ATOM      8  C   UNL     1       4.566   4.974  18.827  0.00  0.00    +0.000 A 
ATOM      9  C   UNL     1       3.248   4.770  19.386  0.00  0.00    +0.000 A 
ATOM     10  C   UNL     1       5.378   6.241  18.772  0.00  0.00    +0.000 C 
ATOM     11  C   UNL     1       6.759   6.023  18.093  0.00  0.00    +0.000 C 
ATOM     12  N   UNL     1       6.760   5.068  16.957  0.00  0.00    +0.000 NA
ATOM     13  C   UNL     1       6.333   3.737  17.454  0.00  0.00    +0.000 C 
ENDROOT
BRANCH   1  14
ATOM     14  N   UNL     1       2.558   6.947  20.365  0.00  0.00    +0.000 N 
ATOM     15  H   UNL     1       2.921   7.115  21.289  0.00  0.00    +0.000 HD
BRANCH  14  20
ATOM     16 BR   UNL     1      -0.836  11.642  18.440  0.00  0.00    +0.000 Br
ATOM     17  C   UNL     1       0.210  10.184  19.032  0.00  0.00    +0.000 A 
ATOM     18  C   UNL     1       1.081   9.558  18.146  0.00  0.00    +0.000 A 
ATOM     19  C   UNL     1       1.863   8.493  18.587  0.00  0.00    +0.000 A 
ATOM     20  C   UNL     1       1.780   8.030  19.906  0.00  0.00    +0.000 A 
ATOM     21  C   UNL     1       0.886   8.661  20.781  0.00  0.00    +0.000 A 
ATOM     22  C   UNL     1       0.108   9.741  20.350  0.00  0.00    +0.000 A 
ENDBRANCH  14  20
ENDBRANCH   1  14
BRANCH  12  23
ATOM     23  C   UNL     1       5.913   5.576  15.858  0.00  0.00    +0.000 C 
BRANCH  23  24
ATOM     24  C   UNL     1       6.185   4.977  14.498  0.00  0.00    +0.000 A 
ATOM     25  C   UNL     1       7.354   5.321  13.800  0.00  0.00    +0.000 A 
ATOM     26  C   UNL     1       7.644   4.732  12.569  0.00  0.00    +0.000 A 
ATOM     27  C   UNL     1       6.768   3.798  12.022  0.00  0.00    +0.000 A 
ATOM     28  C   UNL     1       5.596   3.460  12.699  0.00  0.00    +0.000 A 
ATOM     29  C   UNL     1       5.303   4.048  13.931  0.00  0.00    +0.000 A 
ENDBRANCH  23  24
ENDBRANCH  12  23
TORSDOF 4
ENDMDL
MODEL 4
REMARK VINA RESULT:      -8.6      1.211      1.420
REMARK  Name = 
REMARK  4 active torsions:
REMARK  status: ('A' for Active; 'I' for Inactive)
REMARK    1  A    between atoms: C_5  and  N_6
REMARK    2  A    between atoms: N_6  and  C_7
REMARK    3  A    between atoms: N_18  and  C_19
REMARK    4  A    between atoms: C_19  and  C_20
REMARK                            x       y       z     vdW  Elec       q    Type
REMARK                         _______ _______ _______ _____ _____    ______ ____
ROOT
ATOM      1  C   UNL     1       2.343   5.668  20.067  0.00  0.00    +0.000 A 
ATOM      2  N   UNL     1       1.160   5.123  20.450  0.00  0.00    +0.000 NA
ATOM      3  C   UNL     1       0.917   3.830  20.219  0.00  0.00    +0.000 A 
ATOM      4  N   UNL     1       1.726   2.955  19.629  0.00  0.00    +0.000 NA
ATOM      5  C   UNL     1       2.886   3.511  19.245  0.00  0.00    +0.000 A 
ATOM      6  S   UNL     1       4.049   2.557  18.448  0.00  0.00    +0.000 S 
ATOM      7  C   UNL     1       5.088   3.881  18.273  0.00  0.00    +0.000 A 
ATOM      8  C   UNL     1       4.601   5.036  18.861  0.00  0.00    +0.000 A 
ATOM      9  C   UNL     1       3.279   4.836  19.412  0.00  0.00    +0.000 A 
ATOM     10  C   UNL     1       5.404   6.308  18.783  0.00  0.00    +0.000 C 
ATOM     11  C   UNL     1       6.793   6.084  18.123  0.00  0.00    +0.000 C 
ATOM     12  N   UNL     1       6.812   5.102  17.010  0.00  0.00    +0.000 NA
ATOM     13  C   UNL     1       6.390   3.781  17.535  0.00  0.00    +0.000 C 
ENDROOT
BRANCH   1  14
ATOM     14  N   UNL     1       2.563   7.031  20.331  0.00  0.00    +0.000 N 
ATOM     15  H   UNL     1       2.978   7.219  21.229  0.00  0.00    +0.000 HD
BRANCH  14  20
ATOM     16 BR   UNL     1      -0.998  11.614  18.440  0.00  0.00    +0.000 Br
ATOM     17  C   UNL     1       0.109  10.201  19.029  0.00  0.00    +0.000 A 
ATOM     18  C   UNL     1       0.043   9.782  20.353  0.00  0.00    +0.000 A 
ATOM     19  C   UNL     1       0.848   8.730  20.784  0.00  0.00    +0.000 A 
ATOM     20  C   UNL     1       1.735   8.091  19.908  0.00  0.00    +0.000 A 
ATOM     21  C   UNL     1       1.801   8.535  18.581  0.00  0.00    +0.000 A 
ATOM     22  C   UNL     1       0.985   9.581  18.138  0.00  0.00    +0.000 A 
ENDBRANCH  14  20
ENDBRANCH   1  14
BRANCH  12  23
ATOM     23  C   UNL     1       5.972   5.577  15.892  0.00  0.00    +0.000 C 
BRANCH  23  24
ATOM     24  C   UNL     1       6.266   4.953  14.547  0.00  0.00    +0.000 A 
ATOM     25  C   UNL     1       5.378   4.013  14.000  0.00  0.00    +0.000 A 
ATOM     26  C   UNL     1       5.610   3.471  12.735  0.00  0.00    +0.000 A 
ATOM     27  C   UNL     1       6.732   3.860  12.008  0.00  0.00    +0.000 A 
ATOM     28  C   UNL     1       7.629   4.782  12.548  0.00  0.00    +0.000 A 
ATOM     29  C   UNL     1       7.399   5.325  13.813  0.00  0.00    +0.000 A 
ENDBRANCH  23  24
ENDBRANCH  12  23
TORSDOF 4
ENDMDL
MODEL 5
REMARK VINA RESULT:      -8.3      1.013      1.492
REMARK  Name = 
REMARK  4 active torsions:
REMARK  status: ('A' for Active; 'I' for Inactive)
REMARK    1  A    between atoms: C_5  and  N_6
REMARK    2  A    between atoms: N_6  and  C_7
REMARK    3  A    between atoms: N_18  and  C_19
REMARK    4  A    between atoms: C_19  and  C_20
REMARK                            x       y       z     vdW  Elec       q    Type
REMARK                         _______ _______ _______ _____ _____    ______ ____
ROOT
ATOM      1  C   UNL     1       2.518   6.498  19.772  0.00  0.00    +0.000 A 
ATOM      2  N   UNL     1       1.465   6.010  20.477  0.00  0.00    +0.000 NA
ATOM      3  C   UNL     1       1.376   4.698  20.717  0.00  0.00    +0.000 A 
ATOM      4  N   UNL     1       2.230   3.754  20.336  0.00  0.00    +0.000 NA
ATOM      5  C   UNL     1       3.257   4.250  19.629  0.00  0.00    +0.000 A 
ATOM      6  S   UNL     1       4.450   3.193  19.028  0.00  0.00    +0.000 S 
ATOM      7  C   UNL     1       5.277   4.469  18.285  0.00  0.00    +0.000 A 
ATOM      8  C   UNL     1       4.702   5.705  18.527  0.00  0.00    +0.000 A 
ATOM      9  C   UNL     1       3.484   5.583  19.297  0.00  0.00    +0.000 A 
ATOM     10  C   UNL     1       5.313   6.942  17.925  0.00  0.00    +0.000 C 
ATOM     11  C   UNL     1       6.643   6.636  17.183  0.00  0.00    +0.000 C 
ATOM     12  N   UNL     1       6.680   5.340  16.460  0.00  0.00    +0.000 NA
ATOM     13  C   UNL     1       6.496   4.243  17.442  0.00  0.00    +0.000 C 
ENDROOT
BRANCH   1  14
ATOM     14  N   UNL     1       2.577   7.884  19.543  0.00  0.00    +0.000 N 
ATOM     15  H   UNL     1       3.325   8.353  20.028  0.00  0.00    +0.000 HD
BRANCH  14  20
ATOM     16 BR   UNL     1      -2.238  11.557  18.785  0.00  0.00    +0.000 Br
ATOM     17  C   UNL     1      -0.752  10.414  19.017  0.00  0.00    +0.000 A 
ATOM     18  C   UNL     1      -0.078   9.927  17.902  0.00  0.00    +0.000 A 
ATOM     19  C   UNL     1       1.026   9.096  18.074  0.00  0.00    +0.000 A 
ATOM     20  C   UNL     1       1.467   8.731  19.353  0.00  0.00    +0.000 A 
ATOM     21  C   UNL     1       0.768   9.217  20.465  0.00  0.00    +0.000 A 
ATOM     22  C   UNL     1      -0.334  10.064  20.300  0.00  0.00    +0.000 A 
ENDBRANCH  14  20
ENDBRANCH   1  14
BRANCH  12  23
ATOM     23  C   UNL     1       5.671   5.326  15.380  0.00  0.00    +0.000 C 
BRANCH  23  24
ATOM     24  C   UNL     1       6.122   4.705  14.078  0.00  0.00    +0.000 A 
ATOM     25  C   UNL     1       5.314   3.751  13.439  0.00  0.00    +0.000 A 
ATOM     26  C   UNL     1       5.694   3.212  12.209  0.00  0.00    +0.000 A 
ATOM     27  C   UNL     1       6.882   3.618  11.609  0.00  0.00    +0.000 A 
ATOM     28  C   UNL     1       7.700   4.554  12.242  0.00  0.00    +0.000 A 
ATOM     29  C   UNL     1       7.324   5.095  13.473  0.00  0.00    +0.000 A 
ENDBRANCH  23  24
ENDBRANCH  12  23
TORSDOF 4
ENDMDL
MODEL 6
REMARK VINA RESULT:      -8.3      1.016      1.550
REMARK  Name = 
REMARK  4 active torsions:
REMARK  status: ('A' for Active; 'I' for Inactive)
REMARK    1  A    between atoms: C_5  and  N_6
REMARK    2  A    between atoms: N_6  and  C_7
REMARK    3  A    between atoms: N_18  and  C_19
REMARK    4  A    between atoms: C_19  and  C_20
REMARK                            x       y       z     vdW  Elec       q    Type
REMARK                         _______ _______ _______ _____ _____    ______ ____
ROOT
ATOM      1  C   UNL     1       2.501   6.469  19.767  0.00  0.00    +0.000 A 
ATOM      2  N   UNL     1       1.457   5.977  20.482  0.00  0.00    +0.000 NA
ATOM      3  C   UNL     1       1.366   4.664  20.711  0.00  0.00    +0.000 A 
ATOM      4  N   UNL     1       2.211   3.720  20.309  0.00  0.00    +0.000 NA
ATOM      5  C   UNL     1       3.230   4.219  19.593  0.00  0.00    +0.000 A 
ATOM      6  S   UNL     1       4.411   3.164  18.966  0.00  0.00    +0.000 S 
ATOM      7  C   UNL     1       5.232   4.443  18.223  0.00  0.00    +0.000 A 
ATOM      8  C   UNL     1       4.665   5.679  18.485  0.00  0.00    +0.000 A 
ATOM      9  C   UNL     1       3.457   5.554  19.270  0.00  0.00    +0.000 A 
ATOM     10  C   UNL     1       5.273   6.920  17.886  0.00  0.00    +0.000 C 
ATOM     11  C   UNL     1       6.591   6.616  17.122  0.00  0.00    +0.000 C 
ATOM     12  N   UNL     1       6.613   5.326  16.388  0.00  0.00    +0.000 NA
ATOM     13  C   UNL     1       6.439   4.221  17.361  0.00  0.00    +0.000 C 
ENDROOT
BRANCH   1  14
ATOM     14  N   UNL     1       2.563   7.856  19.550  0.00  0.00    +0.000 N 
ATOM     15  H   UNL     1       3.319   8.318  20.029  0.00  0.00    +0.000 HD
BRANCH  14  20
ATOM     16 BR   UNL     1      -2.235  11.547  18.767  0.00  0.00    +0.000 Br
ATOM     17  C   UNL     1      -0.746  10.411  19.012  0.00  0.00    +0.000 A 
ATOM     18  C   UNL     1      -0.360  10.051  20.299  0.00  0.00    +0.000 A 
ATOM     19  C   UNL     1       0.729   9.201  20.478  0.00  0.00    +0.000 A 
ATOM     20  C   UNL     1       1.453   8.709  19.384  0.00  0.00    +0.000 A 
ATOM     21  C   UNL     1       1.061   9.093  18.096  0.00  0.00    +0.000 A 
ATOM     22  C   UNL     1      -0.041   9.935  17.907  0.00  0.00    +0.000 A 
ENDBRANCH  14  20
ENDBRANCH   1  14
BRANCH  12  23
ATOM     23  C   UNL     1       5.590   5.326  15.322  0.00  0.00    +0.000 C 
BRANCH  23  24
ATOM     24  C   UNL     1       6.018   4.709  14.010  0.00  0.00    +0.000 A 
ATOM     25  C   UNL     1       7.237   5.086  13.422  0.00  0.00    +0.000 A 
ATOM     26  C   UNL     1       7.669   4.483  12.240  0.00  0.00    +0.000 A 
ATOM     27  C   UNL     1       6.889   3.502  11.635  0.00  0.00    +0.000 A 
ATOM     28  C   UNL     1       5.670   3.130  12.202  0.00  0.00    +0.000 A 
ATOM     29  C   UNL     1       5.234   3.732  13.384  0.00  0.00    +0.000 A 
ENDBRANCH  23  24
ENDBRANCH  12  23
TORSDOF 4
ENDMDL
MODEL 7
REMARK VINA RESULT:      -7.8      7.806     12.246
REMARK  Name = 
REMARK  4 active torsions:
REMARK  status: ('A' for Active; 'I' for Inactive)
REMARK    1  A    between atoms: C_5  and  N_6
REMARK    2  A    between atoms: N_6  and  C_7
REMARK    3  A    between atoms: N_18  and  C_19
REMARK    4  A    between atoms: C_19  and  C_20
REMARK                            x       y       z     vdW  Elec       q    Type
REMARK                         _______ _______ _______ _____ _____    ______ ____
ROOT
ATOM      1  C   UNL     1       0.221  12.772  21.591  0.00  0.00    +0.000 A 
ATOM      2  N   UNL     1       1.358  13.324  21.096  0.00  0.00    +0.000 NA
ATOM      3  C   UNL     1       1.734  14.544  21.492  0.00  0.00    +0.000 A 
ATOM      4  N   UNL     1       1.105  15.334  22.358  0.00  0.00    +0.000 NA
ATOM      5  C   UNL     1      -0.023  14.781  22.828  0.00  0.00    +0.000 A 
ATOM      6  S   UNL     1      -0.985  15.649  23.933  0.00  0.00    +0.000 S 
ATOM      7  C   UNL     1      -2.130  14.405  23.989  0.00  0.00    +0.000 A 
ATOM      8  C   UNL     1      -1.776  13.304  23.228  0.00  0.00    +0.000 A 
ATOM      9  C   UNL     1      -0.543  13.530  22.508  0.00  0.00    +0.000 A 
ATOM     10  C   UNL     1      -2.698  12.114  23.164  0.00  0.00    +0.000 C 
ATOM     11  C   UNL     1      -3.917  12.266  24.116  0.00  0.00    +0.000 C 
ATOM     12  N   UNL     1      -4.458  13.643  24.234  0.00  0.00    +0.000 NA
ATOM     13  C   UNL     1      -3.398  14.525  24.781  0.00  0.00    +0.000 C 
ENDROOT
BRANCH   1  14
ATOM     14  N   UNL     1      -0.139  11.486  21.153  0.00  0.00    +0.000 N 
ATOM     15  H   UNL     1       0.499  10.758  21.433  0.00  0.00    +0.000 HD
BRANCH  14  20
ATOM     16 BR   UNL     1      -2.813  10.138  15.834  0.00  0.00    +0.000 Br
ATOM     17  C   UNL     1      -1.983  10.562  17.477  0.00  0.00    +0.000 A 
ATOM     18  C   UNL     1      -2.556  11.517  18.311  0.00  0.00    +0.000 A 
ATOM     19  C   UNL     1      -1.952  11.818  19.529  0.00  0.00    +0.000 A 
ATOM     20  C   UNL     1      -0.767  11.185  19.927  0.00  0.00    +0.000 A 
ATOM     21  C   UNL     1      -0.194  10.238  19.069  0.00  0.00    +0.000 A 
ATOM     22  C   UNL     1      -0.804   9.919  17.851  0.00  0.00    +0.000 A 
ENDBRANCH  14  20
ENDBRANCH   1  14
BRANCH  12  23
ATOM     23  C   UNL     1      -4.979  14.103  22.931  0.00  0.00    +0.000 C 
BRANCH  23  24
ATOM     24  C   UNL     1      -5.856  13.115  22.197  0.00  0.00    +0.000 A 
ATOM     25  C   UNL     1      -7.071  12.697  22.765  0.00  0.00    +0.000 A 
ATOM     26  C   UNL     1      -7.915  11.829  22.073  0.00  0.00    +0.000 A 
ATOM     27  C   UNL     1      -7.554  11.367  20.810  0.00  0.00    +0.000 A 
ATOM     28  C   UNL     1      -6.343  11.763  20.242  0.00  0.00    +0.000 A 
ATOM     29  C   UNL     1      -5.496  12.632  20.933  0.00  0.00    +0.000 A 
ENDBRANCH  23  24
ENDBRANCH  12  23
TORSDOF 4
ENDMDL
MODEL 8
REMARK VINA RESULT:      -7.7      5.615     11.528
REMARK  Name = 
REMARK  4 active torsions:
REMARK  status: ('A' for Active; 'I' for Inactive)
REMARK    1  A    between atoms: C_5  and  N_6
REMARK    2  A    between atoms: N_6  and  C_7
REMARK    3  A    between atoms: N_18  and  C_19
REMARK    4  A    between atoms: C_19  and  C_20
REMARK                            x       y       z     vdW  Elec       q    Type
REMARK                         _______ _______ _______ _____ _____    ______ ____
ROOT
ATOM      1  C   UNL     1       1.003  12.025  19.236  0.00  0.00    +0.000 A 
ATOM      2  N   UNL     1       1.909  12.542  18.367  0.00  0.00    +0.000 NA
ATOM      3  C   UNL     1       2.452  13.740  18.606  0.00  0.00    +0.000 A 
ATOM      4  N   UNL     1       2.209  14.537  19.641  0.00  0.00    +0.000 NA
ATOM      5  C   UNL     1       1.303  14.019  20.484  0.00  0.00    +0.000 A 
ATOM      6  S   UNL     1       0.838  14.903  21.863  0.00  0.00    +0.000 S 
ATOM      7  C   UNL     1      -0.262  13.703  22.323  0.00  0.00    +0.000 A 
ATOM      8  C   UNL     1      -0.250  12.602  21.482  0.00  0.00    +0.000 A 
ATOM      9  C   UNL     1       0.652  12.794  20.368  0.00  0.00    +0.000 A 
ATOM     10  C   UNL     1      -1.182  11.450  21.750  0.00  0.00    +0.000 C 
ATOM     11  C   UNL     1      -1.971  11.630  23.076  0.00  0.00    +0.000 C 
ATOM     12  N   UNL     1      -2.376  13.025  23.385  0.00  0.00    +0.000 NA
ATOM     13  C   UNL     1      -1.155  13.856  23.518  0.00  0.00    +0.000 C 
ENDROOT
BRANCH   1  14
ATOM     14  N   UNL     1       0.457  10.761  18.952  0.00  0.00    +0.000 N 
ATOM     15  H   UNL     1      -0.528  10.681  19.146  0.00  0.00    +0.000 HD
BRANCH  14  20
ATOM     16 BR   UNL     1       3.352   5.423  19.575  0.00  0.00    +0.000 Br
ATOM     17  C   UNL     1       2.449   7.072  19.382  0.00  0.00    +0.000 A 
ATOM     18  C   UNL     1       1.789   7.626  20.474  0.00  0.00    +0.000 A 
ATOM     19  C   UNL     1       1.136   8.849  20.335  0.00  0.00    +0.000 A 
ATOM     20  C   UNL     1       1.121   9.528  19.110  0.00  0.00    +0.000 A 
ATOM     21  C   UNL     1       1.777   8.949  18.016  0.00  0.00    +0.000 A 
ATOM     22  C   UNL     1       2.447   7.728  18.152  0.00  0.00    +0.000 A 
ENDBRANCH  14  20
ENDBRANCH   1  14
BRANCH  12  23
ATOM     23  C   UNL     1      -3.310  13.527  22.357  0.00  0.00    +0.000 C 
BRANCH  23  24
ATOM     24  C   UNL     1      -4.744  13.072  22.505  0.00  0.00    +0.000 A 
ATOM     25  C   UNL     1      -5.354  13.072  23.771  0.00  0.00    +0.000 A 
ATOM     26  C   UNL     1      -6.693  12.708  23.912  0.00  0.00    +0.000 A 
ATOM     27  C   UNL     1      -7.434  12.338  22.794  0.00  0.00    +0.000 A 
ATOM     28  C   UNL     1      -6.836  12.320  21.534  0.00  0.00    +0.000 A 
ATOM     29  C   UNL     1      -5.496  12.683  21.389  0.00  0.00    +0.000 A 
ENDBRANCH  23  24
ENDBRANCH  12  23
TORSDOF 4
ENDMDL
MODEL 9
REMARK VINA RESULT:      -7.7      5.642     11.596
REMARK  Name = 
REMARK  4 active torsions:
REMARK  status: ('A' for Active; 'I' for Inactive)
REMARK    1  A    between atoms: C_5  and  N_6
REMARK    2  A    between atoms: N_6  and  C_7
REMARK    3  A    between atoms: N_18  and  C_19
REMARK    4  A    between atoms: C_19  and  C_20
REMARK                            x       y       z     vdW  Elec       q    Type
REMARK                         _______ _______ _______ _____ _____    ______ ____
ROOT
ATOM      1  C   UNL     1       0.972  12.111  19.192  0.00  0.00    +0.000 A 
ATOM      2  N   UNL     1       1.872  12.642  18.326  0.00  0.00    +0.000 NA
ATOM      3  C   UNL     1       2.412  13.839  18.577  0.00  0.00    +0.000 A 
ATOM      4  N   UNL     1       2.170  14.623  19.623  0.00  0.00    +0.000 NA
ATOM      5  C   UNL     1       1.269  14.091  20.462  0.00  0.00    +0.000 A 
ATOM      6  S   UNL     1       0.806  14.957  21.854  0.00  0.00    +0.000 S 
ATOM      7  C   UNL     1      -0.287  13.747  22.304  0.00  0.00    +0.000 A 
ATOM      8  C   UNL     1      -0.275  12.657  21.450  0.00  0.00    +0.000 A 
ATOM      9  C   UNL     1       0.622  12.865  20.335  0.00  0.00    +0.000 A 
ATOM     10  C   UNL     1      -1.201  11.498  21.707  0.00  0.00    +0.000 C 
ATOM     11  C   UNL     1      -1.986  11.659  23.038  0.00  0.00    +0.000 C 
ATOM     12  N   UNL     1      -2.395  13.049  23.366  0.00  0.00    +0.000 NA
ATOM     13  C   UNL     1      -1.177  13.883  23.504  0.00  0.00    +0.000 C 
ENDROOT
BRANCH   1  14
ATOM     14  N   UNL     1       0.429  10.849  18.895  0.00  0.00    +0.000 N 
ATOM     15  H   UNL     1      -0.552  10.759  19.101  0.00  0.00    +0.000 HD
BRANCH  14  20
ATOM     16 BR   UNL     1       3.328   5.512  19.512  0.00  0.00    +0.000 Br
ATOM     17  C   UNL     1       2.438   7.168  19.321  0.00  0.00    +0.000 A 
ATOM     18  C   UNL     1       2.456   7.821  18.093  0.00  0.00    +0.000 A 
ATOM     19  C   UNL     1       1.787   9.034  17.948  0.00  0.00    +0.000 A 
ATOM     20  C   UNL     1       1.103   9.617  19.023  0.00  0.00    +0.000 A 
ATOM     21  C   UNL     1       1.108   8.955  20.257  0.00  0.00    +0.000 A 
ATOM     22  C   UNL     1       1.765   7.729  20.406  0.00  0.00    +0.000 A 
ENDBRANCH  14  20
ENDBRANCH   1  14
BRANCH  12  23
ATOM     23  C   UNL     1      -3.335  13.560  22.347  0.00  0.00    +0.000 C 
BRANCH  23  24
ATOM     24  C   UNL     1      -4.782  13.168  22.544  0.00  0.00    +0.000 A 
ATOM     25  C   UNL     1      -5.553  12.753  21.446  0.00  0.00    +0.000 A 
ATOM     26  C   UNL     1      -6.872  12.335  21.624  0.00  0.00    +0.000 A 
ATOM     27  C   UNL     1      -7.434  12.331  22.898  0.00  0.00    +0.000 A 
ATOM     28  C   UNL     1      -6.683  12.755  23.994  0.00  0.00    +0.000 A 
ATOM     29  C   UNL     1      -5.362  13.174  23.819  0.00  0.00    +0.000 A 
ENDBRANCH  23  24
ENDBRANCH  12  23
TORSDOF 4
ENDMDL
