MODEL 1
REMARK VINA RESULT:      -8.4      0.000      0.000
REMARK  Name = 
REMARK  4 active torsions:
REMARK  status: ('A' for Active; 'I' for Inactive)
REMARK    1  A    between atoms: C_6  and  O_7
REMARK    2  A    between atoms: O_7  and  C_8
REMARK    3  A    between atoms: C_12  and  C_13
REMARK    4  A    between atoms: C_13  and  N_14
REMARK                            x       y       z     vdW  Elec       q    Type
REMARK                         _______ _______ _______ _____ _____    ______ ____
ROOT
ATOM      1  C   UNL     1       1.468   9.300  19.080  0.00  0.00    +0.000 A 
ATOM      2  C   UNL     1       2.280   8.952  17.988  0.00  0.00    +0.000 A 
ATOM      3  C   UNL     1       2.821   7.667  17.872  0.00  0.00    +0.000 A 
ATOM      4  C   UNL     1       2.580   6.736  18.899  0.00  0.00    +0.000 A 
ATOM      5  C   UNL     1       2.900   5.360  19.120  0.00  0.00    +0.000 A 
ATOM      6  C   UNL     1       2.411   5.074  20.379  0.00  0.00    +0.000 A 
ATOM      7  O   UNL     1       1.770   6.143  20.917  0.00  0.00    +0.000 OA
ATOM      8  C   UNL     1       1.852   7.155  20.010  0.00  0.00    +0.000 A 
ATOM      9  C   UNL     1       1.281   8.420  20.151  0.00  0.00    +0.000 A 
ENDROOT
BRANCH   1  10
ATOM     10  O   UNL     1       0.827  10.526  19.138  0.00  0.00    +0.000 OA
BRANCH  10  16
ATOM     11  C   UNL     1      -4.071  10.701  15.850  0.00  0.00    +0.000 A 
ATOM     12  C   UNL     1      -4.663  11.520  16.804  0.00  0.00    +0.000 A 
ATOM     13  C   UNL     1      -4.001  11.838  17.998  0.00  0.00    +0.000 A 
ATOM     14  C   UNL     1      -2.711  11.317  18.200  0.00  0.00    +0.000 A 
ATOM     15  S   UNL     1      -1.616  11.548  19.516  0.00  0.00    +0.000 S 
ATOM     16  C   UNL     1      -0.435  10.625  18.689  0.00  0.00    +0.000 A 
ATOM     17  N   UNL     1      -0.839  10.055  17.576  0.00  0.00    +0.000 NA
ATOM     18  C   UNL     1      -2.107  10.486  17.257  0.00  0.00    +0.000 A 
ATOM     19  C   UNL     1      -2.797  10.172  16.069  0.00  0.00    +0.000 A 
ENDBRANCH  10  16
ENDBRANCH   1  10
BRANCH   5  20
ATOM     20  C   UNL     1       3.635   4.440  18.204  0.00  0.00    +0.000 C 
BRANCH  20  21
ATOM     21  N   UNL     1       4.952   4.989  17.803  0.00  0.00    +0.000 NA
ATOM     22  C   UNL     1       5.850   5.104  18.967  0.00  0.00    +0.000 C 
ATOM     23  C   UNL     1       7.285   5.488  18.596  0.00  0.00    +0.000 C 
ATOM     24  C   UNL     1       7.866   4.531  17.565  0.00  0.00    +0.000 C 
ATOM     25  C   UNL     1       6.952   4.470  16.352  0.00  0.00    +0.000 C 
ATOM     26  C   UNL     1       5.515   4.128  16.748  0.00  0.00    +0.000 C 
ENDBRANCH  20  21
ENDBRANCH   5  20
TORSDOF 4
ENDMDL
MODEL 2
REMARK VINA RESULT:      -8.3      0.673      1.121
REMARK  Name = 
REMARK  4 active torsions:
REMARK  status: ('A' for Active; 'I' for Inactive)
REMARK    1  A    between atoms: C_6  and  O_7
REMARK    2  A    between atoms: O_7  and  C_8
REMARK    3  A    between atoms: C_12  and  C_13
REMARK    4  A    between atoms: C_13  and  N_14
REMARK                            x       y       z     vdW  Elec       q    Type
REMARK                         _______ _______ _______ _____ _____    ______ ____
ROOT
ATOM      1  C   UNL     1       1.563   9.175  19.068  0.00  0.00    +0.000 A 
ATOM      2  C   UNL     1       2.322   8.938  17.910  0.00  0.00    +0.000 A 
ATOM      3  C   UNL     1       2.914   7.692  17.677  0.00  0.00    +0.000 A 
ATOM      4  C   UNL     1       2.781   6.687  18.653  0.00  0.00    +0.000 A 
ATOM      5  C   UNL     1       3.177   5.318  18.763  0.00  0.00    +0.000 A 
ATOM      6  C   UNL     1       2.781   4.929  20.027  0.00  0.00    +0.000 A 
ATOM      7  O   UNL     1       2.125   5.928  20.672  0.00  0.00    +0.000 OA
ATOM      8  C   UNL     1       2.104   6.998  19.830  0.00  0.00    +0.000 A 
ATOM      9  C   UNL     1       1.485   8.221  20.088  0.00  0.00    +0.000 A 
ENDROOT
BRANCH   1  10
ATOM     10  O   UNL     1       0.870  10.361  19.244  0.00  0.00    +0.000 OA
BRANCH  10  16
ATOM     11  C   UNL     1      -3.909  10.564  15.788  0.00  0.00    +0.000 A 
ATOM     12  C   UNL     1      -4.526  11.395  16.716  0.00  0.00    +0.000 A 
ATOM     13  C   UNL     1      -3.901  11.715  17.929  0.00  0.00    +0.000 A 
ATOM     14  C   UNL     1      -2.625  11.182  18.179  0.00  0.00    +0.000 A 
ATOM     15  S   UNL     1      -1.573  11.411  19.531  0.00  0.00    +0.000 S 
ATOM     16  C   UNL     1      -0.374  10.470  18.751  0.00  0.00    +0.000 A 
ATOM     17  N   UNL     1      -0.746   9.897  17.628  0.00  0.00    +0.000 NA
ATOM     18  C   UNL     1      -1.997  10.338  17.263  0.00  0.00    +0.000 A 
ATOM     19  C   UNL     1      -2.649  10.023  16.055  0.00  0.00    +0.000 A 
ENDBRANCH  10  16
ENDBRANCH   1  10
BRANCH   5  20
ATOM     20  C   UNL     1       3.896   4.496  17.747  0.00  0.00    +0.000 C 
BRANCH  20  21
ATOM     21  N   UNL     1       5.358   4.737  17.769  0.00  0.00    +0.000 NA
ATOM     22  C   UNL     1       5.746   5.718  16.738  0.00  0.00    +0.000 C 
ATOM     23  C   UNL     1       7.212   6.152  16.829  0.00  0.00    +0.000 C 
ATOM     24  C   UNL     1       7.550   6.674  18.217  0.00  0.00    +0.000 C 
ATOM     25  C   UNL     1       7.194   5.625  19.259  0.00  0.00    +0.000 C 
ATOM     26  C   UNL     1       5.739   5.172  19.125  0.00  0.00    +0.000 C 
ENDBRANCH  20  21
ENDBRANCH   5  20
TORSDOF 4
ENDMDL
MODEL 3
REMARK VINA RESULT:      -8.2      0.905      1.091
REMARK  Name = 
REMARK  4 active torsions:
REMARK  status: ('A' for Active; 'I' for Inactive)
REMARK    1  A    between atoms: C_6  and  O_7
REMARK    2  A    between atoms: O_7  and  C_8
REMARK    3  A    between atoms: C_12  and  C_13
REMARK    4  A    between atoms: C_13  and  N_14
REMARK                            x       y       z     vdW  Elec       q    Type
REMARK                         _______ _______ _______ _____ _____    ______ ____
ROOT
ATOM      1  C   UNL     1       1.188  10.162  18.953  0.00  0.00    +0.000 A 
ATOM      2  C   UNL     1       1.995   9.787  17.866  0.00  0.00    +0.000 A 
ATOM      3  C   UNL     1       2.531   8.498  17.777  0.00  0.00    +0.000 A 
ATOM      4  C   UNL     1       2.292   7.591  18.826  0.00  0.00    +0.000 A 
ATOM      5  C   UNL     1       2.607   6.220  19.076  0.00  0.00    +0.000 A 
ATOM      6  C   UNL     1       2.123   5.964  20.343  0.00  0.00    +0.000 A 
ATOM      7  O   UNL     1       1.487   7.047  20.860  0.00  0.00    +0.000 OA
ATOM      8  C   UNL     1       1.570   8.038  19.930  0.00  0.00    +0.000 A 
ATOM      9  C   UNL     1       1.003   9.308  20.045  0.00  0.00    +0.000 A 
ENDROOT
BRANCH   1  10
ATOM     10  O   UNL     1       0.551  11.392  18.986  0.00  0.00    +0.000 OA
BRANCH  10  16
ATOM     11  C   UNL     1      -5.081  11.580  17.235  0.00  0.00    +0.000 A 
ATOM     12  C   UNL     1      -5.419  12.187  18.438  0.00  0.00    +0.000 A 
ATOM     13  C   UNL     1      -4.462  12.388  19.442  0.00  0.00    +0.000 A 
ATOM     14  C   UNL     1      -3.143  11.969  19.194  0.00  0.00    +0.000 A 
ATOM     15  S   UNL     1      -1.732  12.107  20.182  0.00  0.00    +0.000 S 
ATOM     16  C   UNL     1      -0.790  11.435  18.921  0.00  0.00    +0.000 A 
ATOM     17  N   UNL     1      -1.464  11.000  17.880  0.00  0.00    +0.000 NA
ATOM     18  C   UNL     1      -2.790  11.348  17.996  0.00  0.00    +0.000 A 
ATOM     19  C   UNL     1      -3.772  11.149  17.006  0.00  0.00    +0.000 A 
ENDBRANCH  10  16
ENDBRANCH   1  10
BRANCH   5  20
ATOM     20  C   UNL     1       3.336   5.277  18.178  0.00  0.00    +0.000 C 
BRANCH  20  21
ATOM     21  N   UNL     1       4.758   5.657  18.007  0.00  0.00    +0.000 NA
ATOM     22  C   UNL     1       5.553   5.261  19.184  0.00  0.00    +0.000 C 
ATOM     23  C   UNL     1       7.061   5.456  18.997  0.00  0.00    +0.000 C 
ATOM     24  C   UNL     1       7.560   4.742  17.749  0.00  0.00    +0.000 C 
ATOM     25  C   UNL     1       6.764   5.207  16.540  0.00  0.00    +0.000 C 
ATOM     26  C   UNL     1       5.259   5.045  16.764  0.00  0.00    +0.000 C 
ENDBRANCH  20  21
ENDBRANCH   5  20
TORSDOF 4
ENDMDL
MODEL 4
REMARK VINA RESULT:      -8.0      4.528      8.316
REMARK  Name = 
REMARK  4 active torsions:
REMARK  status: ('A' for Active; 'I' for Inactive)
REMARK    1  A    between atoms: C_6  and  O_7
REMARK    2  A    between atoms: O_7  and  C_8
REMARK    3  A    between atoms: C_12  and  C_13
REMARK    4  A    between atoms: C_13  and  N_14
REMARK                            x       y       z     vdW  Elec       q    Type
REMARK                         _______ _______ _______ _____ _____    ______ ____
ROOT
ATOM      1  C   UNL     1       6.054   5.864  17.793  0.00  0.00    +0.000 A 
ATOM      2  C   UNL     1       5.807   5.163  18.984  0.00  0.00    +0.000 A 
ATOM      3  C   UNL     1       4.604   5.325  19.681  0.00  0.00    +0.000 A 
ATOM      4  C   UNL     1       3.660   6.249  19.194  0.00  0.00    +0.000 A 
ATOM      5  C   UNL     1       2.342   6.651  19.574  0.00  0.00    +0.000 A 
ATOM      6  C   UNL     1       2.007   7.662  18.696  0.00  0.00    +0.000 A 
ATOM      7  O   UNL     1       2.986   7.869  17.779  0.00  0.00    +0.000 OA
ATOM      8  C   UNL     1       3.990   6.995  18.065  0.00  0.00    +0.000 A 
ATOM      9  C   UNL     1       5.170   6.845  17.334  0.00  0.00    +0.000 A 
ENDROOT
BRANCH   1  10
ATOM     10  O   UNL     1       7.185   5.614  17.032  0.00  0.00    +0.000 OA
BRANCH  10  16
ATOM     11  C   UNL     1       7.084   4.398  11.258  0.00  0.00    +0.000 A 
ATOM     12  C   UNL     1       6.085   3.459  11.489  0.00  0.00    +0.000 A 
ATOM     13  C   UNL     1       5.651   3.169  12.790  0.00  0.00    +0.000 A 
ATOM     14  C   UNL     1       6.244   3.864  13.858  0.00  0.00    +0.000 A 
ATOM     15  S   UNL     1       5.914   3.785  15.552  0.00  0.00    +0.000 S 
ATOM     16  C   UNL     1       7.047   5.038  15.827  0.00  0.00    +0.000 A 
ATOM     17  N   UNL     1       7.739   5.416  14.776  0.00  0.00    +0.000 NA
ATOM     18  C   UNL     1       7.254   4.802  13.644  0.00  0.00    +0.000 A 
ATOM     19  C   UNL     1       7.681   5.069  12.328  0.00  0.00    +0.000 A 
ENDBRANCH  10  16
ENDBRANCH   1  10
BRANCH   5  20
ATOM     20  C   UNL     1       1.519   6.118  20.699  0.00  0.00    +0.000 C 
BRANCH  20  21
ATOM     21  N   UNL     1       1.139   4.701  20.487  0.00  0.00    +0.000 NA
ATOM     22  C   UNL     1       1.279   4.325  19.068  0.00  0.00    +0.000 C 
ATOM     23  C   UNL     1       1.081   2.829  18.810  0.00  0.00    +0.000 C 
ATOM     24  C   UNL     1       2.007   1.990  19.679  0.00  0.00    +0.000 C 
ATOM     25  C   UNL     1       1.806   2.355  21.141  0.00  0.00    +0.000 C 
ATOM     26  C   UNL     1       1.964   3.859  21.371  0.00  0.00    +0.000 C 
ENDBRANCH  20  21
ENDBRANCH   5  20
TORSDOF 4
ENDMDL
MODEL 5
REMARK VINA RESULT:      -7.8      2.185      8.649
REMARK  Name = 
REMARK  4 active torsions:
REMARK  status: ('A' for Active; 'I' for Inactive)
REMARK    1  A    between atoms: C_6  and  O_7
REMARK    2  A    between atoms: O_7  and  C_8
REMARK    3  A    between atoms: C_12  and  C_13
REMARK    4  A    between atoms: C_13  and  N_14
REMARK                            x       y       z     vdW  Elec       q    Type
REMARK                         _______ _______ _______ _____ _____    ______ ____
ROOT
ATOM      1  C   UNL     1       2.464   6.873  19.676  0.00  0.00    +0.000 A 
ATOM      2  C   UNL     1       2.478   7.593  18.470  0.00  0.00    +0.000 A 
ATOM      3  C   UNL     1       1.783   8.800  18.342  0.00  0.00    +0.000 A 
ATOM      4  C   UNL     1       1.020   9.260  19.431  0.00  0.00    +0.000 A 
ATOM      5  C   UNL     1       0.240  10.426  19.706  0.00  0.00    +0.000 A 
ATOM      6  C   UNL     1      -0.301  10.211  20.958  0.00  0.00    +0.000 A 
ATOM      7  O   UNL     1       0.132   9.040  21.492  0.00  0.00    +0.000 OA
ATOM      8  C   UNL     1       0.955   8.464  20.573  0.00  0.00    +0.000 A 
ATOM      9  C   UNL     1       1.650   7.266  20.743  0.00  0.00    +0.000 A 
ENDROOT
BRANCH   1  10
ATOM     10  O   UNL     1       3.250   5.746  19.851  0.00  0.00    +0.000 OA
BRANCH  10  16
ATOM     11  C   UNL     1       7.307   5.020  15.627  0.00  0.00    +0.000 A 
ATOM     12  C   UNL     1       6.389   4.278  14.894  0.00  0.00    +0.000 A 
ATOM     13  C   UNL     1       5.121   3.978  15.412  0.00  0.00    +0.000 A 
ATOM     14  C   UNL     1       4.797   4.461  16.691  0.00  0.00    +0.000 A 
ATOM     15  S   UNL     1       3.329   4.316  17.591  0.00  0.00    +0.000 S 
ATOM     16  C   UNL     1       3.993   5.302  18.823  0.00  0.00    +0.000 A 
ATOM     17  N   UNL     1       5.260   5.619  18.674  0.00  0.00    +0.000 NA
ATOM     18  C   UNL     1       5.711   5.198  17.444  0.00  0.00    +0.000 A 
ATOM     19  C   UNL     1       6.982   5.478  16.906  0.00  0.00    +0.000 A 
ENDBRANCH  10  16
ENDBRANCH   1  10
BRANCH   5  20
ATOM     20  C   UNL     1       0.026  11.606  18.818  0.00  0.00    +0.000 C 
BRANCH  20  21
ATOM     21  N   UNL     1      -1.245  11.509  18.061  0.00  0.00    +0.000 NA
ATOM     22  C   UNL     1      -1.427  10.153  17.509  0.00  0.00    +0.000 C 
ATOM     23  C   UNL     1      -2.803   9.931  16.875  0.00  0.00    +0.000 C 
ATOM     24  C   UNL     1      -3.922  10.266  17.850  0.00  0.00    +0.000 C 
ATOM     25  C   UNL     1      -3.746  11.686  18.363  0.00  0.00    +0.000 C 
ATOM     26  C   UNL     1      -2.350  11.901  18.953  0.00  0.00    +0.000 C 
ENDBRANCH  20  21
ENDBRANCH   5  20
TORSDOF 4
ENDMDL
MODEL 6
REMARK VINA RESULT:      -7.8      1.344      1.844
REMARK  Name = 
REMARK  4 active torsions:
REMARK  status: ('A' for Active; 'I' for Inactive)
REMARK    1  A    between atoms: C_6  and  O_7
REMARK    2  A    between atoms: O_7  and  C_8
REMARK    3  A    between atoms: C_12  and  C_13
REMARK    4  A    between atoms: C_13  and  N_14
REMARK                            x       y       z     vdW  Elec       q    Type
REMARK                         _______ _______ _______ _____ _____    ______ ____
ROOT
ATOM      1  C   UNL     1       1.046  10.403  19.072  0.00  0.00    +0.000 A 
ATOM      2  C   UNL     1       1.838  10.085  17.957  0.00  0.00    +0.000 A 
ATOM      3  C   UNL     1       2.404   8.814  17.813  0.00  0.00    +0.000 A 
ATOM      4  C   UNL     1       2.210   7.867  18.835  0.00  0.00    +0.000 A 
ATOM      5  C   UNL     1       2.566   6.496  19.033  0.00  0.00    +0.000 A 
ATOM      6  C   UNL     1       2.115   6.186  20.300  0.00  0.00    +0.000 A 
ATOM      7  O   UNL     1       1.464   7.234  20.866  0.00  0.00    +0.000 OA
ATOM      8  C   UNL     1       1.501   8.258  19.969  0.00  0.00    +0.000 A 
ATOM      9  C   UNL     1       0.906   9.508  20.138  0.00  0.00    +0.000 A 
ENDROOT
BRANCH   1  10
ATOM     10  O   UNL     1       0.379  11.614  19.160  0.00  0.00    +0.000 OA
BRANCH  10  16
ATOM     11  C   UNL     1      -5.490  12.155  19.459  0.00  0.00    +0.000 A 
ATOM     12  C   UNL     1      -5.610  11.276  18.389  0.00  0.00    +0.000 A 
ATOM     13  C   UNL     1      -4.477  10.779  17.729  0.00  0.00    +0.000 A 
ATOM     14  C   UNL     1      -3.212  11.183  18.188  0.00  0.00    +0.000 A 
ATOM     15  S   UNL     1      -1.637  10.728  17.642  0.00  0.00    +0.000 S 
ATOM     16  C   UNL     1      -0.938  11.654  18.900  0.00  0.00    +0.000 A 
ATOM     17  N   UNL     1      -1.780  12.374  19.608  0.00  0.00    +0.000 NA
ATOM     18  C   UNL     1      -3.075  12.072  19.255  0.00  0.00    +0.000 A 
ATOM     19  C   UNL     1      -4.228  12.566  19.895  0.00  0.00    +0.000 A 
ENDBRANCH  10  16
ENDBRANCH   1  10
BRANCH   5  20
ATOM     20  C   UNL     1       3.298   5.603  18.088  0.00  0.00    +0.000 C 
BRANCH  20  21
ATOM     21  N   UNL     1       4.739   5.939  18.008  0.00  0.00    +0.000 NA
ATOM     22  C   UNL     1       5.478   5.362  19.147  0.00  0.00    +0.000 C 
ATOM     23  C   UNL     1       6.997   5.512  19.028  0.00  0.00    +0.000 C 
ATOM     24  C   UNL     1       7.510   4.942  17.714  0.00  0.00    +0.000 C 
ATOM     25  C   UNL     1       6.773   5.591  16.553  0.00  0.00    +0.000 C 
ATOM     26  C   UNL     1       5.257   5.469  16.711  0.00  0.00    +0.000 C 
ENDBRANCH  20  21
ENDBRANCH   5  20
TORSDOF 4
ENDMDL
MODEL 7
REMARK VINA RESULT:      -7.7      2.068      3.645
REMARK  Name = 
REMARK  4 active torsions:
REMARK  status: ('A' for Active; 'I' for Inactive)
REMARK    1  A    between atoms: C_6  and  O_7
REMARK    2  A    between atoms: O_7  and  C_8
REMARK    3  A    between atoms: C_12  and  C_13
REMARK    4  A    between atoms: C_13  and  N_14
REMARK                            x       y       z     vdW  Elec       q    Type
REMARK                         _______ _______ _______ _____ _____    ______ ____
ROOT
ATOM      1  C   UNL     1       2.871   8.091  18.141  0.00  0.00    +0.000 A 
ATOM      2  C   UNL     1       2.504   7.377  19.294  0.00  0.00    +0.000 A 
ATOM      3  C   UNL     1       2.997   6.090  19.533  0.00  0.00    +0.000 A 
ATOM      4  C   UNL     1       3.830   5.494  18.567  0.00  0.00    +0.000 A 
ATOM      5  C   UNL     1       4.551   4.264  18.466  0.00  0.00    +0.000 A 
ATOM      6  C   UNL     1       5.123   4.284  17.210  0.00  0.00    +0.000 A 
ATOM      7  O   UNL     1       4.859   5.448  16.562  0.00  0.00    +0.000 OA
ATOM      8  C   UNL     1       4.087   6.200  17.394  0.00  0.00    +0.000 A 
ATOM      9  C   UNL     1       3.630   7.491  17.131  0.00  0.00    +0.000 A 
ENDROOT
BRANCH   1  10
ATOM     10  O   UNL     1       2.490   9.410  17.959  0.00  0.00    +0.000 OA
BRANCH  10  16
ATOM     11  C   UNL     1      -3.271  10.616  17.532  0.00  0.00    +0.000 A 
ATOM     12  C   UNL     1      -3.151  11.494  18.603  0.00  0.00    +0.000 A 
ATOM     13  C   UNL     1      -1.937  11.638  19.288  0.00  0.00    +0.000 A 
ATOM     14  C   UNL     1      -0.836  10.879  18.855  0.00  0.00    +0.000 A 
ATOM     15  S   UNL     1       0.790  10.853  19.437  0.00  0.00    +0.000 S 
ATOM     16  C   UNL     1       1.214   9.759  18.190  0.00  0.00    +0.000 A 
ATOM     17  N   UNL     1       0.214   9.317  17.461  0.00  0.00    +0.000 NA
ATOM     18  C   UNL     1      -0.943   9.987  17.788  0.00  0.00    +0.000 A 
ATOM     19  C   UNL     1      -2.176   9.852  17.121  0.00  0.00    +0.000 A 
ENDBRANCH  10  16
ENDBRANCH   1  10
BRANCH   5  20
ATOM     20  C   UNL     1       4.639   3.176  19.484  0.00  0.00    +0.000 C 
BRANCH  20  21
ATOM     21  N   UNL     1       3.314   2.577  19.772  0.00  0.00    +0.000 NA
ATOM     22  C   UNL     1       2.696   3.211  20.952  0.00  0.00    +0.000 C 
ATOM     23  C   UNL     1       1.250   2.770  21.195  0.00  0.00    +0.000 C 
ATOM     24  C   UNL     1       0.390   2.987  19.959  0.00  0.00    +0.000 C 
ATOM     25  C   UNL     1       1.016   2.280  18.769  0.00  0.00    +0.000 C 
ATOM     26  C   UNL     1       2.474   2.700  18.569  0.00  0.00    +0.000 C 
ENDBRANCH  20  21
ENDBRANCH   5  20
TORSDOF 4
ENDMDL
MODEL 8
REMARK VINA RESULT:      -7.7      2.893      8.736
REMARK  Name = 
REMARK  4 active torsions:
REMARK  status: ('A' for Active; 'I' for Inactive)
REMARK    1  A    between atoms: C_6  and  O_7
REMARK    2  A    between atoms: O_7  and  C_8
REMARK    3  A    between atoms: C_12  and  C_13
REMARK    4  A    between atoms: C_13  and  N_14
REMARK                            x       y       z     vdW  Elec       q    Type
REMARK                         _______ _______ _______ _____ _____    ______ ____
ROOT
ATOM      1  C   UNL     1       3.906   5.988  18.279  0.00  0.00    +0.000 A 
ATOM      2  C   UNL     1       3.682   7.105  17.457  0.00  0.00    +0.000 A 
ATOM      3  C   UNL     1       2.833   8.141  17.862  0.00  0.00    +0.000 A 
ATOM      4  C   UNL     1       2.159   8.021  19.092  0.00  0.00    +0.000 A 
ATOM      5  C   UNL     1       1.280   8.851  19.855  0.00  0.00    +0.000 A 
ATOM      6  C   UNL     1       0.929   8.092  20.952  0.00  0.00    +0.000 A 
ATOM      7  O   UNL     1       1.565   6.892  20.951  0.00  0.00    +0.000 OA
ATOM      8  C   UNL     1       2.333   6.851  19.827  0.00  0.00    +0.000 A 
ATOM      9  C   UNL     1       3.187   5.808  19.465  0.00  0.00    +0.000 A 
ENDROOT
BRANCH   1  10
ATOM     10  O   UNL     1       4.840   5.023  17.943  0.00  0.00    +0.000 OA
BRANCH  10  16
ATOM     11  C   UNL     1       6.137   3.631  12.356  0.00  0.00    +0.000 A 
ATOM     12  C   UNL     1       7.334   4.327  12.477  0.00  0.00    +0.000 A 
ATOM     13  C   UNL     1       7.647   5.032  13.647  0.00  0.00    +0.000 A 
ATOM     14  C   UNL     1       6.721   5.007  14.704  0.00  0.00    +0.000 A 
ATOM     15  S   UNL     1       6.814   5.717  16.277  0.00  0.00    +0.000 S 
ATOM     16  C   UNL     1       5.321   4.988  16.689  0.00  0.00    +0.000 A 
ATOM     17  N   UNL     1       4.703   4.370  15.708  0.00  0.00    +0.000 NA
ATOM     18  C   UNL     1       5.511   4.322  14.595  0.00  0.00    +0.000 A 
ATOM     19  C   UNL     1       5.215   3.629  13.405  0.00  0.00    +0.000 A 
ENDBRANCH  10  16
ENDBRANCH   1  10
BRANCH   5  20
ATOM     20  C   UNL     1       0.815  10.229  19.520  0.00  0.00    +0.000 C 
BRANCH  20  21
ATOM     21  N   UNL     1      -0.624  10.260  19.168  0.00  0.00    +0.000 NA
ATOM     22  C   UNL     1      -1.202  11.591  19.431  0.00  0.00    +0.000 C 
ATOM     23  C   UNL     1      -2.636  11.748  18.917  0.00  0.00    +0.000 C 
ATOM     24  C   UNL     1      -2.734  11.406  17.437  0.00  0.00    +0.000 C 
ATOM     25  C   UNL     1      -2.184  10.009  17.197  0.00  0.00    +0.000 C 
ATOM     26  C   UNL     1      -0.768   9.859  17.757  0.00  0.00    +0.000 C 
ENDBRANCH  20  21
ENDBRANCH   5  20
TORSDOF 4
ENDMDL
MODEL 9
REMARK VINA RESULT:      -7.7      3.317      4.671
REMARK  Name = 
REMARK  4 active torsions:
REMARK  status: ('A' for Active; 'I' for Inactive)
REMARK    1  A    between atoms: C_6  and  O_7
REMARK    2  A    between atoms: O_7  and  C_8
REMARK    3  A    between atoms: C_12  and  C_13
REMARK    4  A    between atoms: C_13  and  N_14
REMARK                            x       y       z     vdW  Elec       q    Type
REMARK                         _______ _______ _______ _____ _____    ______ ____
ROOT
ATOM      1  C   UNL     1       0.658  10.922  21.178  0.00  0.00    +0.000 A 
ATOM      2  C   UNL     1       0.694   9.804  22.028  0.00  0.00    +0.000 A 
ATOM      3  C   UNL     1       1.158   8.566  21.571  0.00  0.00    +0.000 A 
ATOM      4  C   UNL     1       1.542   8.442  20.223  0.00  0.00    +0.000 A 
ATOM      5  C   UNL     1       2.098   7.402  19.415  0.00  0.00    +0.000 A 
ATOM      6  C   UNL     1       2.172   7.933  18.143  0.00  0.00    +0.000 A 
ATOM      7  O   UNL     1       1.763   9.228  18.122  0.00  0.00    +0.000 OA
ATOM      8  C   UNL     1       1.396   9.551  19.393  0.00  0.00    +0.000 A 
ATOM      9  C   UNL     1       0.957  10.805  19.817  0.00  0.00    +0.000 A 
ENDROOT
BRANCH   1  10
ATOM     10  O   UNL     1       0.321  12.178  21.655  0.00  0.00    +0.000 OA
BRANCH  10  16
ATOM     11  C   UNL     1      -5.103  12.738  23.912  0.00  0.00    +0.000 A 
ATOM     12  C   UNL     1      -5.613  12.831  22.622  0.00  0.00    +0.000 A 
ATOM     13  C   UNL     1      -4.764  12.845  21.507  0.00  0.00    +0.000 A 
ATOM     14  C   UNL     1      -3.379  12.749  21.726  0.00  0.00    +0.000 A 
ATOM     15  S   UNL     1      -2.078  12.689  20.590  0.00  0.00    +0.000 S 
ATOM     16  C   UNL     1      -0.971  12.467  21.877  0.00  0.00    +0.000 A 
ATOM     17  N   UNL     1      -1.480  12.564  23.085  0.00  0.00    +0.000 NA
ATOM     18  C   UNL     1      -2.851  12.665  23.014  0.00  0.00    +0.000 A 
ATOM     19  C   UNL     1      -3.724  12.663  24.120  0.00  0.00    +0.000 A 
ENDBRANCH  10  16
ENDBRANCH   1  10
BRANCH   5  20
ATOM     20  C   UNL     1       2.482   6.026  19.845  0.00  0.00    +0.000 C 
BRANCH  20  21
ATOM     21  N   UNL     1       2.031   4.995  18.880  0.00  0.00    +0.000 NA
ATOM     22  C   UNL     1       3.168   4.473  18.098  0.00  0.00    +0.000 C 
ATOM     23  C   UNL     1       2.803   3.276  17.215  0.00  0.00    +0.000 C 
ATOM     24  C   UNL     1       2.159   2.164  18.029  0.00  0.00    +0.000 C 
ATOM     25  C   UNL     1       0.958   2.711  18.783  0.00  0.00    +0.000 C 
ATOM     26  C   UNL     1       1.332   3.933  19.625  0.00  0.00    +0.000 C 
ENDBRANCH  20  21
ENDBRANCH   5  20
TORSDOF 4
ENDMDL
