MODEL 1
REMARK VINA RESULT:      -7.3      0.000      0.000
REMARK  Name = 
REMARK  10 active torsions:
REMARK  status: ('A' for Active; 'I' for Inactive)
REMARK    1  A    between atoms: C_1  and  O_2
REMARK    2  A    between atoms: O_2  and  C_3
REMARK    3  A    between atoms: C_6  and  C_7
REMARK    4  A    between atoms: C_10  and  N_11
REMARK    5  A    between atoms: N_11  and  CA_12
REMARK    6  A    between atoms: CA_12  and  CB_13
REMARK    7  A    between atoms: CA_12  and  C_15
REMARK    8  A    between atoms: CB_13  and  OG_14
REMARK    9  A    between atoms: C_15  and  O_16
REMARK   10  A    between atoms: C_17  and  C_18
REMARK                            x       y       z     vdW  Elec       q    Type
REMARK                         _______ _______ _______ _____ _____    ______ ____
ROOT
ATOM      1  C   UNK A   0       2.769   7.358  18.461  0.00  0.00    +0.000 A 
ATOM      2  C   UNK A   0       2.256   8.655  18.151  0.00  0.00    +0.000 A 
ATOM      3  C   UNK A   0       1.493   9.099  19.226  0.00  0.00    +0.000 A 
ATOM      4  C   UNK A   0       0.692  10.281  19.487  0.00  0.00    +0.000 A 
ATOM      5  C   UNK A   0      -0.025  10.279  20.642  0.00  0.00    +0.000 A 
ATOM      6  C   UNK A   0       0.232   9.138  21.578  0.00  0.00    +0.000 A 
ATOM      7  N   UNK A   0       0.973   8.099  21.389  0.00  0.00    +0.000 NA
ATOM      8  N   UNK A   0       1.570   8.104  20.185  0.00  0.00    +0.000 N 
ATOM      9  C   UNK A   0       2.332   7.068  19.732  0.00  0.00    +0.000 A 
ENDROOT
BRANCH   1  13
ATOM     10  C   UNK A   0       4.992   4.653  16.137  0.00  0.00    +0.000 A 
ATOM     11  C   UNK A   0       5.347   5.989  16.076  0.00  0.00    +0.000 A 
ATOM     12  C   UNK A   0       4.620   6.899  16.844  0.00  0.00    +0.000 A 
ATOM     13  C   UNK A   0       3.580   6.449  17.665  0.00  0.00    +0.000 A 
ATOM     14  C   UNK A   0       3.349   5.077  17.689  0.00  0.00    +0.000 A 
ATOM     15  N   UNK A   0       4.023   4.169  16.942  0.00  0.00    +0.000 NA
BRANCH  10  17
ATOM     16  C   UNK A   0       6.723   4.458  14.604  0.00  0.00    +0.000 C 
ATOM     17  O   UNK A   0       5.681   3.790  15.309  0.00  0.00    +0.000 OA
ENDBRANCH  10  17
ENDBRANCH   1  13
BRANCH   5  18
ATOM     18  C   UNK A   0      -1.049  11.251  21.130  0.00  0.00    +0.000 C 
ATOM     19  N   UNK A   0      -0.976  11.703  22.402  0.00  0.00    +0.000 N 
ATOM     20  O   UNK A   0      -1.906  11.709  20.377  0.00  0.00    +0.000 OA
ATOM     21  H   UNK A   0      -0.267  11.397  23.055  0.00  0.00    +0.000 HD
ATOM     22  H   UNK A   0      -1.624  12.434  22.671  0.00  0.00    +0.000 HD
ENDBRANCH   5  18
BRANCH   4  23
ATOM     23  N   SER A   1       0.684  11.278  18.481  0.00  0.00    +0.000 N 
ATOM     24  H   SER A   1       1.334  10.985  17.746  0.00  0.00    +0.000 HD
BRANCH  23  25
ATOM     25  CA  SER A   1       0.991  12.724  18.748  0.00  0.00    +0.000 C 
BRANCH  25  26
ATOM     26  CB  SER A   1       2.263  13.187  18.019  0.00  0.00    +0.000 C 
BRANCH  26  27
ATOM     27  OG  SER A   1       2.857  12.101  17.309  0.00  0.00    +0.000 OA
ATOM     28  H   SER A   1       3.189  12.461  16.467  0.00  0.00    +0.000 HD
ENDBRANCH  26  27
ENDBRANCH  25  26
BRANCH  25  29
ATOM     29  C   SER A   1      -0.218  13.565  18.272  0.00  0.00    +0.000 C 
BRANCH  29  30
ATOM     30  O   SER A   1      -1.109  12.757  17.500  0.00  0.00    +0.000 OA
ATOM     31  H   SER A   1      -1.119  11.886  17.938  0.00  0.00    +0.000 HD
ENDBRANCH  29  30
ENDBRANCH  25  29
ENDBRANCH  23  25
ENDBRANCH   4  23
TORSDOF 9
ENDMDL
MODEL 2
REMARK VINA RESULT:      -7.3      2.278      8.139
REMARK  Name = 
REMARK  10 active torsions:
REMARK  status: ('A' for Active; 'I' for Inactive)
REMARK    1  A    between atoms: C_1  and  O_2
REMARK    2  A    between atoms: O_2  and  C_3
REMARK    3  A    between atoms: C_6  and  C_7
REMARK    4  A    between atoms: C_10  and  N_11
REMARK    5  A    between atoms: N_11  and  CA_12
REMARK    6  A    between atoms: CA_12  and  CB_13
REMARK    7  A    between atoms: CA_12  and  C_15
REMARK    8  A    between atoms: CB_13  and  OG_14
REMARK    9  A    between atoms: C_15  and  O_16
REMARK   10  A    between atoms: C_17  and  C_18
REMARK                            x       y       z     vdW  Elec       q    Type
REMARK                         _______ _______ _______ _____ _____    ______ ____
ROOT
ATOM      1  C   UNK A   0       1.748   7.772  19.861  0.00  0.00    +0.000 A 
ATOM      2  C   UNK A   0       2.452   7.091  18.821  0.00  0.00    +0.000 A 
ATOM      3  C   UNK A   0       2.612   5.760  19.192  0.00  0.00    +0.000 A 
ATOM      4  C   UNK A   0       3.271   4.610  18.599  0.00  0.00    +0.000 A 
ATOM      5  C   UNK A   0       3.315   3.484  19.359  0.00  0.00    +0.000 A 
ATOM      6  C   UNK A   0       2.533   3.517  20.637  0.00  0.00    +0.000 A 
ATOM      7  N   UNK A   0       1.902   4.511  21.163  0.00  0.00    +0.000 NA
ATOM      8  N   UNK A   0       1.986   5.628  20.418  0.00  0.00    +0.000 N 
ATOM      9  C   UNK A   0       1.469   6.824  20.817  0.00  0.00    +0.000 A 
ENDROOT
BRANCH   1  13
ATOM     10  C   UNK A   0       0.733  11.822  20.339  0.00  0.00    +0.000 A 
ATOM     11  C   UNK A   0       0.905  11.354  19.049  0.00  0.00    +0.000 A 
ATOM     12  C   UNK A   0       1.238  10.011  18.873  0.00  0.00    +0.000 A 
ATOM     13  C   UNK A   0       1.369   9.171  19.985  0.00  0.00    +0.000 A 
ATOM     14  C   UNK A   0       1.119   9.737  21.231  0.00  0.00    +0.000 A 
ATOM     15  N   UNK A   0       0.811  11.040  21.438  0.00  0.00    +0.000 NA
BRANCH  10  17
ATOM     16  C   UNK A   0       0.207  13.789  19.228  0.00  0.00    +0.000 C 
ATOM     17  O   UNK A   0       0.478  13.170  20.483  0.00  0.00    +0.000 OA
ENDBRANCH  10  17
ENDBRANCH   1  13
BRANCH   5  18
ATOM     18  C   UNK A   0       4.037   2.198  19.118  0.00  0.00    +0.000 C 
ATOM     19  N   UNK A   0       5.101   1.884  19.890  0.00  0.00    +0.000 N 
ATOM     20  O   UNK A   0       3.633   1.384  18.290  0.00  0.00    +0.000 OA
ATOM     21  H   UNK A   0       5.452   2.493  20.617  0.00  0.00    +0.000 HD
ATOM     22  H   UNK A   0       5.506   0.963  19.768  0.00  0.00    +0.000 HD
ENDBRANCH   5  18
BRANCH   4  23
ATOM     23  N   SER A   1       3.861   4.802  17.325  0.00  0.00    +0.000 N 
ATOM     24  H   SER A   1       3.776   3.923  16.807  0.00  0.00    +0.000 HD
BRANCH  23  25
ATOM     25  CA  SER A   1       5.278   5.259  17.131  0.00  0.00    +0.000 C 
BRANCH  25  26
ATOM     26  CB  SER A   1       6.049   5.326  18.460  0.00  0.00    +0.000 C 
BRANCH  26  27
ATOM     27  OG  SER A   1       6.874   4.173  18.620  0.00  0.00    +0.000 OA
ATOM     28  H   SER A   1       7.796   4.467  18.502  0.00  0.00    +0.000 HD
ENDBRANCH  26  27
ENDBRANCH  25  26
BRANCH  25  29
ATOM     29  C   SER A   1       5.976   4.261  16.175  0.00  0.00    +0.000 C 
BRANCH  29  30
ATOM     30  O   SER A   1       7.314   4.687  15.907  0.00  0.00    +0.000 OA
ATOM     31  H   SER A   1       7.671   4.042  15.269  0.00  0.00    +0.000 HD
ENDBRANCH  29  30
ENDBRANCH  25  29
ENDBRANCH  23  25
ENDBRANCH   4  23
TORSDOF 9
ENDMDL
MODEL 3
REMARK VINA RESULT:      -7.3      2.661      8.284
REMARK  Name = 
REMARK  10 active torsions:
REMARK  status: ('A' for Active; 'I' for Inactive)
REMARK    1  A    between atoms: C_1  and  O_2
REMARK    2  A    between atoms: O_2  and  C_3
REMARK    3  A    between atoms: C_6  and  C_7
REMARK    4  A    between atoms: C_10  and  N_11
REMARK    5  A    between atoms: N_11  and  CA_12
REMARK    6  A    between atoms: CA_12  and  CB_13
REMARK    7  A    between atoms: CA_12  and  C_15
REMARK    8  A    between atoms: CB_13  and  OG_14
REMARK    9  A    between atoms: C_15  and  O_16
REMARK   10  A    between atoms: C_17  and  C_18
REMARK                            x       y       z     vdW  Elec       q    Type
REMARK                         _______ _______ _______ _____ _____    ______ ____
ROOT
ATOM      1  C   UNK A   0       1.833   7.259  20.011  0.00  0.00    +0.000 A 
ATOM      2  C   UNK A   0       2.749   6.604  19.132  0.00  0.00    +0.000 A 
ATOM      3  C   UNK A   0       2.879   5.279  19.534  0.00  0.00    +0.000 A 
ATOM      4  C   UNK A   0       3.681   4.154  19.087  0.00  0.00    +0.000 A 
ATOM      5  C   UNK A   0       3.615   3.029  19.848  0.00  0.00    +0.000 A 
ATOM      6  C   UNK A   0       2.599   3.033  20.949  0.00  0.00    +0.000 A 
ATOM      7  N   UNK A   0       1.844   4.004  21.337  0.00  0.00    +0.000 NA
ATOM      8  N   UNK A   0       2.032   5.124  20.617  0.00  0.00    +0.000 N 
ATOM      9  C   UNK A   0       1.407   6.301  20.901  0.00  0.00    +0.000 A 
ENDROOT
BRANCH   1  13
ATOM     10  C   UNK A   0       0.481  11.238  20.003  0.00  0.00    +0.000 A 
ATOM     11  C   UNK A   0       0.559  10.592  21.223  0.00  0.00    +0.000 A 
ATOM     12  C   UNK A   0       1.009   9.272  21.243  0.00  0.00    +0.000 A 
ATOM     13  C   UNK A   0       1.389   8.644  20.051  0.00  0.00    +0.000 A 
ATOM     14  C   UNK A   0       1.322   9.408  18.891  0.00  0.00    +0.000 A 
ATOM     15  N   UNK A   0       0.872  10.685  18.834  0.00  0.00    +0.000 NA
BRANCH  10  17
ATOM     16  C   UNK A   0      -0.530  12.888  18.723  0.00  0.00    +0.000 C 
ATOM     17  O   UNK A   0      -0.039  12.516  20.008  0.00  0.00    +0.000 OA
ENDBRANCH  10  17
ENDBRANCH   1  13
BRANCH   5  18
ATOM     18  C   UNK A   0       4.414   1.769  19.759  0.00  0.00    +0.000 C 
ATOM     19  N   UNK A   0       4.241   0.953  18.696  0.00  0.00    +0.000 N 
ATOM     20  O   UNK A   0       5.281   1.502  20.588  0.00  0.00    +0.000 OA
ATOM     21  H   UNK A   0       3.575   1.143  17.959  0.00  0.00    +0.000 HD
ATOM     22  H   UNK A   0       4.867   0.160  18.614  0.00  0.00    +0.000 HD
ENDBRANCH   5  18
BRANCH   4  23
ATOM     23  N   SER A   1       4.499   4.367  17.951  0.00  0.00    +0.000 N 
ATOM     24  H   SER A   1       4.248   3.665  17.250  0.00  0.00    +0.000 HD
BRANCH  23  25
ATOM     25  CA  SER A   1       6.000   4.378  18.004  0.00  0.00    +0.000 C 
BRANCH  25  26
ATOM     26  CB  SER A   1       6.625   4.454  16.602  0.00  0.00    +0.000 C 
BRANCH  26  27
ATOM     27  OG  SER A   1       8.049   4.492  16.689  0.00  0.00    +0.000 OA
ATOM     28  H   SER A   1       8.271   5.121  17.400  0.00  0.00    +0.000 HD
ENDBRANCH  26  27
ENDBRANCH  25  26
BRANCH  25  29
ATOM     29  C   SER A   1       6.440   5.605  18.838  0.00  0.00    +0.000 C 
BRANCH  29  30
ATOM     30  O   SER A   1       7.601   5.287  19.609  0.00  0.00    +0.000 OA
ATOM     31  H   SER A   1       7.305   5.279  20.538  0.00  0.00    +0.000 HD
ENDBRANCH  29  30
ENDBRANCH  25  29
ENDBRANCH  23  25
ENDBRANCH   4  23
TORSDOF 9
ENDMDL
MODEL 4
REMARK VINA RESULT:      -7.3      2.638      8.358
REMARK  Name = 
REMARK  10 active torsions:
REMARK  status: ('A' for Active; 'I' for Inactive)
REMARK    1  A    between atoms: C_1  and  O_2
REMARK    2  A    between atoms: O_2  and  C_3
REMARK    3  A    between atoms: C_6  and  C_7
REMARK    4  A    between atoms: C_10  and  N_11
REMARK    5  A    between atoms: N_11  and  CA_12
REMARK    6  A    between atoms: CA_12  and  CB_13
REMARK    7  A    between atoms: CA_12  and  C_15
REMARK    8  A    between atoms: CB_13  and  OG_14
REMARK    9  A    between atoms: C_15  and  O_16
REMARK   10  A    between atoms: C_17  and  C_18
REMARK                            x       y       z     vdW  Elec       q    Type
REMARK                         _______ _______ _______ _____ _____    ______ ____
ROOT
ATOM      1  C   UNK A   0       1.747   7.414  20.249  0.00  0.00    +0.000 A 
ATOM      2  C   UNK A   0       2.690   6.853  19.335  0.00  0.00    +0.000 A 
ATOM      3  C   UNK A   0       2.753   5.480  19.550  0.00  0.00    +0.000 A 
ATOM      4  C   UNK A   0       3.541   4.398  18.989  0.00  0.00    +0.000 A 
ATOM      5  C   UNK A   0       3.393   3.180  19.576  0.00  0.00    +0.000 A 
ATOM      6  C   UNK A   0       2.316   3.070  20.611  0.00  0.00    +0.000 A 
ATOM      7  N   UNK A   0       1.572   4.007  21.093  0.00  0.00    +0.000 NA
ATOM      8  N   UNK A   0       1.839   5.209  20.552  0.00  0.00    +0.000 N 
ATOM      9  C   UNK A   0       1.238   6.358  20.968  0.00  0.00    +0.000 A 
ENDROOT
BRANCH   1  13
ATOM     10  C   UNK A   0       0.685  11.414  20.981  0.00  0.00    +0.000 A 
ATOM     11  C   UNK A   0       0.733  10.996  19.664  0.00  0.00    +0.000 A 
ATOM     12  C   UNK A   0       1.080   9.671  19.404  0.00  0.00    +0.000 A 
ATOM     13  C   UNK A   0       1.347   8.797  20.465  0.00  0.00    +0.000 A 
ATOM     14  C   UNK A   0       1.215   9.312  21.750  0.00  0.00    +0.000 A 
ATOM     15  N   UNK A   0       0.898  10.598  22.036  0.00  0.00    +0.000 NA
BRANCH  10  17
ATOM     16  C   UNK A   0      -0.643  12.920  22.144  0.00  0.00    +0.000 C 
ATOM     17  O   UNK A   0       0.412  12.748  21.201  0.00  0.00    +0.000 OA
ENDBRANCH  10  17
ENDBRANCH   1  13
BRANCH   5  18
ATOM     18  C   UNK A   0       4.154   1.913  19.349  0.00  0.00    +0.000 C 
ATOM     19  N   UNK A   0       5.214   1.631  20.138  0.00  0.00    +0.000 N 
ATOM     20  O   UNK A   0       3.785   1.087  18.517  0.00  0.00    +0.000 OA
ATOM     21  H   UNK A   0       5.537   2.251  20.868  0.00  0.00    +0.000 HD
ATOM     22  H   UNK A   0       5.646   0.721  20.024  0.00  0.00    +0.000 HD
ENDBRANCH   5  18
BRANCH   4  23
ATOM     23  N   SER A   1       4.431   4.735  17.940  0.00  0.00    +0.000 N 
ATOM     24  H   SER A   1       4.150   4.208  17.110  0.00  0.00    +0.000 HD
BRANCH  23  25
ATOM     25  CA  SER A   1       5.921   4.582  18.040  0.00  0.00    +0.000 C 
BRANCH  25  26
ATOM     26  CB  SER A   1       6.637   5.067  16.768  0.00  0.00    +0.000 C 
BRANCH  26  27
ATOM     27  OG  SER A   1       7.900   4.419  16.626  0.00  0.00    +0.000 OA
ATOM     28  H   SER A   1       8.414   4.622  17.430  0.00  0.00    +0.000 HD
ENDBRANCH  26  27
ENDBRANCH  25  26
BRANCH  25  29
ATOM     29  C   SER A   1       6.407   5.406  19.257  0.00  0.00    +0.000 C 
BRANCH  29  30
ATOM     30  O   SER A   1       7.822   5.272  19.411  0.00  0.00    +0.000 OA
ATOM     31  H   SER A   1       8.067   4.478  18.900  0.00  0.00    +0.000 HD
ENDBRANCH  29  30
ENDBRANCH  25  29
ENDBRANCH  23  25
ENDBRANCH   4  23
TORSDOF 9
ENDMDL
MODEL 5
REMARK VINA RESULT:      -7.3      0.700      1.016
REMARK  Name = 
REMARK  10 active torsions:
REMARK  status: ('A' for Active; 'I' for Inactive)
REMARK    1  A    between atoms: C_1  and  O_2
REMARK    2  A    between atoms: O_2  and  C_3
REMARK    3  A    between atoms: C_6  and  C_7
REMARK    4  A    between atoms: C_10  and  N_11
REMARK    5  A    between atoms: N_11  and  CA_12
REMARK    6  A    between atoms: CA_12  and  CB_13
REMARK    7  A    between atoms: CA_12  and  C_15
REMARK    8  A    between atoms: CB_13  and  OG_14
REMARK    9  A    between atoms: C_15  and  O_16
REMARK   10  A    between atoms: C_17  and  C_18
REMARK                            x       y       z     vdW  Elec       q    Type
REMARK                         _______ _______ _______ _____ _____    ______ ____
ROOT
ATOM      1  C   UNK A   0       2.911   7.373  18.336  0.00  0.00    +0.000 A 
ATOM      2  C   UNK A   0       2.337   8.654  18.068  0.00  0.00    +0.000 A 
ATOM      3  C   UNK A   0       1.565   9.032  19.161  0.00  0.00    +0.000 A 
ATOM      4  C   UNK A   0       0.714  10.169  19.461  0.00  0.00    +0.000 A 
ATOM      5  C   UNK A   0       0.008  10.102  20.621  0.00  0.00    +0.000 A 
ATOM      6  C   UNK A   0       0.324   8.948  21.522  0.00  0.00    +0.000 A 
ATOM      7  N   UNK A   0       1.108   7.949  21.298  0.00  0.00    +0.000 NA
ATOM      8  N   UNK A   0       1.695   8.015  20.090  0.00  0.00    +0.000 N 
ATOM      9  C   UNK A   0       2.498   7.028  19.602  0.00  0.00    +0.000 A 
ENDROOT
BRANCH   1  13
ATOM     10  C   UNK A   0       5.459   5.008  15.976  0.00  0.00    +0.000 A 
ATOM     11  C   UNK A   0       4.486   4.358  16.714  0.00  0.00    +0.000 A 
ATOM     12  C   UNK A   0       3.630   5.130  17.500  0.00  0.00    +0.000 A 
ATOM     13  C   UNK A   0       3.755   6.524  17.509  0.00  0.00    +0.000 A 
ATOM     14  C   UNK A   0       4.733   7.072  16.685  0.00  0.00    +0.000 A 
ATOM     15  N   UNK A   0       5.592   6.351  15.925  0.00  0.00    +0.000 NA
BRANCH  10  17
ATOM     16  C   UNK A   0       5.877   3.977  13.940  0.00  0.00    +0.000 C 
ATOM     17  O   UNK A   0       6.337   4.212  15.269  0.00  0.00    +0.000 OA
ENDBRANCH  10  17
ENDBRANCH   1  13
BRANCH   5  18
ATOM     18  C   UNK A   0      -1.055  11.013  21.145  0.00  0.00    +0.000 C 
ATOM     19  N   UNK A   0      -1.172  11.191  22.479  0.00  0.00    +0.000 N 
ATOM     20  O   UNK A   0      -1.769  11.664  20.386  0.00  0.00    +0.000 OA
ATOM     21  H   UNK A   0      -0.584  10.716  23.151  0.00  0.00    +0.000 HD
ATOM     22  H   UNK A   0      -1.835  11.889  22.797  0.00  0.00    +0.000 HD
ENDBRANCH   5  18
BRANCH   4  23
ATOM     23  N   SER A   1       0.653  11.193  18.485  0.00  0.00    +0.000 N 
ATOM     24  H   SER A   1       1.199  10.886  17.676  0.00  0.00    +0.000 HD
BRANCH  23  25
ATOM     25  CA  SER A   1       1.070  12.611  18.748  0.00  0.00    +0.000 C 
BRANCH  25  26
ATOM     26  CB  SER A   1       2.403  12.956  18.062  0.00  0.00    +0.000 C 
BRANCH  26  27
ATOM     27  OG  SER A   1       2.747  11.955  17.105  0.00  0.00    +0.000 OA
ATOM     28  H   SER A   1       2.684  12.372  16.225  0.00  0.00    +0.000 HD
ENDBRANCH  26  27
ENDBRANCH  25  26
BRANCH  25  29
ATOM     29  C   SER A   1      -0.045  13.545  18.217  0.00  0.00    +0.000 C 
BRANCH  29  30
ATOM     30  O   SER A   1      -1.081  12.776  17.603  0.00  0.00    +0.000 OA
ATOM     31  H   SER A   1      -1.238  12.021  18.201  0.00  0.00    +0.000 HD
ENDBRANCH  29  30
ENDBRANCH  25  29
ENDBRANCH  23  25
ENDBRANCH   4  23
TORSDOF 9
ENDMDL
MODEL 6
REMARK VINA RESULT:      -7.3      2.217      8.052
REMARK  Name = 
REMARK  10 active torsions:
REMARK  status: ('A' for Active; 'I' for Inactive)
REMARK    1  A    between atoms: C_1  and  O_2
REMARK    2  A    between atoms: O_2  and  C_3
REMARK    3  A    between atoms: C_6  and  C_7
REMARK    4  A    between atoms: C_10  and  N_11
REMARK    5  A    between atoms: N_11  and  CA_12
REMARK    6  A    between atoms: CA_12  and  CB_13
REMARK    7  A    between atoms: CA_12  and  C_15
REMARK    8  A    between atoms: CB_13  and  OG_14
REMARK    9  A    between atoms: C_15  and  O_16
REMARK   10  A    between atoms: C_17  and  C_18
REMARK                            x       y       z     vdW  Elec       q    Type
REMARK                         _______ _______ _______ _____ _____    ______ ____
ROOT
ATOM      1  C   UNK A   0       1.707   7.872  19.783  0.00  0.00    +0.000 A 
ATOM      2  C   UNK A   0       2.488   7.193  18.798  0.00  0.00    +0.000 A 
ATOM      3  C   UNK A   0       2.620   5.861  19.178  0.00  0.00    +0.000 A 
ATOM      4  C   UNK A   0       3.323   4.713  18.635  0.00  0.00    +0.000 A 
ATOM      5  C   UNK A   0       3.310   3.585  19.394  0.00  0.00    +0.000 A 
ATOM      6  C   UNK A   0       2.434   3.616  20.608  0.00  0.00    +0.000 A 
ATOM      7  N   UNK A   0       1.764   4.609  21.087  0.00  0.00    +0.000 NA
ATOM      8  N   UNK A   0       1.903   5.727  20.353  0.00  0.00    +0.000 N 
ATOM      9  C   UNK A   0       1.357   6.922  20.714  0.00  0.00    +0.000 A 
ENDROOT
BRANCH   1  13
ATOM     10  C   UNK A   0       0.520  11.900  19.937  0.00  0.00    +0.000 A 
ATOM     11  C   UNK A   0       0.517  11.187  21.122  0.00  0.00    +0.000 A 
ATOM     12  C   UNK A   0       0.911   9.850  21.088  0.00  0.00    +0.000 A 
ATOM     13  C   UNK A   0       1.318   9.270  19.881  0.00  0.00    +0.000 A 
ATOM     14  C   UNK A   0       1.334  10.098  18.762  0.00  0.00    +0.000 A 
ATOM     15  N   UNK A   0       0.940  11.394  18.758  0.00  0.00    +0.000 NA
BRANCH  10  17
ATOM     16  C   UNK A   0      -0.224  13.710  18.690  0.00  0.00    +0.000 C 
ATOM     17  O   UNK A   0       0.054  13.198  19.991  0.00  0.00    +0.000 OA
ENDBRANCH  10  17
ENDBRANCH   1  13
BRANCH   5  18
ATOM     18  C   UNK A   0       4.049   2.300  19.206  0.00  0.00    +0.000 C 
ATOM     19  N   UNK A   0       5.146   2.055  19.955  0.00  0.00    +0.000 N 
ATOM     20  O   UNK A   0       3.632   1.429  18.445  0.00  0.00    +0.000 OA
ATOM     21  H   UNK A   0       5.511   2.714  20.629  0.00  0.00    +0.000 HD
ATOM     22  H   UNK A   0       5.566   1.136  19.875  0.00  0.00    +0.000 HD
ENDBRANCH   5  18
BRANCH   4  23
ATOM     23  N   SER A   1       4.007   4.908  17.410  0.00  0.00    +0.000 N 
ATOM     24  H   SER A   1       4.154   3.988  16.985  0.00  0.00    +0.000 HD
BRANCH  23  25
ATOM     25  CA  SER A   1       5.322   5.624  17.302  0.00  0.00    +0.000 C 
BRANCH  25  26
ATOM     26  CB  SER A   1       6.223   5.360  18.520  0.00  0.00    +0.000 C 
BRANCH  26  27
ATOM     27  OG  SER A   1       6.939   4.136  18.356  0.00  0.00    +0.000 OA
ATOM     28  H   SER A   1       7.533   4.255  17.592  0.00  0.00    +0.000 HD
ENDBRANCH  26  27
ENDBRANCH  25  26
BRANCH  25  29
ATOM     29  C   SER A   1       6.030   5.136  16.015  0.00  0.00    +0.000 C 
BRANCH  29  30
ATOM     30  O   SER A   1       7.297   5.781  15.873  0.00  0.00    +0.000 OA
ATOM     31  H   SER A   1       7.964   5.085  16.024  0.00  0.00    +0.000 HD
ENDBRANCH  29  30
ENDBRANCH  25  29
ENDBRANCH  23  25
ENDBRANCH   4  23
TORSDOF 9
ENDMDL
MODEL 7
REMARK VINA RESULT:      -7.2      2.835      8.509
REMARK  Name = 
REMARK  10 active torsions:
REMARK  status: ('A' for Active; 'I' for Inactive)
REMARK    1  A    between atoms: C_1  and  O_2
REMARK    2  A    between atoms: O_2  and  C_3
REMARK    3  A    between atoms: C_6  and  C_7
REMARK    4  A    between atoms: C_10  and  N_11
REMARK    5  A    between atoms: N_11  and  CA_12
REMARK    6  A    between atoms: CA_12  and  CB_13
REMARK    7  A    between atoms: CA_12  and  C_15
REMARK    8  A    between atoms: CB_13  and  OG_14
REMARK    9  A    between atoms: C_15  and  O_16
REMARK   10  A    between atoms: C_17  and  C_18
REMARK                            x       y       z     vdW  Elec       q    Type
REMARK                         _______ _______ _______ _____ _____    ______ ____
ROOT
ATOM      1  C   UNK A   0       1.375   8.849  19.271  0.00  0.00    +0.000 A 
ATOM      2  C   UNK A   0       1.576   7.643  20.011  0.00  0.00    +0.000 A 
ATOM      3  C   UNK A   0       2.555   6.890  19.372  0.00  0.00    +0.000 A 
ATOM      4  C   UNK A   0       3.144   5.583  19.602  0.00  0.00    +0.000 A 
ATOM      5  C   UNK A   0       4.004   5.135  18.648  0.00  0.00    +0.000 A 
ATOM      6  C   UNK A   0       4.366   6.112  17.572  0.00  0.00    +0.000 A 
ATOM      7  N   UNK A   0       3.891   7.294  17.373  0.00  0.00    +0.000 NA
ATOM      8  N   UNK A   0       2.965   7.639  18.284  0.00  0.00    +0.000 N 
ATOM      9  C   UNK A   0       2.265   8.807  18.224  0.00  0.00    +0.000 A 
ENDROOT
BRANCH   1  13
ATOM     10  C   UNK A   0      -1.257  12.037  20.024  0.00  0.00    +0.000 A 
ATOM     11  C   UNK A   0      -0.798  11.880  18.729  0.00  0.00    +0.000 A 
ATOM     12  C   UNK A   0       0.074  10.825  18.462  0.00  0.00    +0.000 A 
ATOM     13  C   UNK A   0       0.443   9.945  19.487  0.00  0.00    +0.000 A 
ATOM     14  C   UNK A   0      -0.124  10.167  20.738  0.00  0.00    +0.000 A 
ATOM     15  N   UNK A   0      -0.958  11.192  21.035  0.00  0.00    +0.000 NA
BRANCH  10  17
ATOM     16  C   UNK A   0      -3.374  12.746  20.657  0.00  0.00    +0.000 C 
ATOM     17  O   UNK A   0      -2.057  13.134  20.271  0.00  0.00    +0.000 OA
ENDBRANCH  10  17
ENDBRANCH   1  13
BRANCH   5  18
ATOM     18  C   UNK A   0       4.652   3.796  18.502  0.00  0.00    +0.000 C 
ATOM     19  N   UNK A   0       5.570   3.612  17.527  0.00  0.00    +0.000 N 
ATOM     20  O   UNK A   0       4.430   2.888  19.299  0.00  0.00    +0.000 OA
ATOM     21  H   UNK A   0       5.827   4.335  16.869  0.00  0.00    +0.000 HD
ATOM     22  H   UNK A   0       6.062   2.726  17.516  0.00  0.00    +0.000 HD
ENDBRANCH   5  18
BRANCH   4  23
ATOM     23  N   SER A   1       2.709   4.882  20.753  0.00  0.00    +0.000 N 
ATOM     24  H   SER A   1       3.448   4.225  21.017  0.00  0.00    +0.000 HD
BRANCH  23  25
ATOM     25  CA  SER A   1       1.427   4.102  20.810  0.00  0.00    +0.000 C 
BRANCH  25  26
ATOM     26  CB  SER A   1       1.032   3.542  19.434  0.00  0.00    +0.000 C 
BRANCH  26  27
ATOM     27  OG  SER A   1       1.534   2.216  19.269  0.00  0.00    +0.000 OA
ATOM     28  H   SER A   1       0.800   1.609  19.479  0.00  0.00    +0.000 HD
ENDBRANCH  26  27
ENDBRANCH  25  26
BRANCH  25  29
ATOM     29  C   SER A   1       1.621   2.936  21.810  0.00  0.00    +0.000 C 
BRANCH  29  30
ATOM     30  O   SER A   1       2.993   2.541  21.848  0.00  0.00    +0.000 OA
ATOM     31  H   SER A   1       2.985   1.565  21.846  0.00  0.00    +0.000 HD
ENDBRANCH  29  30
ENDBRANCH  25  29
ENDBRANCH  23  25
ENDBRANCH   4  23
TORSDOF 9
ENDMDL
MODEL 8
REMARK VINA RESULT:      -7.2      2.841      8.770
REMARK  Name = 
REMARK  10 active torsions:
REMARK  status: ('A' for Active; 'I' for Inactive)
REMARK    1  A    between atoms: C_1  and  O_2
REMARK    2  A    between atoms: O_2  and  C_3
REMARK    3  A    between atoms: C_6  and  C_7
REMARK    4  A    between atoms: C_10  and  N_11
REMARK    5  A    between atoms: N_11  and  CA_12
REMARK    6  A    between atoms: CA_12  and  CB_13
REMARK    7  A    between atoms: CA_12  and  C_15
REMARK    8  A    between atoms: CB_13  and  OG_14
REMARK    9  A    between atoms: C_15  and  O_16
REMARK   10  A    between atoms: C_17  and  C_18
REMARK                            x       y       z     vdW  Elec       q    Type
REMARK                         _______ _______ _______ _____ _____    ______ ____
ROOT
ATOM      1  C   UNK A   0       0.981   8.869  20.532  0.00  0.00    +0.000 A 
ATOM      2  C   UNK A   0       1.389   7.561  20.936  0.00  0.00    +0.000 A 
ATOM      3  C   UNK A   0       2.189   7.018  19.936  0.00  0.00    +0.000 A 
ATOM      4  C   UNK A   0       2.845   5.738  19.741  0.00  0.00    +0.000 A 
ATOM      5  C   UNK A   0       3.444   5.547  18.535  0.00  0.00    +0.000 A 
ATOM      6  C   UNK A   0       3.499   6.738  17.628  0.00  0.00    +0.000 A 
ATOM      7  N   UNK A   0       2.964   7.899  17.798  0.00  0.00    +0.000 NA
ATOM      8  N   UNK A   0       2.293   7.992  18.959  0.00  0.00    +0.000 N 
ATOM      9  C   UNK A   0       1.576   9.096  19.313  0.00  0.00    +0.000 A 
ENDROOT
BRANCH   1  13
ATOM     10  C   UNK A   0      -1.613  11.655  22.313  0.00  0.00    +0.000 A 
ATOM     11  C   UNK A   0      -1.072  10.675  23.126  0.00  0.00    +0.000 A 
ATOM     12  C   UNK A   0      -0.206   9.745  22.550  0.00  0.00    +0.000 A 
ATOM     13  C   UNK A   0       0.111   9.833  21.190  0.00  0.00    +0.000 A 
ATOM     14  C   UNK A   0      -0.449  10.892  20.483  0.00  0.00    +0.000 A 
ATOM     15  N   UNK A   0      -1.306  11.801  21.006  0.00  0.00    +0.000 NA
BRANCH  10  17
ATOM     16  C   UNK A   0      -3.652  12.732  22.054  0.00  0.00    +0.000 C 
ATOM     17  O   UNK A   0      -2.523  12.513  22.896  0.00  0.00    +0.000 OA
ENDBRANCH  10  17
ENDBRANCH   1  13
BRANCH   5  18
ATOM     18  C   UNK A   0       4.062   4.313  17.962  0.00  0.00    +0.000 C 
ATOM     19  N   UNK A   0       4.648   3.422  18.793  0.00  0.00    +0.000 N 
ATOM     20  O   UNK A   0       3.976   4.052  16.764  0.00  0.00    +0.000 OA
ATOM     21  H   UNK A   0       4.710   3.561  19.792  0.00  0.00    +0.000 HD
ATOM     22  H   UNK A   0       4.969   2.551  18.386  0.00  0.00    +0.000 HD
ENDBRANCH   5  18
BRANCH   4  23
ATOM     23  N   SER A   1       2.731   4.798  20.794  0.00  0.00    +0.000 N 
ATOM     24  H   SER A   1       3.552   4.187  20.757  0.00  0.00    +0.000 HD
BRANCH  23  25
ATOM     25  CA  SER A   1       1.549   3.888  20.966  0.00  0.00    +0.000 C 
BRANCH  25  26
ATOM     26  CB  SER A   1       0.959   3.450  19.616  0.00  0.00    +0.000 C 
BRANCH  26  27
ATOM     27  OG  SER A   1       1.600   2.263  19.151  0.00  0.00    +0.000 OA
ATOM     28  H   SER A   1       2.005   1.837  19.929  0.00  0.00    +0.000 HD
ENDBRANCH  26  27
ENDBRANCH  25  26
BRANCH  25  29
ATOM     29  C   SER A   1       2.015   2.643  21.759  0.00  0.00    +0.000 C 
BRANCH  29  30
ATOM     30  O   SER A   1       3.397   2.383  21.504  0.00  0.00    +0.000 OA
ATOM     31  H   SER A   1       3.735   1.950  22.310  0.00  0.00    +0.000 HD
ENDBRANCH  29  30
ENDBRANCH  25  29
ENDBRANCH  23  25
ENDBRANCH   4  23
TORSDOF 9
ENDMDL
MODEL 9
REMARK VINA RESULT:      -7.1      2.467      8.079
REMARK  Name = 
REMARK  10 active torsions:
REMARK  status: ('A' for Active; 'I' for Inactive)
REMARK    1  A    between atoms: C_1  and  O_2
REMARK    2  A    between atoms: O_2  and  C_3
REMARK    3  A    between atoms: C_6  and  C_7
REMARK    4  A    between atoms: C_10  and  N_11
REMARK    5  A    between atoms: N_11  and  CA_12
REMARK    6  A    between atoms: CA_12  and  CB_13
REMARK    7  A    between atoms: CA_12  and  C_15
REMARK    8  A    between atoms: CB_13  and  OG_14
REMARK    9  A    between atoms: C_15  and  O_16
REMARK   10  A    between atoms: C_17  and  C_18
REMARK                            x       y       z     vdW  Elec       q    Type
REMARK                         _______ _______ _______ _____ _____    ______ ____
ROOT
ATOM      1  C   UNK A   0       1.747   7.662  20.065  0.00  0.00    +0.000 A 
ATOM      2  C   UNK A   0       2.617   7.042  19.117  0.00  0.00    +0.000 A 
ATOM      3  C   UNK A   0       2.738   5.695  19.442  0.00  0.00    +0.000 A 
ATOM      4  C   UNK A   0       3.502   4.583  18.905  0.00  0.00    +0.000 A 
ATOM      5  C   UNK A   0       3.444   3.420  19.606  0.00  0.00    +0.000 A 
ATOM      6  C   UNK A   0       2.469   3.380  20.743  0.00  0.00    +0.000 A 
ATOM      7  N   UNK A   0       1.747   4.340  21.211  0.00  0.00    +0.000 NA
ATOM      8  N   UNK A   0       1.929   5.495  20.546  0.00  0.00    +0.000 N 
ATOM      9  C   UNK A   0       1.336   6.664  20.917  0.00  0.00    +0.000 A 
ENDROOT
BRANCH   1  13
ATOM     10  C   UNK A   0       0.623  11.681  20.565  0.00  0.00    +0.000 A 
ATOM     11  C   UNK A   0       0.795  11.222  19.271  0.00  0.00    +0.000 A 
ATOM     12  C   UNK A   0       1.165   9.890  19.088  0.00  0.00    +0.000 A 
ATOM     13  C   UNK A   0       1.329   9.050  20.197  0.00  0.00    +0.000 A 
ATOM     14  C   UNK A   0       1.075   9.606  21.447  0.00  0.00    +0.000 A 
ATOM     15  N   UNK A   0       0.733  10.899  21.660  0.00  0.00    +0.000 NA
BRANCH  10  17
ATOM     16  C   UNK A   0       1.498  13.829  20.593  0.00  0.00    +0.000 C 
ATOM     17  O   UNK A   0       0.331  13.021  20.715  0.00  0.00    +0.000 OA
ENDBRANCH  10  17
ENDBRANCH   1  13
BRANCH   5  18
ATOM     18  C   UNK A   0       4.216   2.154  19.418  0.00  0.00    +0.000 C 
ATOM     19  N   UNK A   0       4.007   1.413  18.308  0.00  0.00    +0.000 N 
ATOM     20  O   UNK A   0       5.093   1.817  20.211  0.00  0.00    +0.000 OA
ATOM     21  H   UNK A   0       3.331   1.663  17.599  0.00  0.00    +0.000 HD
ATOM     22  H   UNK A   0       4.615   0.615  18.162  0.00  0.00    +0.000 HD
ENDBRANCH   5  18
BRANCH   4  23
ATOM     23  N   SER A   1       4.282   4.845  17.752  0.00  0.00    +0.000 N 
ATOM     24  H   SER A   1       4.308   3.989  17.192  0.00  0.00    +0.000 HD
BRANCH  23  25
ATOM     25  CA  SER A   1       5.697   5.343  17.808  0.00  0.00    +0.000 C 
BRANCH  25  26
ATOM     26  CB  SER A   1       6.681   4.354  17.163  0.00  0.00    +0.000 C 
BRANCH  26  27
ATOM     27  OG  SER A   1       7.882   4.269  17.930  0.00  0.00    +0.000 OA
ATOM     28  H   SER A   1       8.267   3.391  17.755  0.00  0.00    +0.000 HD
ENDBRANCH  26  27
ENDBRANCH  25  26
BRANCH  25  29
ATOM     29  C   SER A   1       5.757   6.699  17.062  0.00  0.00    +0.000 C 
BRANCH  29  30
ATOM     30  O   SER A   1       7.115   7.115  16.903  0.00  0.00    +0.000 OA
ATOM     31  H   SER A   1       7.647   6.471  17.406  0.00  0.00    +0.000 HD
ENDBRANCH  29  30
ENDBRANCH  25  29
ENDBRANCH  23  25
ENDBRANCH   4  23
TORSDOF 9
ENDMDL
