MODEL 1
REMARK VINA RESULT:      -9.4      0.000      0.000
REMARK  Name = 
REMARK  7 active torsions:
REMARK  status: ('A' for Active; 'I' for Inactive)
REMARK    1  A    between atoms: C_1  and  C_2
REMARK    2  A    between atoms: N_4  and  C_5
REMARK    3  A    between atoms: C_11  and  S_12
REMARK    4  A    between atoms: S_12  and  C_13
REMARK    5  A    between atoms: C_19  and  C_20
REMARK    6  A    between atoms: N_23  and  C_24
REMARK    7  A    between atoms: C_32  and  C_33
REMARK                            x       y       z     vdW  Elec       q    Type
REMARK                         _______ _______ _______ _____ _____    ______ ____
ROOT
ATOM      1  C   UNL     1       2.843   6.958  18.532  0.00  0.00    +0.000 A 
ATOM      2  C   UNL     1       2.534   6.689  19.867  0.00  0.00    +0.000 A 
ATOM      3  N   UNL     1       1.721   7.426  20.667  0.00  0.00    +0.000 NA
ATOM      4  C   UNL     1       1.148   8.514  20.135  0.00  0.00    +0.000 A 
ATOM      5  C   UNL     1       0.298   9.286  20.912  0.00  0.00    +0.000 A 
ATOM      6  C   UNL     1      -0.334  10.430  20.404  0.00  0.00    +0.000 A 
ATOM      7  C   UNL     1      -0.128  10.815  19.079  0.00  0.00    +0.000 A 
ATOM      8  C   UNL     1       0.743  10.055  18.290  0.00  0.00    +0.000 A 
ATOM      9  C   UNL     1       1.380   8.907  18.806  0.00  0.00    +0.000 A 
ATOM     10  C   UNL     1       2.249   8.117  18.026  0.00  0.00    +0.000 A 
ENDROOT
BRANCH   1  14
ATOM     11  C   UNL     1       4.258   3.532  19.463  0.00  0.00    +0.000 C 
ATOM     12  C   UNL     1       4.392   3.777  17.961  0.00  0.00    +0.000 C 
ATOM     13  C   UNL     1       3.335   4.760  17.416  0.00  0.00    +0.000 C 
ATOM     14  N   UNL     1       3.663   6.144  17.782  0.00  0.00    +0.000 N 
ATOM     15  C   UNL     1       5.034   6.546  17.425  0.00  0.00    +0.000 C 
ATOM     16  C   UNL     1       6.041   5.528  18.009  0.00  0.00    +0.000 C 
ATOM     17  C   UNL     1       7.456   5.833  17.534  0.00  0.00    +0.000 C 
ATOM     18  O   UNL     1       5.731   4.178  17.609  0.00  0.00    +0.000 OA
ENDBRANCH   1  14
BRANCH   7  19
ATOM     19  S   UNL     1      -0.848  12.301  18.397  0.00  0.00    +0.000 S 
BRANCH  19  20
ATOM     20  C   UNL     1      -2.355  11.711  17.772  0.00  0.00    +0.000 A 
ATOM     21  N   UNL     1      -2.557  11.085  16.632  0.00  0.00    +0.000 NA
ATOM     22  N   UNL     1      -3.888  10.746  16.560  0.00  0.00    +0.000 NA
ATOM     23  C   UNL     1      -4.472  11.179  17.655  0.00  0.00    +0.000 A 
ATOM     24  C   UNL     1      -5.808  11.100  18.122  0.00  0.00    +0.000 A 
ATOM     25  C   UNL     1      -6.132  11.650  19.309  0.00  0.00    +0.000 A 
ATOM     26  C   UNL     1      -5.148  12.349  20.153  0.00  0.00    +0.000 A 
ATOM     27  C   UNL     1      -3.880  12.412  19.686  0.00  0.00    +0.000 A 
ATOM     28  N   UNL     1      -3.545  11.827  18.462  0.00  0.00    +0.000 N 
BRANCH  26  29
ATOM     29  C   UNL     1      -5.545  12.912  21.410  0.00  0.00    +0.000 A 
ATOM     30  C   UNL     1      -4.851  13.836  22.224  0.00  0.00    +0.000 A 
ATOM     31  N   UNL     1      -5.523  14.145  23.337  0.00  0.00    +0.000 NA
ATOM     32  N   UNL     1      -6.650  13.420  23.237  0.00  0.00    +0.000 N 
ATOM     33  C   UNL     1      -7.652  13.497  24.272  0.00  0.00    +0.000 C 
ATOM     34  C   UNL     1      -6.711  12.662  22.100  0.00  0.00    +0.000 A 
ENDBRANCH  26  29
ENDBRANCH  19  20
ENDBRANCH   7  19
TORSDOF 4
ENDMDL
MODEL 2
REMARK VINA RESULT:      -9.1      1.606      2.268
REMARK  Name = 
REMARK  7 active torsions:
REMARK  status: ('A' for Active; 'I' for Inactive)
REMARK    1  A    between atoms: C_1  and  C_2
REMARK    2  A    between atoms: N_4  and  C_5
REMARK    3  A    between atoms: C_11  and  S_12
REMARK    4  A    between atoms: S_12  and  C_13
REMARK    5  A    between atoms: C_19  and  C_20
REMARK    6  A    between atoms: N_23  and  C_24
REMARK    7  A    between atoms: C_32  and  C_33
REMARK                            x       y       z     vdW  Elec       q    Type
REMARK                         _______ _______ _______ _____ _____    ______ ____
ROOT
ATOM      1  C   UNL     1       3.893   5.576  18.683  0.00  0.00    +0.000 A 
ATOM      2  C   UNL     1       3.340   5.120  19.882  0.00  0.00    +0.000 A 
ATOM      3  N   UNL     1       2.412   5.765  20.635  0.00  0.00    +0.000 NA
ATOM      4  C   UNL     1       1.968   6.949  20.192  0.00  0.00    +0.000 A 
ATOM      5  C   UNL     1       1.008   7.634  20.921  0.00  0.00    +0.000 A 
ATOM      6  C   UNL     1       0.504   8.872  20.500  0.00  0.00    +0.000 A 
ATOM      7  C   UNL     1       0.955   9.447  19.310  0.00  0.00    +0.000 A 
ATOM      8  C   UNL     1       1.938   8.774  18.575  0.00  0.00    +0.000 A 
ATOM      9  C   UNL     1       2.446   7.530  19.004  0.00  0.00    +0.000 A 
ATOM     10  C   UNL     1       3.425   6.827  18.274  0.00  0.00    +0.000 A 
ENDROOT
BRANCH   1  14
ATOM     11  C   UNL     1       7.341   6.686  17.465  0.00  0.00    +0.000 C 
ATOM     12  C   UNL     1       7.214   5.166  17.401  0.00  0.00    +0.000 C 
ATOM     13  C   UNL     1       6.195   4.604  18.414  0.00  0.00    +0.000 C 
ATOM     14  N   UNL     1       4.818   4.847  17.968  0.00  0.00    +0.000 N 
ATOM     15  C   UNL     1       4.546   4.390  16.595  0.00  0.00    +0.000 C 
ATOM     16  C   UNL     1       5.592   4.996  15.631  0.00  0.00    +0.000 C 
ATOM     17  C   UNL     1       5.429   4.426  14.228  0.00  0.00    +0.000 C 
ATOM     18  O   UNL     1       6.940   4.715  16.059  0.00  0.00    +0.000 OA
ENDBRANCH   1  14
BRANCH   7  19
ATOM     19  S   UNL     1       0.403  11.053  18.760  0.00  0.00    +0.000 S 
BRANCH  19  20
ATOM     20  C   UNL     1      -1.161  10.686  18.104  0.00  0.00    +0.000 A 
ATOM     21  N   UNL     1      -1.443   9.838  17.138  0.00  0.00    +0.000 NA
ATOM     22  N   UNL     1      -2.809   9.814  16.974  0.00  0.00    +0.000 NA
ATOM     23  C   UNL     1      -3.330  10.655  17.840  0.00  0.00    +0.000 A 
ATOM     24  C   UNL     1      -4.669  11.022  18.129  0.00  0.00    +0.000 A 
ATOM     25  C   UNL     1      -4.917  11.935  19.088  0.00  0.00    +0.000 A 
ATOM     26  C   UNL     1      -3.843  12.586  19.857  0.00  0.00    +0.000 A 
ATOM     27  C   UNL     1      -2.574  12.221  19.564  0.00  0.00    +0.000 A 
ATOM     28  N   UNL     1      -2.323  11.262  18.578  0.00  0.00    +0.000 N 
BRANCH  26  29
ATOM     29  C   UNL     1      -4.162  13.548  20.871  0.00  0.00    +0.000 A 
ATOM     30  C   UNL     1      -5.106  14.599  20.830  0.00  0.00    +0.000 A 
ATOM     31  N   UNL     1      -5.137  15.306  21.962  0.00  0.00    +0.000 NA
ATOM     32  N   UNL     1      -4.212  14.710  22.733  0.00  0.00    +0.000 N 
ATOM     33  C   UNL     1      -3.959  15.198  24.067  0.00  0.00    +0.000 C 
ATOM     34  C   UNL     1      -3.597  13.650  22.124  0.00  0.00    +0.000 A 
ENDBRANCH  26  29
ENDBRANCH  19  20
ENDBRANCH   7  19
TORSDOF 4
ENDMDL
MODEL 3
REMARK VINA RESULT:      -9.0      1.916      4.499
REMARK  Name = 
REMARK  7 active torsions:
REMARK  status: ('A' for Active; 'I' for Inactive)
REMARK    1  A    between atoms: C_1  and  C_2
REMARK    2  A    between atoms: N_4  and  C_5
REMARK    3  A    between atoms: C_11  and  S_12
REMARK    4  A    between atoms: S_12  and  C_13
REMARK    5  A    between atoms: C_19  and  C_20
REMARK    6  A    between atoms: N_23  and  C_24
REMARK    7  A    between atoms: C_32  and  C_33
REMARK                            x       y       z     vdW  Elec       q    Type
REMARK                         _______ _______ _______ _____ _____    ______ ____
ROOT
ATOM      1  C   UNL     1       2.633   6.730  18.736  0.00  0.00    +0.000 A 
ATOM      2  C   UNL     1       2.259   6.264  19.998  0.00  0.00    +0.000 A 
ATOM      3  N   UNL     1       1.542   6.948  20.927  0.00  0.00    +0.000 NA
ATOM      4  C   UNL     1       1.142   8.187  20.612  0.00  0.00    +0.000 A 
ATOM      5  C   UNL     1       0.394   8.915  21.525  0.00  0.00    +0.000 A 
ATOM      6  C   UNL     1      -0.056  10.212  21.244  0.00  0.00    +0.000 A 
ATOM      7  C   UNL     1       0.231  10.805  20.013  0.00  0.00    +0.000 A 
ATOM      8  C   UNL     1       1.002  10.088  19.091  0.00  0.00    +0.000 A 
ATOM      9  C   UNL     1       1.457   8.784  19.378  0.00  0.00    +0.000 A 
ATOM     10  C   UNL     1       2.221   8.036  18.460  0.00  0.00    +0.000 A 
ENDROOT
BRANCH   1  14
ATOM     11  C   UNL     1       4.539   3.486  19.407  0.00  0.00    +0.000 C 
ATOM     12  C   UNL     1       4.319   3.678  17.908  0.00  0.00    +0.000 C 
ATOM     13  C   UNL     1       3.080   4.539  17.588  0.00  0.00    +0.000 C 
ATOM     14  N   UNL     1       3.344   5.961  17.841  0.00  0.00    +0.000 N 
ATOM     15  C   UNL     1       4.559   6.467  17.182  0.00  0.00    +0.000 C 
ATOM     16  C   UNL     1       5.762   5.570  17.552  0.00  0.00    +0.000 C 
ATOM     17  C   UNL     1       7.004   5.979  16.770  0.00  0.00    +0.000 C 
ATOM     18  O   UNL     1       5.504   4.181  17.260  0.00  0.00    +0.000 OA
ENDBRANCH   1  14
BRANCH   7  19
ATOM     19  S   UNL     1      -0.254  12.480  19.627  0.00  0.00    +0.000 S 
BRANCH  19  20
ATOM     20  C   UNL     1      -1.974  12.410  19.843  0.00  0.00    +0.000 A 
ATOM     21  N   UNL     1      -2.662  12.783  20.901  0.00  0.00    +0.000 NA
ATOM     22  N   UNL     1      -3.998  12.610  20.626  0.00  0.00    +0.000 NA
ATOM     23  C   UNL     1      -4.097  12.128  19.407  0.00  0.00    +0.000 A 
ATOM     24  C   UNL     1      -5.211  11.777  18.605  0.00  0.00    +0.000 A 
ATOM     25  C   UNL     1      -5.012  11.291  17.364  0.00  0.00    +0.000 A 
ATOM     26  C   UNL     1      -3.667  11.098  16.796  0.00  0.00    +0.000 A 
ATOM     27  C   UNL     1      -2.619  11.439  17.580  0.00  0.00    +0.000 A 
ATOM     28  N   UNL     1      -2.832  11.957  18.861  0.00  0.00    +0.000 N 
BRANCH  26  29
ATOM     29  C   UNL     1      -3.511  10.582  15.468  0.00  0.00    +0.000 A 
ATOM     30  C   UNL     1      -2.383   9.956  14.888  0.00  0.00    +0.000 A 
ATOM     31  N   UNL     1      -2.591   9.599  13.618  0.00  0.00    +0.000 NA
ATOM     32  N   UNL     1      -3.853   9.995  13.381  0.00  0.00    +0.000 N 
ATOM     33  C   UNL     1      -4.451   9.768  12.087  0.00  0.00    +0.000 C 
ATOM     34  C   UNL     1      -4.448  10.591  14.458  0.00  0.00    +0.000 A 
ENDBRANCH  26  29
ENDBRANCH  19  20
ENDBRANCH   7  19
TORSDOF 4
ENDMDL
MODEL 4
REMARK VINA RESULT:      -8.9      2.378      3.479
REMARK  Name = 
REMARK  7 active torsions:
REMARK  status: ('A' for Active; 'I' for Inactive)
REMARK    1  A    between atoms: C_1  and  C_2
REMARK    2  A    between atoms: N_4  and  C_5
REMARK    3  A    between atoms: C_11  and  S_12
REMARK    4  A    between atoms: S_12  and  C_13
REMARK    5  A    between atoms: C_19  and  C_20
REMARK    6  A    between atoms: N_23  and  C_24
REMARK    7  A    between atoms: C_32  and  C_33
REMARK                            x       y       z     vdW  Elec       q    Type
REMARK                         _______ _______ _______ _____ _____    ______ ____
ROOT
ATOM      1  C   UNL     1       4.006   5.675  18.608  0.00  0.00    +0.000 A 
ATOM      2  C   UNL     1       3.463   5.240  19.819  0.00  0.00    +0.000 A 
ATOM      3  N   UNL     1       2.519   5.883  20.553  0.00  0.00    +0.000 NA
ATOM      4  C   UNL     1       2.048   7.044  20.077  0.00  0.00    +0.000 A 
ATOM      5  C   UNL     1       1.071   7.726  20.786  0.00  0.00    +0.000 A 
ATOM      6  C   UNL     1       0.539   8.940  20.331  0.00  0.00    +0.000 A 
ATOM      7  C   UNL     1       0.977   9.492  19.126  0.00  0.00    +0.000 A 
ATOM      8  C   UNL     1       1.977   8.823  18.411  0.00  0.00    +0.000 A 
ATOM      9  C   UNL     1       2.513   7.603  18.874  0.00  0.00    +0.000 A 
ATOM     10  C   UNL     1       3.509   6.904  18.163  0.00  0.00    +0.000 A 
ENDROOT
BRANCH   1  14
ATOM     11  C   UNL     1       7.448   6.817  17.403  0.00  0.00    +0.000 C 
ATOM     12  C   UNL     1       7.344   5.294  17.363  0.00  0.00    +0.000 C 
ATOM     13  C   UNL     1       6.324   4.734  18.376  0.00  0.00    +0.000 C 
ATOM     14  N   UNL     1       4.948   4.949  17.913  0.00  0.00    +0.000 N 
ATOM     15  C   UNL     1       4.697   4.466  16.545  0.00  0.00    +0.000 C 
ATOM     16  C   UNL     1       5.743   5.071  15.581  0.00  0.00    +0.000 C 
ATOM     17  C   UNL     1       5.601   4.476  14.186  0.00  0.00    +0.000 C 
ATOM     18  O   UNL     1       7.090   4.818  16.026  0.00  0.00    +0.000 OA
ENDBRANCH   1  14
BRANCH   7  19
ATOM     19  S   UNL     1       0.388  11.069  18.532  0.00  0.00    +0.000 S 
BRANCH  19  20
ATOM     20  C   UNL     1       0.656  12.090  19.909  0.00  0.00    +0.000 A 
ATOM     21  N   UNL     1       1.807  12.549  20.351  0.00  0.00    +0.000 NA
ATOM     22  N   UNL     1       1.557  13.365  21.430  0.00  0.00    +0.000 NA
ATOM     23  C   UNL     1       0.257  13.380  21.628  0.00  0.00    +0.000 A 
ATOM     24  C   UNL     1      -0.558  14.051  22.573  0.00  0.00    +0.000 A 
ATOM     25  C   UNL     1      -1.893  13.875  22.545  0.00  0.00    +0.000 A 
ATOM     26  C   UNL     1      -2.555  12.996  21.567  0.00  0.00    +0.000 A 
ATOM     27  C   UNL     1      -1.757  12.366  20.675  0.00  0.00    +0.000 A 
ATOM     28  N   UNL     1      -0.373  12.564  20.699  0.00  0.00    +0.000 N 
BRANCH  26  29
ATOM     29  C   UNL     1      -3.981  12.846  21.577  0.00  0.00    +0.000 A 
ATOM     30  C   UNL     1      -4.856  12.624  20.489  0.00  0.00    +0.000 A 
ATOM     31  N   UNL     1      -6.133  12.535  20.868  0.00  0.00    +0.000 NA
ATOM     32  N   UNL     1      -6.080  12.701  22.200  0.00  0.00    +0.000 N 
ATOM     33  C   UNL     1      -7.292  12.659  22.982  0.00  0.00    +0.000 C 
ATOM     34  C   UNL     1      -4.812  12.893  22.675  0.00  0.00    +0.000 A 
ENDBRANCH  26  29
ENDBRANCH  19  20
ENDBRANCH   7  19
TORSDOF 4
ENDMDL
MODEL 5
REMARK VINA RESULT:      -8.9      2.260      3.610
REMARK  Name = 
REMARK  7 active torsions:
REMARK  status: ('A' for Active; 'I' for Inactive)
REMARK    1  A    between atoms: C_1  and  C_2
REMARK    2  A    between atoms: N_4  and  C_5
REMARK    3  A    between atoms: C_11  and  S_12
REMARK    4  A    between atoms: S_12  and  C_13
REMARK    5  A    between atoms: C_19  and  C_20
REMARK    6  A    between atoms: N_23  and  C_24
REMARK    7  A    between atoms: C_32  and  C_33
REMARK                            x       y       z     vdW  Elec       q    Type
REMARK                         _______ _______ _______ _____ _____    ______ ____
ROOT
ATOM      1  C   UNL     1       4.062   5.483  18.538  0.00  0.00    +0.000 A 
ATOM      2  C   UNL     1       3.476   5.016  19.717  0.00  0.00    +0.000 A 
ATOM      3  N   UNL     1       2.529   5.656  20.450  0.00  0.00    +0.000 NA
ATOM      4  C   UNL     1       2.101   6.846  20.008  0.00  0.00    +0.000 A 
ATOM      5  C   UNL     1       1.124   7.527  20.718  0.00  0.00    +0.000 A 
ATOM      6  C   UNL     1       0.635   8.771  20.297  0.00  0.00    +0.000 A 
ATOM      7  C   UNL     1       1.120   9.356  19.127  0.00  0.00    +0.000 A 
ATOM      8  C   UNL     1       2.121   8.689  18.411  0.00  0.00    +0.000 A 
ATOM      9  C   UNL     1       2.613   7.438  18.840  0.00  0.00    +0.000 A 
ATOM     10  C   UNL     1       3.610   6.740  18.129  0.00  0.00    +0.000 A 
ENDROOT
BRANCH   1  14
ATOM     11  C   UNL     1       7.447   6.667  17.217  0.00  0.00    +0.000 C 
ATOM     12  C   UNL     1       7.377   5.142  17.221  0.00  0.00    +0.000 C 
ATOM     13  C   UNL     1       6.395   4.587  18.274  0.00  0.00    +0.000 C 
ATOM     14  N   UNL     1       5.004   4.758  17.840  0.00  0.00    +0.000 N 
ATOM     15  C   UNL     1       4.730   4.231  16.493  0.00  0.00    +0.000 C 
ATOM     16  C   UNL     1       5.738   4.833  15.487  0.00  0.00    +0.000 C 
ATOM     17  C   UNL     1       5.576   4.196  14.112  0.00  0.00    +0.000 C 
ATOM     18  O   UNL     1       7.102   4.622  15.904  0.00  0.00    +0.000 OA
ENDBRANCH   1  14
BRANCH   7  19
ATOM     19  S   UNL     1       0.588  10.971  18.579  0.00  0.00    +0.000 S 
BRANCH  19  20
ATOM     20  C   UNL     1       0.080  11.702  20.068  0.00  0.00    +0.000 A 
ATOM     21  N   UNL     1       0.831  12.006  21.105  0.00  0.00    +0.000 NA
ATOM     22  N   UNL     1       0.036  12.620  22.045  0.00  0.00    +0.000 NA
ATOM     23  C   UNL     1      -1.186  12.670  21.563  0.00  0.00    +0.000 A 
ATOM     24  C   UNL     1      -2.396  13.198  22.079  0.00  0.00    +0.000 A 
ATOM     25  C   UNL     1      -3.527  13.104  21.353  0.00  0.00    +0.000 A 
ATOM     26  C   UNL     1      -3.566  12.460  20.029  0.00  0.00    +0.000 A 
ATOM     27  C   UNL     1      -2.400  11.963  19.558  0.00  0.00    +0.000 A 
ATOM     28  N   UNL     1      -1.226  12.077  20.309  0.00  0.00    +0.000 N 
BRANCH  26  29
ATOM     29  C   UNL     1      -4.796  12.391  19.295  0.00  0.00    +0.000 A 
ATOM     30  C   UNL     1      -5.344  11.297  18.587  0.00  0.00    +0.000 A 
ATOM     31  N   UNL     1      -6.515  11.590  18.015  0.00  0.00    +0.000 NA
ATOM     32  N   UNL     1      -6.720  12.874  18.356  0.00  0.00    +0.000 N 
ATOM     33  C   UNL     1      -7.914  13.555  17.920  0.00  0.00    +0.000 C 
ATOM     34  C   UNL     1      -5.717  13.401  19.122  0.00  0.00    +0.000 A 
ENDBRANCH  26  29
ENDBRANCH  19  20
ENDBRANCH   7  19
TORSDOF 4
ENDMDL
MODEL 6
REMARK VINA RESULT:      -8.9      2.637      5.126
REMARK  Name = 
REMARK  7 active torsions:
REMARK  status: ('A' for Active; 'I' for Inactive)
REMARK    1  A    between atoms: C_1  and  C_2
REMARK    2  A    between atoms: N_4  and  C_5
REMARK    3  A    between atoms: C_11  and  S_12
REMARK    4  A    between atoms: S_12  and  C_13
REMARK    5  A    between atoms: C_19  and  C_20
REMARK    6  A    between atoms: N_23  and  C_24
REMARK    7  A    between atoms: C_32  and  C_33
REMARK                            x       y       z     vdW  Elec       q    Type
REMARK                         _______ _______ _______ _____ _____    ______ ____
ROOT
ATOM      1  C   UNL     1       3.980   5.575  18.392  0.00  0.00    +0.000 A 
ATOM      2  C   UNL     1       3.334   5.199  19.573  0.00  0.00    +0.000 A 
ATOM      3  N   UNL     1       2.434   5.943  20.267  0.00  0.00    +0.000 NA
ATOM      4  C   UNL     1       2.119   7.150  19.779  0.00  0.00    +0.000 A 
ATOM      5  C   UNL     1       1.193   7.936  20.448  0.00  0.00    +0.000 A 
ATOM      6  C   UNL     1       0.822   9.203  19.978  0.00  0.00    +0.000 A 
ATOM      7  C   UNL     1       1.376   9.706  18.800  0.00  0.00    +0.000 A 
ATOM      8  C   UNL     1       2.328   8.931  18.126  0.00  0.00    +0.000 A 
ATOM      9  C   UNL     1       2.701   7.657  18.604  0.00  0.00    +0.000 A 
ATOM     10  C   UNL     1       3.645   6.852  17.935  0.00  0.00    +0.000 A 
ENDROOT
BRANCH   1  14
ATOM     11  C   UNL     1       7.513   6.390  17.187  0.00  0.00    +0.000 C 
ATOM     12  C   UNL     1       7.288   4.880  17.202  0.00  0.00    +0.000 C 
ATOM     13  C   UNL     1       6.217   4.443  18.223  0.00  0.00    +0.000 C 
ATOM     14  N   UNL     1       4.866   4.749  17.737  0.00  0.00    +0.000 N 
ATOM     15  C   UNL     1       4.589   4.236  16.385  0.00  0.00    +0.000 C 
ATOM     16  C   UNL     1       5.689   4.718  15.412  0.00  0.00    +0.000 C 
ATOM     17  C   UNL     1       5.513   4.084  14.038  0.00  0.00    +0.000 C 
ATOM     18  O   UNL     1       7.008   4.375  15.881  0.00  0.00    +0.000 OA
ENDBRANCH   1  14
BRANCH   7  19
ATOM     19  S   UNL     1       0.997  11.341  18.192  0.00  0.00    +0.000 S 
BRANCH  19  20
ATOM     20  C   UNL     1      -0.633  11.557  18.747  0.00  0.00    +0.000 A 
ATOM     21  N   UNL     1      -1.024  11.986  19.928  0.00  0.00    +0.000 NA
ATOM     22  N   UNL     1      -2.398  12.061  19.924  0.00  0.00    +0.000 NA
ATOM     23  C   UNL     1      -2.816  11.668  18.740  0.00  0.00    +0.000 A 
ATOM     24  C   UNL     1      -4.109  11.557  18.172  0.00  0.00    +0.000 A 
ATOM     25  C   UNL     1      -4.245  11.111  16.908  0.00  0.00    +0.000 A 
ATOM     26  C   UNL     1      -3.094  10.719  16.079  0.00  0.00    +0.000 A 
ATOM     27  C   UNL     1      -1.869  10.833  16.643  0.00  0.00    +0.000 A 
ATOM     28  N   UNL     1      -1.732  11.311  17.949  0.00  0.00    +0.000 N 
BRANCH  26  29
ATOM     29  C   UNL     1      -3.293  10.254  14.737  0.00  0.00    +0.000 A 
ATOM     30  C   UNL     1      -2.371   9.621  13.873  0.00  0.00    +0.000 A 
ATOM     31  N   UNL     1      -2.902   9.323  12.685  0.00  0.00    +0.000 NA
ATOM     32  N   UNL     1      -4.167   9.766  12.784  0.00  0.00    +0.000 N 
ATOM     33  C   UNL     1      -5.077   9.610  11.675  0.00  0.00    +0.000 C 
ATOM     34  C   UNL     1      -4.452  10.333  13.996  0.00  0.00    +0.000 A 
ENDBRANCH  26  29
ENDBRANCH  19  20
ENDBRANCH   7  19
TORSDOF 4
ENDMDL
MODEL 7
REMARK VINA RESULT:      -8.9      2.280      3.233
REMARK  Name = 
REMARK  7 active torsions:
REMARK  status: ('A' for Active; 'I' for Inactive)
REMARK    1  A    between atoms: C_1  and  C_2
REMARK    2  A    between atoms: N_4  and  C_5
REMARK    3  A    between atoms: C_11  and  S_12
REMARK    4  A    between atoms: S_12  and  C_13
REMARK    5  A    between atoms: C_19  and  C_20
REMARK    6  A    between atoms: N_23  and  C_24
REMARK    7  A    between atoms: C_32  and  C_33
REMARK                            x       y       z     vdW  Elec       q    Type
REMARK                         _______ _______ _______ _____ _____    ______ ____
ROOT
ATOM      1  C   UNL     1       2.758   6.450  18.468  0.00  0.00    +0.000 A 
ATOM      2  C   UNL     1       2.403   6.069  19.764  0.00  0.00    +0.000 A 
ATOM      3  N   UNL     1       1.756   6.838  20.677  0.00  0.00    +0.000 NA
ATOM      4  C   UNL     1       1.413   8.080  20.311  0.00  0.00    +0.000 A 
ATOM      5  C   UNL     1       0.737   8.894  21.207  0.00  0.00    +0.000 A 
ATOM      6  C   UNL     1       0.348  10.199  20.874  0.00  0.00    +0.000 A 
ATOM      7  C   UNL     1       0.625  10.712  19.605  0.00  0.00    +0.000 A 
ATOM      8  C   UNL     1       1.324   9.907  18.698  0.00  0.00    +0.000 A 
ATOM      9  C   UNL     1       1.718   8.596  19.039  0.00  0.00    +0.000 A 
ATOM     10  C   UNL     1       2.409   7.762  18.137  0.00  0.00    +0.000 A 
ENDROOT
BRANCH   1  14
ATOM     11  C   UNL     1       4.546   3.164  19.255  0.00  0.00    +0.000 C 
ATOM     12  C   UNL     1       4.271   3.280  17.757  0.00  0.00    +0.000 C 
ATOM     13  C   UNL     1       3.058   4.178  17.435  0.00  0.00    +0.000 C 
ATOM     14  N   UNL     1       3.396   5.598  17.593  0.00  0.00    +0.000 N 
ATOM     15  C   UNL     1       4.604   6.008  16.857  0.00  0.00    +0.000 C 
ATOM     16  C   UNL     1       5.780   5.078  17.232  0.00  0.00    +0.000 C 
ATOM     17  C   UNL     1       7.005   5.383  16.378  0.00  0.00    +0.000 C 
ATOM     18  O   UNL     1       5.449   3.689  17.033  0.00  0.00    +0.000 OA
ENDBRANCH   1  14
BRANCH   7  19
ATOM     19  S   UNL     1       0.218  12.389  19.147  0.00  0.00    +0.000 S 
BRANCH  19  20
ATOM     20  C   UNL     1       0.270  13.198  20.681  0.00  0.00    +0.000 A 
ATOM     21  N   UNL     1       1.314  13.758  21.254  0.00  0.00    +0.000 NA
ATOM     22  N   UNL     1       0.899  14.333  22.433  0.00  0.00    +0.000 NA
ATOM     23  C   UNL     1      -0.390  14.106  22.557  0.00  0.00    +0.000 A 
ATOM     24  C   UNL     1      -1.333  14.470  23.550  0.00  0.00    +0.000 A 
ATOM     25  C   UNL     1      -2.618  14.087  23.419  0.00  0.00    +0.000 A 
ATOM     26  C   UNL     1      -3.094  13.287  22.279  0.00  0.00    +0.000 A 
ATOM     27  C   UNL     1      -2.175  12.950  21.345  0.00  0.00    +0.000 A 
ATOM     28  N   UNL     1      -0.846  13.363  21.477  0.00  0.00    +0.000 N 
BRANCH  26  29
ATOM     29  C   UNL     1      -4.474  12.909  22.185  0.00  0.00    +0.000 A 
ATOM     30  C   UNL     1      -5.470  12.939  23.187  0.00  0.00    +0.000 A 
ATOM     31  N   UNL     1      -6.656  12.512  22.746  0.00  0.00    +0.000 NA
ATOM     32  N   UNL     1      -6.422  12.206  21.458  0.00  0.00    +0.000 N 
ATOM     33  C   UNL     1      -7.491  11.708  20.628  0.00  0.00    +0.000 C 
ATOM     34  C   UNL     1      -5.128  12.426  21.073  0.00  0.00    +0.000 A 
ENDBRANCH  26  29
ENDBRANCH  19  20
ENDBRANCH   7  19
TORSDOF 4
ENDMDL
MODEL 8
REMARK VINA RESULT:      -8.8      0.878      1.307
REMARK  Name = 
REMARK  7 active torsions:
REMARK  status: ('A' for Active; 'I' for Inactive)
REMARK    1  A    between atoms: C_1  and  C_2
REMARK    2  A    between atoms: N_4  and  C_5
REMARK    3  A    between atoms: C_11  and  S_12
REMARK    4  A    between atoms: S_12  and  C_13
REMARK    5  A    between atoms: C_19  and  C_20
REMARK    6  A    between atoms: N_23  and  C_24
REMARK    7  A    between atoms: C_32  and  C_33
REMARK                            x       y       z     vdW  Elec       q    Type
REMARK                         _______ _______ _______ _____ _____    ______ ____
ROOT
ATOM      1  C   UNL     1       2.851   6.922  18.558  0.00  0.00    +0.000 A 
ATOM      2  C   UNL     1       2.537   6.690  19.899  0.00  0.00    +0.000 A 
ATOM      3  N   UNL     1       1.712   7.443  20.672  0.00  0.00    +0.000 NA
ATOM      4  C   UNL     1       1.131   8.508  20.105  0.00  0.00    +0.000 A 
ATOM      5  C   UNL     1       0.268   9.295  20.853  0.00  0.00    +0.000 A 
ATOM      6  C   UNL     1      -0.372  10.416  20.308  0.00  0.00    +0.000 A 
ATOM      7  C   UNL     1      -0.163  10.763  18.972  0.00  0.00    +0.000 A 
ATOM      8  C   UNL     1       0.720   9.989  18.211  0.00  0.00    +0.000 A 
ATOM      9  C   UNL     1       1.366   8.863  18.765  0.00  0.00    +0.000 A 
ATOM     10  C   UNL     1       2.247   8.059  18.015  0.00  0.00    +0.000 A 
ENDROOT
BRANCH   1  14
ATOM     11  C   UNL     1       4.167   3.469  19.534  0.00  0.00    +0.000 C 
ATOM     12  C   UNL     1       4.361   3.714  18.039  0.00  0.00    +0.000 C 
ATOM     13  C   UNL     1       3.344   4.717  17.457  0.00  0.00    +0.000 C 
ATOM     14  N   UNL     1       3.683   6.094  17.837  0.00  0.00    +0.000 N 
ATOM     15  C   UNL     1       5.073   6.471  17.532  0.00  0.00    +0.000 C 
ATOM     16  C   UNL     1       6.039   5.435  18.151  0.00  0.00    +0.000 C 
ATOM     17  C   UNL     1       7.476   5.715  17.729  0.00  0.00    +0.000 C 
ATOM     18  O   UNL     1       5.720   4.091  17.737  0.00  0.00    +0.000 OA
ENDBRANCH   1  14
BRANCH   7  19
ATOM     19  S   UNL     1      -0.894  12.220  18.242  0.00  0.00    +0.000 S 
BRANCH  19  20
ATOM     20  C   UNL     1      -2.554  11.742  18.081  0.00  0.00    +0.000 A 
ATOM     21  N   UNL     1      -3.087  11.021  17.117  0.00  0.00    +0.000 NA
ATOM     22  N   UNL     1      -4.418  10.830  17.411  0.00  0.00    +0.000 NA
ATOM     23  C   UNL     1      -4.669  11.446  18.545  0.00  0.00    +0.000 A 
ATOM     24  C   UNL     1      -5.847  11.572  19.324  0.00  0.00    +0.000 A 
ATOM     25  C   UNL     1      -5.816  12.283  20.468  0.00  0.00    +0.000 A 
ATOM     26  C   UNL     1      -4.597  12.954  20.950  0.00  0.00    +0.000 A 
ATOM     27  C   UNL     1      -3.485  12.820  20.190  0.00  0.00    +0.000 A 
ATOM     28  N   UNL     1      -3.519  12.068  19.012  0.00  0.00    +0.000 N 
BRANCH  26  29
ATOM     29  C   UNL     1      -4.616  13.695  22.177  0.00  0.00    +0.000 A 
ATOM     30  C   UNL     1      -5.725  14.227  22.873  0.00  0.00    +0.000 A 
ATOM     31  N   UNL     1      -5.372  14.866  23.992  0.00  0.00    +0.000 NA
ATOM     32  N   UNL     1      -4.034  14.743  24.016  0.00  0.00    +0.000 N 
ATOM     33  C   UNL     1      -3.275  15.311  25.104  0.00  0.00    +0.000 C 
ATOM     34  C   UNL     1      -3.531  14.050  22.949  0.00  0.00    +0.000 A 
ENDBRANCH  26  29
ENDBRANCH  19  20
ENDBRANCH   7  19
TORSDOF 4
ENDMDL
MODEL 9
REMARK VINA RESULT:      -8.8      3.725     11.688
REMARK  Name = 
REMARK  7 active torsions:
REMARK  status: ('A' for Active; 'I' for Inactive)
REMARK    1  A    between atoms: C_1  and  C_2
REMARK    2  A    between atoms: N_4  and  C_5
REMARK    3  A    between atoms: C_11  and  S_12
REMARK    4  A    between atoms: S_12  and  C_13
REMARK    5  A    between atoms: C_19  and  C_20
REMARK    6  A    between atoms: N_23  and  C_24
REMARK    7  A    between atoms: C_32  and  C_33
REMARK                            x       y       z     vdW  Elec       q    Type
REMARK                         _______ _______ _______ _____ _____    ______ ____
ROOT
ATOM      1  C   UNL     1      -1.949  12.305  21.685  0.00  0.00    +0.000 A 
ATOM      2  C   UNL     1      -1.608  11.840  22.957  0.00  0.00    +0.000 A 
ATOM      3  N   UNL     1      -0.726  10.846  23.239  0.00  0.00    +0.000 NA
ATOM      4  C   UNL     1      -0.112  10.251  22.207  0.00  0.00    +0.000 A 
ATOM      5  C   UNL     1       0.808   9.242  22.450  0.00  0.00    +0.000 A 
ATOM      6  C   UNL     1       1.484   8.592  21.409  0.00  0.00    +0.000 A 
ATOM      7  C   UNL     1       1.254   8.961  20.083  0.00  0.00    +0.000 A 
ATOM      8  C   UNL     1       0.313   9.965  19.823  0.00  0.00    +0.000 A 
ATOM      9  C   UNL     1      -0.369  10.614  20.874  0.00  0.00    +0.000 A 
ATOM     10  C   UNL     1      -1.309  11.638  20.638  0.00  0.00    +0.000 A 
ENDROOT
BRANCH   1  14
ATOM     11  C   UNL     1      -3.726  14.427  24.320  0.00  0.00    +0.000 C 
ATOM     12  C   UNL     1      -3.815  15.092  22.948  0.00  0.00    +0.000 C 
ATOM     13  C   UNL     1      -2.654  14.695  22.012  0.00  0.00    +0.000 C 
ATOM     14  N   UNL     1      -2.840  13.337  21.487  0.00  0.00    +0.000 N 
ATOM     15  C   UNL     1      -4.157  13.112  20.867  0.00  0.00    +0.000 C 
ATOM     16  C   UNL     1      -5.272  13.518  21.858  0.00  0.00    +0.000 C 
ATOM     17  C   UNL     1      -6.641  13.438  21.195  0.00  0.00    +0.000 C 
ATOM     18  O   UNL     1      -5.100  14.868  22.335  0.00  0.00    +0.000 OA
ENDBRANCH   1  14
BRANCH   7  19
ATOM     19  S   UNL     1       2.031   8.121  18.712  0.00  0.00    +0.000 S 
BRANCH  19  20
ATOM     20  C   UNL     1       2.389   6.570  19.403  0.00  0.00    +0.000 A 
ATOM     21  N   UNL     1       1.869   6.041  20.490  0.00  0.00    +0.000 NA
ATOM     22  N   UNL     1       2.389   4.777  20.642  0.00  0.00    +0.000 NA
ATOM     23  C   UNL     1       3.222   4.564  19.647  0.00  0.00    +0.000 A 
ATOM     24  C   UNL     1       4.020   3.448  19.290  0.00  0.00    +0.000 A 
ATOM     25  C   UNL     1       4.800   3.512  18.194  0.00  0.00    +0.000 A 
ATOM     26  C   UNL     1       4.871   4.710  17.341  0.00  0.00    +0.000 A 
ATOM     27  C   UNL     1       4.102   5.762  17.702  0.00  0.00    +0.000 A 
ATOM     28  N   UNL     1       3.282   5.686  18.832  0.00  0.00    +0.000 N 
BRANCH  26  29
ATOM     29  C   UNL     1       5.715   4.724  16.182  0.00  0.00    +0.000 A 
ATOM     30  C   UNL     1       6.982   5.329  16.016  0.00  0.00    +0.000 A 
ATOM     31  N   UNL     1       7.485   5.141  14.793  0.00  0.00    +0.000 NA
ATOM     32  N   UNL     1       6.541   4.413  14.172  0.00  0.00    +0.000 N 
ATOM     33  C   UNL     1       6.733   3.997  12.804  0.00  0.00    +0.000 C 
ATOM     34  C   UNL     1       5.458   4.138  14.961  0.00  0.00    +0.000 A 
ENDBRANCH  26  29
ENDBRANCH  19  20
ENDBRANCH   7  19
TORSDOF 4
ENDMDL
