MODEL 1
REMARK VINA RESULT:      -7.5      0.000      0.000
REMARK  Name = 
REMARK  8 active torsions:
REMARK  status: ('A' for Active; 'I' for Inactive)
REMARK    1  A    between atoms: C_1  and  N_2
REMARK    2  A    between atoms: C_7  and  N_8
REMARK    3  A    between atoms: N_8  and  C_9
REMARK    4  A    between atoms: C_9  and  C_10
REMARK    5  A    between atoms: C_10  and  N_11
REMARK    6  A    between atoms: N_11  and  C_12
REMARK    7  A    between atoms: C_12  and  C_13
REMARK    8  A    between atoms: C_13  and  O_14
REMARK                            x       y       z     vdW  Elec       q    Type
REMARK                         _______ _______ _______ _____ _____    ______ ____
ROOT
ATOM      1  C   UNL     1       2.178   2.557  21.801  0.00  0.00    +0.000 C 
ATOM      2  N   UNL     1       2.305   3.702  20.908  0.00  0.00    +0.000 N 
ATOM      3  N   UNL     1       1.817   4.920  21.152  0.00  0.00    +0.000 NA
ATOM      4  C   UNL     1       2.168   5.700  20.098  0.00  0.00    +0.000 A 
ATOM      5  C   UNL     1       2.873   4.960  19.208  0.00  0.00    +0.000 A 
ATOM      6  C   UNL     1       3.434   5.368  18.008  0.00  0.00    +0.000 A 
ATOM      7  C   UNL     1       4.135   4.353  17.264  0.00  0.00    +0.000 A 
ATOM      8  C   UNL     1       4.181   3.023  17.818  0.00  0.00    +0.000 A 
ATOM      9  C   UNL     1       3.588   2.700  19.047  0.00  0.00    +0.000 A 
ATOM     10  C   UNL     1       2.940   3.715  19.721  0.00  0.00    +0.000 A 
ATOM     11  C   UNL     1       3.220   6.826  17.691  0.00  0.00    +0.000 C 
ATOM     12  O   UNL     1       3.673   7.318  16.669  0.00  0.00    +0.000 OA
ATOM     13  C   UNL     1       2.426   7.688  18.658  0.00  0.00    +0.000 A 
ATOM     14  C   UNL     1       2.193   9.052  18.406  0.00  0.00    +0.000 A 
ATOM     15  C   UNL     1       1.448   9.823  19.309  0.00  0.00    +0.000 A 
ATOM     16  C   UNL     1       0.927   9.246  20.472  0.00  0.00    +0.000 A 
ATOM     17  C   UNL     1       1.151   7.896  20.745  0.00  0.00    +0.000 A 
ATOM     18  C   UNL     1       1.899   7.119  19.851  0.00  0.00    +0.000 A 
ENDROOT
BRANCH   7  19
ATOM     19  N   UNL     1       4.794   4.605  16.009  0.00  0.00    +0.000 N 
ATOM     20  H   UNL     1       4.438   5.315  15.353  0.00  0.00    +0.000 HD
BRANCH  19  21
ATOM     21  C   UNL     1       5.991   3.856  15.659  0.00  0.00    +0.000 C 
BRANCH  21  22
ATOM     22  C   UNL     1       7.316   4.589  15.868  0.00  0.00    +0.000 C 
BRANCH  22  23
ATOM     23  N   UNL     1       7.666   4.466  17.291  0.00  0.00    +0.000 NA
ATOM     24  H   UNL     1       8.652   4.119  17.366  0.00  0.00    +0.000 HD
BRANCH  23  25
ATOM     25  C   UNL     1       7.571   5.738  18.007  0.00  0.00    +0.000 C 
BRANCH  25  26
ATOM     26  C   UNL     1       6.914   5.509  19.375  0.00  0.00    +0.000 C 
BRANCH  26  27
ATOM     27  O   UNL     1       7.886   5.434  20.380  0.00  0.00    +0.000 OA
ATOM     28  H   UNL     1       8.766   5.418  19.921  0.00  0.00    +0.000 HD
ENDBRANCH  26  27
ENDBRANCH  25  26
ENDBRANCH  23  25
ENDBRANCH  22  23
ENDBRANCH  21  22
ENDBRANCH  19  21
ENDBRANCH   7  19
TORSDOF 7
ENDMDL
MODEL 2
REMARK VINA RESULT:      -6.9      1.051      1.051
REMARK  Name = 
REMARK  8 active torsions:
REMARK  status: ('A' for Active; 'I' for Inactive)
REMARK    1  A    between atoms: C_1  and  N_2
REMARK    2  A    between atoms: C_7  and  N_8
REMARK    3  A    between atoms: N_8  and  C_9
REMARK    4  A    between atoms: C_9  and  C_10
REMARK    5  A    between atoms: C_10  and  N_11
REMARK    6  A    between atoms: N_11  and  C_12
REMARK    7  A    between atoms: C_12  and  C_13
REMARK    8  A    between atoms: C_13  and  O_14
REMARK                            x       y       z     vdW  Elec       q    Type
REMARK                         _______ _______ _______ _____ _____    ______ ____
ROOT
ATOM      1  C   UNL     1       2.068   2.645  21.833  0.00  0.00    +0.000 C 
ATOM      2  N   UNL     1       2.231   3.757  20.905  0.00  0.00    +0.000 N 
ATOM      3  N   UNL     1       1.794   5.001  21.117  0.00  0.00    +0.000 NA
ATOM      4  C   UNL     1       2.165   5.735  20.038  0.00  0.00    +0.000 A 
ATOM      5  C   UNL     1       2.832   4.941  19.164  0.00  0.00    +0.000 A 
ATOM      6  C   UNL     1       3.397   5.291  17.948  0.00  0.00    +0.000 A 
ATOM      7  C   UNL     1       4.050   4.228  17.228  0.00  0.00    +0.000 A 
ATOM      8  C   UNL     1       4.049   2.914  17.821  0.00  0.00    +0.000 A 
ATOM      9  C   UNL     1       3.455   2.651  19.064  0.00  0.00    +0.000 A 
ATOM     10  C   UNL     1       2.855   3.711  19.713  0.00  0.00    +0.000 A 
ATOM     11  C   UNL     1       3.238   6.746  17.589  0.00  0.00    +0.000 C 
ATOM     12  O   UNL     1       3.700   7.190  16.549  0.00  0.00    +0.000 OA
ATOM     13  C   UNL     1       2.488   7.667  18.536  0.00  0.00    +0.000 A 
ATOM     14  C   UNL     1       2.306   9.032  18.246  0.00  0.00    +0.000 A 
ATOM     15  C   UNL     1       1.601   9.858  19.132  0.00  0.00    +0.000 A 
ATOM     16  C   UNL     1       1.069   9.336  20.316  0.00  0.00    +0.000 A 
ATOM     17  C   UNL     1       1.242   7.987  20.628  0.00  0.00    +0.000 A 
ATOM     18  C   UNL     1       1.950   7.155  19.751  0.00  0.00    +0.000 A 
ENDROOT
BRANCH   7  19
ATOM     19  N   UNL     1       4.706   4.417  15.961  0.00  0.00    +0.000 N 
ATOM     20  H   UNL     1       4.268   4.968  15.210  0.00  0.00    +0.000 HD
BRANCH  19  21
ATOM     21  C   UNL     1       6.018   3.830  15.732  0.00  0.00    +0.000 C 
BRANCH  21  22
ATOM     22  C   UNL     1       6.965   4.649  14.855  0.00  0.00    +0.000 C 
BRANCH  22  23
ATOM     23  N   UNL     1       7.451   5.776  15.667  0.00  0.00    +0.000 NA
ATOM     24  H   UNL     1       6.832   6.605  15.496  0.00  0.00    +0.000 HD
BRANCH  23  25
ATOM     25  C   UNL     1       7.442   5.484  17.100  0.00  0.00    +0.000 C 
BRANCH  25  26
ATOM     26  C   UNL     1       7.204   6.780  17.886  0.00  0.00    +0.000 C 
BRANCH  26  27
ATOM     27  O   UNL     1       7.572   7.894  17.119  0.00  0.00    +0.000 OA
ATOM     28  H   UNL     1       7.433   8.691  17.694  0.00  0.00    +0.000 HD
ENDBRANCH  26  27
ENDBRANCH  25  26
ENDBRANCH  23  25
ENDBRANCH  22  23
ENDBRANCH  21  22
ENDBRANCH  19  21
ENDBRANCH   7  19
TORSDOF 7
ENDMDL
MODEL 3
REMARK VINA RESULT:      -6.8      2.023      2.880
REMARK  Name = 
REMARK  8 active torsions:
REMARK  status: ('A' for Active; 'I' for Inactive)
REMARK    1  A    between atoms: C_1  and  N_2
REMARK    2  A    between atoms: C_7  and  N_8
REMARK    3  A    between atoms: N_8  and  C_9
REMARK    4  A    between atoms: C_9  and  C_10
REMARK    5  A    between atoms: C_10  and  N_11
REMARK    6  A    between atoms: N_11  and  C_12
REMARK    7  A    between atoms: C_12  and  C_13
REMARK    8  A    between atoms: C_13  and  O_14
REMARK                            x       y       z     vdW  Elec       q    Type
REMARK                         _______ _______ _______ _____ _____    ______ ____
ROOT
ATOM      1  C   UNL     1       2.396   2.809  21.557  0.00  0.00    +0.000 C 
ATOM      2  N   UNL     1       2.446   4.006  20.728  0.00  0.00    +0.000 N 
ATOM      3  N   UNL     1       1.835   5.159  21.011  0.00  0.00    +0.000 NA
ATOM      4  C   UNL     1       2.149   6.023  20.013  0.00  0.00    +0.000 A 
ATOM      5  C   UNL     1       2.956   5.401  19.119  0.00  0.00    +0.000 A 
ATOM      6  C   UNL     1       3.520   5.924  17.966  0.00  0.00    +0.000 A 
ATOM      7  C   UNL     1       4.343   5.021  17.203  0.00  0.00    +0.000 A 
ATOM      8  C   UNL     1       4.495   3.673  17.692  0.00  0.00    +0.000 A 
ATOM      9  C   UNL     1       3.889   3.231  18.877  0.00  0.00    +0.000 A 
ATOM     10  C   UNL     1       3.122   4.143  19.572  0.00  0.00    +0.000 A 
ATOM     11  C   UNL     1       3.179   7.370  17.712  0.00  0.00    +0.000 C 
ATOM     12  O   UNL     1       3.622   7.957  16.736  0.00  0.00    +0.000 OA
ATOM     13  C   UNL     1       2.270   8.101  18.685  0.00  0.00    +0.000 A 
ATOM     14  C   UNL     1       1.916   9.449  18.492  0.00  0.00    +0.000 A 
ATOM     15  C   UNL     1       1.067  10.097  19.399  0.00  0.00    +0.000 A 
ATOM     16  C   UNL     1       0.560   9.412  20.508  0.00  0.00    +0.000 A 
ATOM     17  C   UNL     1       0.902   8.076  20.724  0.00  0.00    +0.000 A 
ATOM     18  C   UNL     1       1.754   7.422  19.825  0.00  0.00    +0.000 A 
ENDROOT
BRANCH   7  19
ATOM     19  N   UNL     1       5.022   5.400  15.992  0.00  0.00    +0.000 N 
ATOM     20  H   UNL     1       4.499   5.722  15.165  0.00  0.00    +0.000 HD
BRANCH  19  21
ATOM     21  C   UNL     1       6.475   5.342  15.930  0.00  0.00    +0.000 C 
BRANCH  21  22
ATOM     22  C   UNL     1       7.063   4.911  14.586  0.00  0.00    +0.000 C 
BRANCH  22  23
ATOM     23  N   UNL     1       6.457   3.616  14.238  0.00  0.00    +0.000 NA
ATOM     24  H   UNL     1       5.753   3.365  14.973  0.00  0.00    +0.000 HD
BRANCH  23  25
ATOM     25  C   UNL     1       5.780   3.641  12.942  0.00  0.00    +0.000 C 
BRANCH  25  26
ATOM     26  C   UNL     1       6.715   3.075  11.864  0.00  0.00    +0.000 C 
BRANCH  26  27
ATOM     27  O   UNL     1       6.528   1.693  11.730  0.00  0.00    +0.000 OA
ATOM     28  H   UNL     1       5.555   1.529  11.828  0.00  0.00    +0.000 HD
ENDBRANCH  26  27
ENDBRANCH  25  26
ENDBRANCH  23  25
ENDBRANCH  22  23
ENDBRANCH  21  22
ENDBRANCH  19  21
ENDBRANCH   7  19
TORSDOF 7
ENDMDL
MODEL 4
REMARK VINA RESULT:      -6.7      2.264      3.172
REMARK  Name = 
REMARK  8 active torsions:
REMARK  status: ('A' for Active; 'I' for Inactive)
REMARK    1  A    between atoms: C_1  and  N_2
REMARK    2  A    between atoms: C_7  and  N_8
REMARK    3  A    between atoms: N_8  and  C_9
REMARK    4  A    between atoms: C_9  and  C_10
REMARK    5  A    between atoms: C_10  and  N_11
REMARK    6  A    between atoms: N_11  and  C_12
REMARK    7  A    between atoms: C_12  and  C_13
REMARK    8  A    between atoms: C_13  and  O_14
REMARK                            x       y       z     vdW  Elec       q    Type
REMARK                         _______ _______ _______ _____ _____    ______ ____
ROOT
ATOM      1  C   UNL     1       1.710   3.012  21.820  0.00  0.00    +0.000 C 
ATOM      2  N   UNL     1       2.137   3.990  20.828  0.00  0.00    +0.000 N 
ATOM      3  N   UNL     1       1.648   5.227  20.713  0.00  0.00    +0.000 NA
ATOM      4  C   UNL     1       2.321   5.820  19.695  0.00  0.00    +0.000 A 
ATOM      5  C   UNL     1       3.225   4.947  19.186  0.00  0.00    +0.000 A 
ATOM      6  C   UNL     1       4.126   5.151  18.153  0.00  0.00    +0.000 A 
ATOM      7  C   UNL     1       4.972   4.032  17.825  0.00  0.00    +0.000 A 
ATOM      8  C   UNL     1       4.801   2.816  18.580  0.00  0.00    +0.000 A 
ATOM      9  C   UNL     1       3.864   2.700  19.617  0.00  0.00    +0.000 A 
ATOM     10  C   UNL     1       3.089   3.808  19.894  0.00  0.00    +0.000 A 
ATOM     11  C   UNL     1       4.072   6.532  17.550  0.00  0.00    +0.000 C 
ATOM     12  O   UNL     1       4.822   6.848  16.639  0.00  0.00    +0.000 OA
ATOM     13  C   UNL     1       3.066   7.537  18.085  0.00  0.00    +0.000 A 
ATOM     14  C   UNL     1       2.971   8.836  17.554  0.00  0.00    +0.000 A 
ATOM     15  C   UNL     1       2.027   9.742  18.059  0.00  0.00    +0.000 A 
ATOM     16  C   UNL     1       1.168   9.365  19.096  0.00  0.00    +0.000 A 
ATOM     17  C   UNL     1       1.249   8.083  19.643  0.00  0.00    +0.000 A 
ATOM     18  C   UNL     1       2.192   7.173  19.148  0.00  0.00    +0.000 A 
ENDROOT
BRANCH   7  19
ATOM     19  N   UNL     1       5.976   4.074  16.795  0.00  0.00    +0.000 N 
ATOM     20  H   UNL     1       6.947   4.345  17.008  0.00  0.00    +0.000 HD
BRANCH  19  21
ATOM     21  C   UNL     1       5.626   3.717  15.429  0.00  0.00    +0.000 C 
BRANCH  21  22
ATOM     22  C   UNL     1       6.454   4.392  14.336  0.00  0.00    +0.000 C 
BRANCH  22  23
ATOM     23  N   UNL     1       6.530   3.456  13.203  0.00  0.00    +0.000 NA
ATOM     24  H   UNL     1       6.664   2.486  13.576  0.00  0.00    +0.000 HD
BRANCH  23  25
ATOM     25  C   UNL     1       5.322   3.470  12.378  0.00  0.00    +0.000 C 
BRANCH  25  26
ATOM     26  C   UNL     1       5.342   2.270  11.420  0.00  0.00    +0.000 C 
BRANCH  26  27
ATOM     27  O   UNL     1       6.507   1.514  11.605  0.00  0.00    +0.000 OA
ATOM     28  H   UNL     1       7.053   1.997  12.279  0.00  0.00    +0.000 HD
ENDBRANCH  26  27
ENDBRANCH  25  26
ENDBRANCH  23  25
ENDBRANCH  22  23
ENDBRANCH  21  22
ENDBRANCH  19  21
ENDBRANCH   7  19
TORSDOF 7
ENDMDL
MODEL 5
REMARK VINA RESULT:      -6.7      2.606      6.109
REMARK  Name = 
REMARK  8 active torsions:
REMARK  status: ('A' for Active; 'I' for Inactive)
REMARK    1  A    between atoms: C_1  and  N_2
REMARK    2  A    between atoms: C_7  and  N_8
REMARK    3  A    between atoms: N_8  and  C_9
REMARK    4  A    between atoms: C_9  and  C_10
REMARK    5  A    between atoms: C_10  and  N_11
REMARK    6  A    between atoms: N_11  and  C_12
REMARK    7  A    between atoms: C_12  and  C_13
REMARK    8  A    between atoms: C_13  and  O_14
REMARK                            x       y       z     vdW  Elec       q    Type
REMARK                         _______ _______ _______ _____ _____    ______ ____
ROOT
ATOM      1  C   UNL     1       2.067   2.816  21.343  0.00  0.00    +0.000 C 
ATOM      2  N   UNL     1       2.567   3.752  20.343  0.00  0.00    +0.000 N 
ATOM      3  N   UNL     1       3.382   3.431  19.336  0.00  0.00    +0.000 NA
ATOM      4  C   UNL     1       3.587   4.568  18.623  0.00  0.00    +0.000 A 
ATOM      5  C   UNL     1       2.895   5.585  19.192  0.00  0.00    +0.000 A 
ATOM      6  C   UNL     1       2.813   6.904  18.775  0.00  0.00    +0.000 A 
ATOM      7  C   UNL     1       1.994   7.770  19.584  0.00  0.00    +0.000 A 
ATOM      8  C   UNL     1       1.352   7.200  20.743  0.00  0.00    +0.000 A 
ATOM      9  C   UNL     1       1.487   5.847  21.087  0.00  0.00    +0.000 A 
ATOM     10  C   UNL     1       2.275   5.064  20.269  0.00  0.00    +0.000 A 
ATOM     11  C   UNL     1       3.597   7.207  17.524  0.00  0.00    +0.000 C 
ATOM     12  O   UNL     1       3.600   8.329  17.042  0.00  0.00    +0.000 OA
ATOM     13  C   UNL     1       4.394   6.097  16.861  0.00  0.00    +0.000 A 
ATOM     14  C   UNL     1       5.147   6.327  15.695  0.00  0.00    +0.000 A 
ATOM     15  C   UNL     1       5.882   5.288  15.108  0.00  0.00    +0.000 A 
ATOM     16  C   UNL     1       5.877   4.009  15.674  0.00  0.00    +0.000 A 
ATOM     17  C   UNL     1       5.133   3.756  16.827  0.00  0.00    +0.000 A 
ATOM     18  C   UNL     1       4.391   4.787  17.418  0.00  0.00    +0.000 A 
ENDROOT
BRANCH   7  19
ATOM     19  N   UNL     1       1.780   9.163  19.288  0.00  0.00    +0.000 N 
ATOM     20  H   UNL     1       2.522   9.860  19.441  0.00  0.00    +0.000 HD
BRANCH  19  21
ATOM     21  C   UNL     1       0.500   9.599  18.752  0.00  0.00    +0.000 C 
BRANCH  21  22
ATOM     22  C   UNL     1      -0.298  10.553  19.640  0.00  0.00    +0.000 C 
BRANCH  22  23
ATOM     23  N   UNL     1       0.499  10.794  20.853  0.00  0.00    +0.000 NA
ATOM     24  H   UNL     1       1.160  11.587  20.669  0.00  0.00    +0.000 HD
BRANCH  23  25
ATOM     25  C   UNL     1      -0.325  11.143  22.010  0.00  0.00    +0.000 C 
BRANCH  25  26
ATOM     26  C   UNL     1      -0.589   9.886  22.850  0.00  0.00    +0.000 C 
BRANCH  26  27
ATOM     27  O   UNL     1       0.447   9.686  23.771  0.00  0.00    +0.000 OA
ATOM     28  H   UNL     1       0.876  10.570  23.910  0.00  0.00    +0.000 HD
ENDBRANCH  26  27
ENDBRANCH  25  26
ENDBRANCH  23  25
ENDBRANCH  22  23
ENDBRANCH  21  22
ENDBRANCH  19  21
ENDBRANCH   7  19
TORSDOF 7
ENDMDL
MODEL 6
REMARK VINA RESULT:      -6.6      2.219      5.882
REMARK  Name = 
REMARK  8 active torsions:
REMARK  status: ('A' for Active; 'I' for Inactive)
REMARK    1  A    between atoms: C_1  and  N_2
REMARK    2  A    between atoms: C_7  and  N_8
REMARK    3  A    between atoms: N_8  and  C_9
REMARK    4  A    between atoms: C_9  and  C_10
REMARK    5  A    between atoms: C_10  and  N_11
REMARK    6  A    between atoms: N_11  and  C_12
REMARK    7  A    between atoms: C_12  and  C_13
REMARK    8  A    between atoms: C_13  and  O_14
REMARK                            x       y       z     vdW  Elec       q    Type
REMARK                         _______ _______ _______ _____ _____    ______ ____
ROOT
ATOM      1  C   UNL     1       1.499   9.737  17.945  0.00  0.00    +0.000 C 
ATOM      2  N   UNL     1       2.290   8.514  17.998  0.00  0.00    +0.000 N 
ATOM      3  N   UNL     1       3.176   8.136  17.074  0.00  0.00    +0.000 NA
ATOM      4  C   UNL     1       3.712   6.965  17.503  0.00  0.00    +0.000 A 
ATOM      5  C   UNL     1       3.157   6.627  18.692  0.00  0.00    +0.000 A 
ATOM      6  C   UNL     1       3.431   5.522  19.482  0.00  0.00    +0.000 A 
ATOM      7  C   UNL     1       2.679   5.422  20.707  0.00  0.00    +0.000 A 
ATOM      8  C   UNL     1       1.715   6.456  20.991  0.00  0.00    +0.000 A 
ATOM      9  C   UNL     1       1.507   7.546  20.133  0.00  0.00    +0.000 A 
ATOM     10  C   UNL     1       2.265   7.595  18.981  0.00  0.00    +0.000 A 
ATOM     11  C   UNL     1       4.491   4.609  18.922  0.00  0.00    +0.000 C 
ATOM     12  O   UNL     1       4.837   3.605  19.525  0.00  0.00    +0.000 OA
ATOM     13  C   UNL     1       5.132   4.947  17.587  0.00  0.00    +0.000 A 
ATOM     14  C   UNL     1       6.122   4.127  17.016  0.00  0.00    +0.000 A 
ATOM     15  C   UNL     1       6.690   4.455  15.778  0.00  0.00    +0.000 A 
ATOM     16  C   UNL     1       6.280   5.603  15.093  0.00  0.00    +0.000 A 
ATOM     17  C   UNL     1       5.304   6.436  15.642  0.00  0.00    +0.000 A 
ATOM     18  C   UNL     1       4.734   6.118  16.882  0.00  0.00    +0.000 A 
ENDROOT
BRANCH   7  19
ATOM     19  N   UNL     1       2.848   4.353  21.656  0.00  0.00    +0.000 N 
ATOM     20  H   UNL     1       3.288   4.518  22.572  0.00  0.00    +0.000 HD
BRANCH  19  21
ATOM     21  C   UNL     1       2.384   3.014  21.326  0.00  0.00    +0.000 C 
BRANCH  21  22
ATOM     22  C   UNL     1       0.910   2.902  20.937  0.00  0.00    +0.000 C 
BRANCH  22  23
ATOM     23  N   UNL     1       0.849   2.810  19.470  0.00  0.00    +0.000 NA
ATOM     24  H   UNL     1       1.098   3.743  19.063  0.00  0.00    +0.000 HD
BRANCH  23  25
ATOM     25  C   UNL     1       1.770   1.811  18.929  0.00  0.00    +0.000 C 
BRANCH  25  26
ATOM     26  C   UNL     1       2.347   2.314  17.599  0.00  0.00    +0.000 C 
BRANCH  26  27
ATOM     27  O   UNL     1       1.686   3.478  17.185  0.00  0.00    +0.000 OA
ATOM     28  H   UNL     1       0.720   3.254  17.146  0.00  0.00    +0.000 HD
ENDBRANCH  26  27
ENDBRANCH  25  26
ENDBRANCH  23  25
ENDBRANCH  22  23
ENDBRANCH  21  22
ENDBRANCH  19  21
ENDBRANCH   7  19
TORSDOF 7
ENDMDL
MODEL 7
REMARK VINA RESULT:      -6.6      2.860      6.551
REMARK  Name = 
REMARK  8 active torsions:
REMARK  status: ('A' for Active; 'I' for Inactive)
REMARK    1  A    between atoms: C_1  and  N_2
REMARK    2  A    between atoms: C_7  and  N_8
REMARK    3  A    between atoms: N_8  and  C_9
REMARK    4  A    between atoms: C_9  and  C_10
REMARK    5  A    between atoms: C_10  and  N_11
REMARK    6  A    between atoms: N_11  and  C_12
REMARK    7  A    between atoms: C_12  and  C_13
REMARK    8  A    between atoms: C_13  and  O_14
REMARK                            x       y       z     vdW  Elec       q    Type
REMARK                         _______ _______ _______ _____ _____    ______ ____
ROOT
ATOM      1  C   UNL     1       2.022   2.629  21.159  0.00  0.00    +0.000 C 
ATOM      2  N   UNL     1       2.559   3.566  20.180  0.00  0.00    +0.000 N 
ATOM      3  N   UNL     1       3.384   3.240  19.181  0.00  0.00    +0.000 NA
ATOM      4  C   UNL     1       3.627   4.381  18.488  0.00  0.00    +0.000 A 
ATOM      5  C   UNL     1       2.950   5.406  19.059  0.00  0.00    +0.000 A 
ATOM      6  C   UNL     1       2.905   6.732  18.659  0.00  0.00    +0.000 A 
ATOM      7  C   UNL     1       2.093   7.607  19.466  0.00  0.00    +0.000 A 
ATOM      8  C   UNL     1       1.419   7.036  20.606  0.00  0.00    +0.000 A 
ATOM      9  C   UNL     1       1.516   5.676  20.934  0.00  0.00    +0.000 A 
ATOM     10  C   UNL     1       2.299   4.885  20.118  0.00  0.00    +0.000 A 
ATOM     11  C   UNL     1       3.716   7.033  17.425  0.00  0.00    +0.000 C 
ATOM     12  O   UNL     1       3.754   8.161  16.958  0.00  0.00    +0.000 OA
ATOM     13  C   UNL     1       4.499   5.913  16.760  0.00  0.00    +0.000 A 
ATOM     14  C   UNL     1       5.276   6.141  15.610  0.00  0.00    +0.000 A 
ATOM     15  C   UNL     1       5.997   5.093  15.021  0.00  0.00    +0.000 A 
ATOM     16  C   UNL     1       5.953   3.807  15.570  0.00  0.00    +0.000 A 
ATOM     17  C   UNL     1       5.183   3.556  16.707  0.00  0.00    +0.000 A 
ATOM     18  C   UNL     1       4.456   4.596  17.299  0.00  0.00    +0.000 A 
ENDROOT
BRANCH   7  19
ATOM     19  N   UNL     1       1.917   9.007  19.185  0.00  0.00    +0.000 N 
ATOM     20  H   UNL     1       2.423   9.726  19.721  0.00  0.00    +0.000 HD
BRANCH  19  21
ATOM     21  C   UNL     1       1.018   9.423  18.119  0.00  0.00    +0.000 C 
BRANCH  21  22
ATOM     22  C   UNL     1      -0.318  10.012  18.572  0.00  0.00    +0.000 C 
BRANCH  22  23
ATOM     23  N   UNL     1      -1.101  10.306  17.361  0.00  0.00    +0.000 NA
ATOM     24  H   UNL     1      -1.063   9.473  16.725  0.00  0.00    +0.000 HD
BRANCH  23  25
ATOM     25  C   UNL     1      -2.503  10.598  17.654  0.00  0.00    +0.000 C 
BRANCH  25  26
ATOM     26  C   UNL     1      -3.203  11.087  16.378  0.00  0.00    +0.000 C 
BRANCH  26  27
ATOM     27  O   UNL     1      -2.408  10.828  15.254  0.00  0.00    +0.000 OA
ATOM     28  H   UNL     1      -3.026  10.538  14.533  0.00  0.00    +0.000 HD
ENDBRANCH  26  27
ENDBRANCH  25  26
ENDBRANCH  23  25
ENDBRANCH  22  23
ENDBRANCH  21  22
ENDBRANCH  19  21
ENDBRANCH   7  19
TORSDOF 7
ENDMDL
MODEL 8
REMARK VINA RESULT:      -6.6      2.337      6.040
REMARK  Name = 
REMARK  8 active torsions:
REMARK  status: ('A' for Active; 'I' for Inactive)
REMARK    1  A    between atoms: C_1  and  N_2
REMARK    2  A    between atoms: C_7  and  N_8
REMARK    3  A    between atoms: N_8  and  C_9
REMARK    4  A    between atoms: C_9  and  C_10
REMARK    5  A    between atoms: C_10  and  N_11
REMARK    6  A    between atoms: N_11  and  C_12
REMARK    7  A    between atoms: C_12  and  C_13
REMARK    8  A    between atoms: C_13  and  O_14
REMARK                            x       y       z     vdW  Elec       q    Type
REMARK                         _______ _______ _______ _____ _____    ______ ____
ROOT
ATOM      1  C   UNL     1       2.006   1.374  19.819  0.00  0.00    +0.000 C 
ATOM      2  N   UNL     1       2.553   2.580  19.210  0.00  0.00    +0.000 N 
ATOM      3  N   UNL     1       3.395   2.600  18.174  0.00  0.00    +0.000 NA
ATOM      4  C   UNL     1       3.642   3.906  17.897  0.00  0.00    +0.000 A 
ATOM      5  C   UNL     1       2.949   4.687  18.762  0.00  0.00    +0.000 A 
ATOM      6  C   UNL     1       2.903   6.071  18.818  0.00  0.00    +0.000 A 
ATOM      7  C   UNL     1       2.072   6.631  19.854  0.00  0.00    +0.000 A 
ATOM      8  C   UNL     1       1.384   5.718  20.733  0.00  0.00    +0.000 A 
ATOM      9  C   UNL     1       1.485   4.326  20.598  0.00  0.00    +0.000 A 
ATOM     10  C   UNL     1       2.286   3.847  19.581  0.00  0.00    +0.000 A 
ATOM     11  C   UNL     1       3.731   6.760  17.765  0.00  0.00    +0.000 C 
ATOM     12  O   UNL     1       3.769   7.979  17.694  0.00  0.00    +0.000 OA
ATOM     13  C   UNL     1       4.530   5.921  16.782  0.00  0.00    +0.000 A 
ATOM     14  C   UNL     1       5.324   6.514  15.783  0.00  0.00    +0.000 A 
ATOM     15  C   UNL     1       6.060   5.718  14.895  0.00  0.00    +0.000 A 
ATOM     16  C   UNL     1       6.015   4.323  14.991  0.00  0.00    +0.000 A 
ATOM     17  C   UNL     1       5.230   3.712  15.970  0.00  0.00    +0.000 A 
ATOM     18  C   UNL     1       4.487   4.500  16.859  0.00  0.00    +0.000 A 
ENDROOT
BRANCH   7  19
ATOM     19  N   UNL     1       1.892   8.046  20.045  0.00  0.00    +0.000 N 
ATOM     20  H   UNL     1       2.174   8.723  19.321  0.00  0.00    +0.000 HD
BRANCH  19  21
ATOM     21  C   UNL     1       1.291   8.538  21.275  0.00  0.00    +0.000 C 
BRANCH  21  22
ATOM     22  C   UNL     1      -0.053   9.249  21.117  0.00  0.00    +0.000 C 
BRANCH  22  23
ATOM     23  N   UNL     1       0.151  10.371  20.186  0.00  0.00    +0.000 NA
ATOM     24  H   UNL     1       1.002  10.176  19.606  0.00  0.00    +0.000 HD
BRANCH  23  25
ATOM     25  C   UNL     1      -0.984  10.570  19.286  0.00  0.00    +0.000 C 
BRANCH  25  26
ATOM     26  C   UNL     1      -0.640  10.016  17.896  0.00  0.00    +0.000 C 
BRANCH  26  27
ATOM     27  O   UNL     1       0.749   9.914  17.740  0.00  0.00    +0.000 OA
ATOM     28  H   UNL     1       1.127  10.797  17.990  0.00  0.00    +0.000 HD
ENDBRANCH  26  27
ENDBRANCH  25  26
ENDBRANCH  23  25
ENDBRANCH  22  23
ENDBRANCH  21  22
ENDBRANCH  19  21
ENDBRANCH   7  19
TORSDOF 7
ENDMDL
MODEL 9
REMARK VINA RESULT:      -6.6      2.638      6.212
REMARK  Name = 
REMARK  8 active torsions:
REMARK  status: ('A' for Active; 'I' for Inactive)
REMARK    1  A    between atoms: C_1  and  N_2
REMARK    2  A    between atoms: C_7  and  N_8
REMARK    3  A    between atoms: N_8  and  C_9
REMARK    4  A    between atoms: C_9  and  C_10
REMARK    5  A    between atoms: C_10  and  N_11
REMARK    6  A    between atoms: N_11  and  C_12
REMARK    7  A    between atoms: C_12  and  C_13
REMARK    8  A    between atoms: C_13  and  O_14
REMARK                            x       y       z     vdW  Elec       q    Type
REMARK                         _______ _______ _______ _____ _____    ______ ____
ROOT
ATOM      1  C   UNL     1       1.139   1.441  19.065  0.00  0.00    +0.000 C 
ATOM      2  N   UNL     1       1.966   2.559  18.629  0.00  0.00    +0.000 N 
ATOM      3  N   UNL     1       2.875   2.503  17.653  0.00  0.00    +0.000 NA
ATOM      4  C   UNL     1       3.403   3.748  17.539  0.00  0.00    +0.000 A 
ATOM      5  C   UNL     1       2.816   4.569  18.445  0.00  0.00    +0.000 A 
ATOM      6  C   UNL     1       3.047   5.919  18.654  0.00  0.00    +0.000 A 
ATOM      7  C   UNL     1       2.267   6.537  19.695  0.00  0.00    +0.000 A 
ATOM      8  C   UNL     1       1.340   5.708  20.424  0.00  0.00    +0.000 A 
ATOM      9  C   UNL     1       1.166   4.345  20.140  0.00  0.00    +0.000 A 
ATOM     10  C   UNL     1       1.932   3.811  19.123  0.00  0.00    +0.000 A 
ATOM     11  C   UNL     1       4.080   6.519  17.734  0.00  0.00    +0.000 C 
ATOM     12  O   UNL     1       4.369   7.703  17.804  0.00  0.00    +0.000 OA
ATOM     13  C   UNL     1       4.769   5.631  16.712  0.00  0.00    +0.000 A 
ATOM     14  C   UNL     1       5.744   6.139  15.834  0.00  0.00    +0.000 A 
ATOM     15  C   UNL     1       6.372   5.296  14.907  0.00  0.00    +0.000 A 
ATOM     16  C   UNL     1       6.038   3.940  14.843  0.00  0.00    +0.000 A 
ATOM     17  C   UNL     1       5.069   3.415  15.699  0.00  0.00    +0.000 A 
ATOM     18  C   UNL     1       4.432   4.250  16.625  0.00  0.00    +0.000 A 
ENDROOT
BRANCH   7  19
ATOM     19  N   UNL     1       2.363   7.933  20.034  0.00  0.00    +0.000 N 
ATOM     20  H   UNL     1       3.154   8.296  20.584  0.00  0.00    +0.000 HD
BRANCH  19  21
ATOM     21  C   UNL     1       1.332   8.857  19.585  0.00  0.00    +0.000 C 
BRANCH  21  22
ATOM     22  C   UNL     1       1.346   9.190  18.093  0.00  0.00    +0.000 C 
BRANCH  22  23
ATOM     23  N   UNL     1       0.580  10.434  17.914  0.00  0.00    +0.000 NA
ATOM     24  H   UNL     1       0.665  10.740  16.914  0.00  0.00    +0.000 HD
BRANCH  23  25
ATOM     25  C   UNL     1      -0.839  10.271  18.226  0.00  0.00    +0.000 C 
BRANCH  25  26
ATOM     26  C   UNL     1      -1.472  11.648  18.472  0.00  0.00    +0.000 C 
BRANCH  26  27
ATOM     27  O   UNL     1      -1.406  12.431  17.312  0.00  0.00    +0.000 OA
ATOM     28  H   UNL     1      -2.282  12.890  17.231  0.00  0.00    +0.000 HD
ENDBRANCH  26  27
ENDBRANCH  25  26
ENDBRANCH  23  25
ENDBRANCH  22  23
ENDBRANCH  21  22
ENDBRANCH  19  21
ENDBRANCH   7  19
TORSDOF 7
ENDMDL
