MODEL 1
REMARK VINA RESULT:      -6.9      0.000      0.000
REMARK  Name = 
REMARK  8 active torsions:
REMARK  status: ('A' for Active; 'I' for Inactive)
REMARK    1  A    between atoms: C_1  and  O_2
REMARK    2  A    between atoms: O_2  and  C_3
REMARK    3  A    between atoms: C_6  and  N_7
REMARK    4  A    between atoms: N_8  and  C_9
REMARK    5  A    between atoms: C_12  and  S_13
REMARK    6  A    between atoms: S_13  and  N_14
REMARK    7  A    between atoms: C_20  and  O_21
REMARK    8  A    between atoms: O_21  and  C_22
REMARK                            x       y       z     vdW  Elec       q    Type
REMARK                         _______ _______ _______ _____ _____    ______ ____
ROOT
ATOM      1  N   UNL     1       3.161   6.763  18.803  0.00  0.00    +0.000 NA
ATOM      2  N   UNL     1       2.641   7.743  18.222  0.00  0.00    +0.000 NA
ENDROOT
BRANCH   1   6
ATOM      3  C   UNL     1       5.585   4.454  16.211  0.00  0.00    +0.000 A 
ATOM      4  C   UNL     1       4.332   3.994  16.648  0.00  0.00    +0.000 A 
ATOM      5  C   UNL     1       3.531   4.778  17.482  0.00  0.00    +0.000 A 
ATOM      6  C   UNL     1       3.982   6.015  17.937  0.00  0.00    +0.000 A 
ATOM      7  C   UNL     1       5.273   6.421  17.578  0.00  0.00    +0.000 A 
ATOM      8  C   UNL     1       6.084   5.659  16.722  0.00  0.00    +0.000 A 
BRANCH   3  10
ATOM      9  C   UNL     1       6.044   3.963  13.944  0.00  0.00    +0.000 C 
ATOM     10  O   UNL     1       6.328   3.723  15.323  0.00  0.00    +0.000 OA
ENDBRANCH   3  10
BRANCH   8  11
ATOM     11  O   UNL     1       7.293   6.263  16.506  0.00  0.00    +0.000 OA
ATOM     12  C   UNL     1       7.689   7.349  17.324  0.00  0.00    +0.000 C 
ENDBRANCH   8  11
ENDBRANCH   1   6
BRANCH   2  13
ATOM     13  C   UNL     1       1.899   8.547  19.111  0.00  0.00    +0.000 A 
ATOM     14  C   UNL     1       1.389   9.764  18.641  0.00  0.00    +0.000 A 
ATOM     15  C   UNL     1       0.639  10.600  19.476  0.00  0.00    +0.000 A 
ATOM     16  C   UNL     1       0.378  10.207  20.789  0.00  0.00    +0.000 A 
ATOM     17  C   UNL     1       0.873   8.995  21.277  0.00  0.00    +0.000 A 
ATOM     18  C   UNL     1       1.621   8.165  20.436  0.00  0.00    +0.000 A 
BRANCH  16  19
ATOM     19  S   UNL     1      -0.525  11.277  21.864  0.00  0.00    +0.000 S 
ATOM     20  O   UNL     1      -1.799  11.597  21.261  0.00  0.00    +0.000 OA
ATOM     21  O   UNL     1      -0.408  10.799  23.220  0.00  0.00    +0.000 OA
BRANCH  19  22
ATOM     22  N   UNL     1       0.383  12.688  21.793  0.00  0.00    +0.000 NA
ATOM     23  H   UNL     1      -0.163  13.426  21.346  0.00  0.00    +0.000 HD
ATOM     24  H   UNL     1       0.714  12.930  22.727  0.00  0.00    +0.000 HD
ENDBRANCH  19  22
ENDBRANCH  16  19
ENDBRANCH   2  13
TORSDOF 6
ENDMDL
MODEL 2
REMARK VINA RESULT:      -6.8      3.103      8.843
REMARK  Name = 
REMARK  8 active torsions:
REMARK  status: ('A' for Active; 'I' for Inactive)
REMARK    1  A    between atoms: C_1  and  O_2
REMARK    2  A    between atoms: O_2  and  C_3
REMARK    3  A    between atoms: C_6  and  N_7
REMARK    4  A    between atoms: N_8  and  C_9
REMARK    5  A    between atoms: C_12  and  S_13
REMARK    6  A    between atoms: S_13  and  N_14
REMARK    7  A    between atoms: C_20  and  O_21
REMARK    8  A    between atoms: O_21  and  C_22
REMARK                            x       y       z     vdW  Elec       q    Type
REMARK                         _______ _______ _______ _____ _____    ______ ____
ROOT
ATOM      1  N   UNL     1       2.189   8.590  18.280  0.00  0.00    +0.000 NA
ATOM      2  N   UNL     1       2.372   7.446  18.755  0.00  0.00    +0.000 NA
ENDROOT
BRANCH   1   6
ATOM      3  C   UNL     1      -0.585  10.769  20.622  0.00  0.00    +0.000 A 
ATOM      4  C   UNL     1       0.189   9.735  21.174  0.00  0.00    +0.000 A 
ATOM      5  C   UNL     1       1.120   9.043  20.395  0.00  0.00    +0.000 A 
ATOM      6  C   UNL     1       1.264   9.331  19.041  0.00  0.00    +0.000 A 
ATOM      7  C   UNL     1       0.417  10.293  18.476  0.00  0.00    +0.000 A 
ATOM      8  C   UNL     1      -0.508  11.017  19.245  0.00  0.00    +0.000 A 
BRANCH   3  10
ATOM      9  C   UNL     1      -1.352  11.241  22.809  0.00  0.00    +0.000 C 
ATOM     10  O   UNL     1      -1.432  11.505  21.407  0.00  0.00    +0.000 OA
ENDBRANCH   3  10
BRANCH   8  11
ATOM     11  O   UNL     1      -1.211  11.907  18.480  0.00  0.00    +0.000 OA
ATOM     12  C   UNL     1      -2.434  11.507  17.888  0.00  0.00    +0.000 C 
ENDBRANCH   8  11
ENDBRANCH   1   6
BRANCH   2  13
ATOM     13  C   UNL     1       3.369   6.740  18.053  0.00  0.00    +0.000 A 
ATOM     14  C   UNL     1       4.261   7.465  17.251  0.00  0.00    +0.000 A 
ATOM     15  C   UNL     1       5.275   6.819  16.536  0.00  0.00    +0.000 A 
ATOM     16  C   UNL     1       5.415   5.435  16.639  0.00  0.00    +0.000 A 
ATOM     17  C   UNL     1       4.540   4.692  17.436  0.00  0.00    +0.000 A 
ATOM     18  C   UNL     1       3.530   5.346  18.148  0.00  0.00    +0.000 A 
BRANCH  16  19
ATOM     19  S   UNL     1       6.661   4.604  15.704  0.00  0.00    +0.000 S 
ATOM     20  O   UNL     1       6.123   3.367  15.183  0.00  0.00    +0.000 OA
ATOM     21  O   UNL     1       7.349   5.560  14.873  0.00  0.00    +0.000 OA
BRANCH  19  22
ATOM     22  N   UNL     1       7.754   4.159  16.900  0.00  0.00    +0.000 NA
ATOM     23  H   UNL     1       8.035   3.188  16.765  0.00  0.00    +0.000 HD
ATOM     24  H   UNL     1       8.535   4.816  16.910  0.00  0.00    +0.000 HD
ENDBRANCH  19  22
ENDBRANCH  16  19
ENDBRANCH   2  13
TORSDOF 6
ENDMDL
MODEL 3
REMARK VINA RESULT:      -6.8      6.078      8.023
REMARK  Name = 
REMARK  8 active torsions:
REMARK  status: ('A' for Active; 'I' for Inactive)
REMARK    1  A    between atoms: C_1  and  O_2
REMARK    2  A    between atoms: O_2  and  C_3
REMARK    3  A    between atoms: C_6  and  N_7
REMARK    4  A    between atoms: N_8  and  C_9
REMARK    5  A    between atoms: C_12  and  S_13
REMARK    6  A    between atoms: S_13  and  N_14
REMARK    7  A    between atoms: C_20  and  O_21
REMARK    8  A    between atoms: O_21  and  C_22
REMARK                            x       y       z     vdW  Elec       q    Type
REMARK                         _______ _______ _______ _____ _____    ______ ____
ROOT
ATOM      1  N   UNL     1       8.221   9.049  17.692  0.00  0.00    +0.000 NA
ATOM      2  N   UNL     1       8.829   9.452  18.709  0.00  0.00    +0.000 NA
ENDROOT
BRANCH   1   6
ATOM      3  C   UNL     1       6.623   5.177  18.312  0.00  0.00    +0.000 A 
ATOM      4  C   UNL     1       7.703   5.657  19.072  0.00  0.00    +0.000 A 
ATOM      5  C   UNL     1       8.202   6.947  18.875  0.00  0.00    +0.000 A 
ATOM      6  C   UNL     1       7.670   7.767  17.884  0.00  0.00    +0.000 A 
ATOM      7  C   UNL     1       6.662   7.245  17.064  0.00  0.00    +0.000 A 
ATOM      8  C   UNL     1       6.130   5.961  17.261  0.00  0.00    +0.000 A 
BRANCH   3  10
ATOM      9  C   UNL     1       4.822   3.965  19.248  0.00  0.00    +0.000 C 
ATOM     10  O   UNL     1       6.078   3.948  18.568  0.00  0.00    +0.000 OA
ENDBRANCH   3  10
BRANCH   8  11
ATOM     11  O   UNL     1       5.150   5.677  16.348  0.00  0.00    +0.000 OA
ATOM     12  C   UNL     1       5.447   4.851  15.238  0.00  0.00    +0.000 C 
ENDBRANCH   8  11
ENDBRANCH   1   6
BRANCH   2  13
ATOM     13  C   UNL     1       9.296  10.773  18.552  0.00  0.00    +0.000 A 
ATOM     14  C   UNL     1      10.503  11.131  19.167  0.00  0.00    +0.000 A 
ATOM     15  C   UNL     1      11.019  12.425  19.040  0.00  0.00    +0.000 A 
ATOM     16  C   UNL     1      10.333  13.367  18.274  0.00  0.00    +0.000 A 
ATOM     17  C   UNL     1       9.130  13.032  17.649  0.00  0.00    +0.000 A 
ATOM     18  C   UNL     1       8.621  11.736  17.780  0.00  0.00    +0.000 A 
BRANCH  16  19
ATOM     19  S   UNL     1      10.951  15.017  18.148  0.00  0.00    +0.000 S 
ATOM     20  O   UNL     1      10.710  15.714  19.391  0.00  0.00    +0.000 OA
ATOM     21  O   UNL     1      12.244  14.994  17.510  0.00  0.00    +0.000 OA
BRANCH  19  22
ATOM     22  N   UNL     1       9.896  15.697  17.030  0.00  0.00    +0.000 NA
ATOM     23  H   UNL     1       9.049  15.132  16.969  0.00  0.00    +0.000 HD
ATOM     24  H   UNL     1       9.723  16.673  17.274  0.00  0.00    +0.000 HD
ENDBRANCH  19  22
ENDBRANCH  16  19
ENDBRANCH   2  13
TORSDOF 6
ENDMDL
MODEL 4
REMARK VINA RESULT:      -6.8      1.081      2.400
REMARK  Name = 
REMARK  8 active torsions:
REMARK  status: ('A' for Active; 'I' for Inactive)
REMARK    1  A    between atoms: C_1  and  O_2
REMARK    2  A    between atoms: O_2  and  C_3
REMARK    3  A    between atoms: C_6  and  N_7
REMARK    4  A    between atoms: N_8  and  C_9
REMARK    5  A    between atoms: C_12  and  S_13
REMARK    6  A    between atoms: S_13  and  N_14
REMARK    7  A    between atoms: C_20  and  O_21
REMARK    8  A    between atoms: O_21  and  C_22
REMARK                            x       y       z     vdW  Elec       q    Type
REMARK                         _______ _______ _______ _____ _____    ______ ____
ROOT
ATOM      1  N   UNL     1       2.764   6.913  18.758  0.00  0.00    +0.000 NA
ATOM      2  N   UNL     1       2.394   7.941  18.146  0.00  0.00    +0.000 NA
ENDROOT
BRANCH   1   6
ATOM      3  C   UNL     1       5.120   4.435  16.260  0.00  0.00    +0.000 A 
ATOM      4  C   UNL     1       5.150   5.835  16.145  0.00  0.00    +0.000 A 
ATOM      5  C   UNL     1       4.387   6.641  16.993  0.00  0.00    +0.000 A 
ATOM      6  C   UNL     1       3.543   6.069  17.942  0.00  0.00    +0.000 A 
ATOM      7  C   UNL     1       3.443   4.673  17.983  0.00  0.00    +0.000 A 
ATOM      8  C   UNL     1       4.218   3.846  17.156  0.00  0.00    +0.000 A 
BRANCH   3  10
ATOM      9  C   UNL     1       6.692   4.347  14.496  0.00  0.00    +0.000 C 
ATOM     10  O   UNL     1       5.935   3.651  15.489  0.00  0.00    +0.000 OA
ENDBRANCH   3  10
BRANCH   8  11
ATOM     11  O   UNL     1       3.959   2.521  17.385  0.00  0.00    +0.000 OA
ATOM     12  C   UNL     1       2.716   2.138  17.944  0.00  0.00    +0.000 C 
ENDBRANCH   8  11
ENDBRANCH   1   6
BRANCH   2  13
ATOM     13  C   UNL     1       1.698   8.831  18.989  0.00  0.00    +0.000 A 
ATOM     14  C   UNL     1       1.420   8.427  20.301  0.00  0.00    +0.000 A 
ATOM     15  C   UNL     1       0.739   9.271  21.185  0.00  0.00    +0.000 A 
ATOM     16  C   UNL     1       0.350  10.542  20.761  0.00  0.00    +0.000 A 
ATOM     17  C   UNL     1       0.620  10.967  19.458  0.00  0.00    +0.000 A 
ATOM     18  C   UNL     1       1.302  10.118  18.581  0.00  0.00    +0.000 A 
BRANCH  16  19
ATOM     19  S   UNL     1      -0.553  11.596  21.853  0.00  0.00    +0.000 S 
ATOM     20  O   UNL     1      -1.810  11.959  21.238  0.00  0.00    +0.000 OA
ATOM     21  O   UNL     1      -0.468  11.076  23.195  0.00  0.00    +0.000 OA
BRANCH  19  22
ATOM     22  N   UNL     1       0.383  12.992  21.839  0.00  0.00    +0.000 NA
ATOM     23  H   UNL     1       1.138  12.906  22.519  0.00  0.00    +0.000 HD
ATOM     24  H   UNL     1       0.704  13.179  20.888  0.00  0.00    +0.000 HD
ENDBRANCH  19  22
ENDBRANCH  16  19
ENDBRANCH   2  13
TORSDOF 6
ENDMDL
MODEL 5
REMARK VINA RESULT:      -6.8      1.055      2.172
REMARK  Name = 
REMARK  8 active torsions:
REMARK  status: ('A' for Active; 'I' for Inactive)
REMARK    1  A    between atoms: C_1  and  O_2
REMARK    2  A    between atoms: O_2  and  C_3
REMARK    3  A    between atoms: C_6  and  N_7
REMARK    4  A    between atoms: N_8  and  C_9
REMARK    5  A    between atoms: C_12  and  S_13
REMARK    6  A    between atoms: S_13  and  N_14
REMARK    7  A    between atoms: C_20  and  O_21
REMARK    8  A    between atoms: O_21  and  C_22
REMARK                            x       y       z     vdW  Elec       q    Type
REMARK                         _______ _______ _______ _____ _____    ______ ____
ROOT
ATOM      1  N   UNL     1       2.753   6.807  18.953  0.00  0.00    +0.000 NA
ATOM      2  N   UNL     1       2.385   7.853  18.373  0.00  0.00    +0.000 NA
ENDROOT
BRANCH   1   6
ATOM      3  C   UNL     1       5.150   4.427  16.399  0.00  0.00    +0.000 A 
ATOM      4  C   UNL     1       5.189   5.830  16.346  0.00  0.00    +0.000 A 
ATOM      5  C   UNL     1       4.412   6.603  17.213  0.00  0.00    +0.000 A 
ATOM      6  C   UNL     1       3.545   5.995  18.117  0.00  0.00    +0.000 A 
ATOM      7  C   UNL     1       3.437   4.599  18.094  0.00  0.00    +0.000 A 
ATOM      8  C   UNL     1       4.225   3.804  17.247  0.00  0.00    +0.000 A 
BRANCH   3  10
ATOM      9  C   UNL     1       5.986   4.021  14.225  0.00  0.00    +0.000 C 
ATOM     10  O   UNL     1       5.977   3.673  15.610  0.00  0.00    +0.000 OA
ENDBRANCH   3  10
BRANCH   8  11
ATOM     11  O   UNL     1       3.954   2.472  17.411  0.00  0.00    +0.000 OA
ATOM     12  C   UNL     1       2.731   2.076  18.006  0.00  0.00    +0.000 C 
ENDBRANCH   8  11
ENDBRANCH   1   6
BRANCH   2  13
ATOM     13  C   UNL     1       1.676   8.711  19.238  0.00  0.00    +0.000 A 
ATOM     14  C   UNL     1       1.178   9.915  18.723  0.00  0.00    +0.000 A 
ATOM     15  C   UNL     1       0.462  10.802  19.533  0.00  0.00    +0.000 A 
ATOM     16  C   UNL     1       0.220  10.475  20.867  0.00  0.00    +0.000 A 
ATOM     17  C   UNL     1       0.703   9.277  21.401  0.00  0.00    +0.000 A 
ATOM     18  C   UNL     1       1.418   8.396  20.585  0.00  0.00    +0.000 A 
BRANCH  16  19
ATOM     19  S   UNL     1      -0.641  11.610  21.910  0.00  0.00    +0.000 S 
ATOM     20  O   UNL     1      -1.878  12.000  21.273  0.00  0.00    +0.000 OA
ATOM     21  O   UNL     1      -0.586  11.141  23.273  0.00  0.00    +0.000 OA
BRANCH  19  22
ATOM     22  N   UNL     1       0.353  12.963  21.847  0.00  0.00    +0.000 NA
ATOM     23  H   UNL     1       1.329  12.675  21.916  0.00  0.00    +0.000 HD
ATOM     24  H   UNL     1       0.142  13.503  21.007  0.00  0.00    +0.000 HD
ENDBRANCH  19  22
ENDBRANCH  16  19
ENDBRANCH   2  13
TORSDOF 6
ENDMDL
MODEL 6
REMARK VINA RESULT:      -6.8      3.400      8.898
REMARK  Name = 
REMARK  8 active torsions:
REMARK  status: ('A' for Active; 'I' for Inactive)
REMARK    1  A    between atoms: C_1  and  O_2
REMARK    2  A    between atoms: O_2  and  C_3
REMARK    3  A    between atoms: C_6  and  N_7
REMARK    4  A    between atoms: N_8  and  C_9
REMARK    5  A    between atoms: C_12  and  S_13
REMARK    6  A    between atoms: S_13  and  N_14
REMARK    7  A    between atoms: C_20  and  O_21
REMARK    8  A    between atoms: O_21  and  C_22
REMARK                            x       y       z     vdW  Elec       q    Type
REMARK                         _______ _______ _______ _____ _____    ______ ____
ROOT
ATOM      1  N   UNL     1       1.009   8.051  21.102  0.00  0.00    +0.000 NA
ATOM      2  N   UNL     1       1.768   8.261  20.129  0.00  0.00    +0.000 NA
ENDROOT
BRANCH   1   6
ATOM      3  C   UNL     1      -0.781  11.591  22.585  0.00  0.00    +0.000 A 
ATOM      4  C   UNL     1      -0.986  10.348  23.206  0.00  0.00    +0.000 A 
ATOM      5  C   UNL     1      -0.367   9.193  22.721  0.00  0.00    +0.000 A 
ATOM      6  C   UNL     1       0.429   9.242  21.580  0.00  0.00    +0.000 A 
ATOM      7  C   UNL     1       0.546  10.465  20.909  0.00  0.00    +0.000 A 
ATOM      8  C   UNL     1      -0.047  11.642  21.392  0.00  0.00    +0.000 A 
BRANCH   3  10
ATOM      9  C   UNL     1      -2.741  12.758  23.206  0.00  0.00    +0.000 C 
ATOM     10  O   UNL     1      -1.315  12.735  23.113  0.00  0.00    +0.000 OA
ENDBRANCH   3  10
BRANCH   8  11
ATOM     11  O   UNL     1       0.217  12.710  20.577  0.00  0.00    +0.000 OA
ATOM     12  C   UNL     1       1.451  12.773  19.885  0.00  0.00    +0.000 C 
ENDBRANCH   8  11
ENDBRANCH   1   6
BRANCH   2  13
ATOM     13  C   UNL     1       2.272   7.061  19.588  0.00  0.00    +0.000 A 
ATOM     14  C   UNL     1       2.136   5.884  20.336  0.00  0.00    +0.000 A 
ATOM     15  C   UNL     1       2.610   4.662  19.847  0.00  0.00    +0.000 A 
ATOM     16  C   UNL     1       3.209   4.610  18.588  0.00  0.00    +0.000 A 
ATOM     17  C   UNL     1       3.351   5.770  17.823  0.00  0.00    +0.000 A 
ATOM     18  C   UNL     1       2.873   6.987  18.319  0.00  0.00    +0.000 A 
BRANCH  16  19
ATOM     19  S   UNL     1       3.855   3.082  17.983  0.00  0.00    +0.000 S 
ATOM     20  O   UNL     1       2.792   2.104  17.922  0.00  0.00    +0.000 OA
ATOM     21  O   UNL     1       4.732   3.343  16.869  0.00  0.00    +0.000 OA
BRANCH  19  22
ATOM     22  N   UNL     1       4.848   2.599  19.249  0.00  0.00    +0.000 NA
ATOM     23  H   UNL     1       5.669   3.203  19.291  0.00  0.00    +0.000 HD
ATOM     24  H   UNL     1       4.309   2.575  20.116  0.00  0.00    +0.000 HD
ENDBRANCH  19  22
ENDBRANCH  16  19
ENDBRANCH   2  13
TORSDOF 6
ENDMDL
MODEL 7
REMARK VINA RESULT:      -6.7      3.412      8.938
REMARK  Name = 
REMARK  8 active torsions:
REMARK  status: ('A' for Active; 'I' for Inactive)
REMARK    1  A    between atoms: C_1  and  O_2
REMARK    2  A    between atoms: O_2  and  C_3
REMARK    3  A    between atoms: C_6  and  N_7
REMARK    4  A    between atoms: N_8  and  C_9
REMARK    5  A    between atoms: C_12  and  S_13
REMARK    6  A    between atoms: S_13  and  N_14
REMARK    7  A    between atoms: C_20  and  O_21
REMARK    8  A    between atoms: O_21  and  C_22
REMARK                            x       y       z     vdW  Elec       q    Type
REMARK                         _______ _______ _______ _____ _____    ______ ____
ROOT
ATOM      1  N   UNL     1       0.943   8.024  21.193  0.00  0.00    +0.000 NA
ATOM      2  N   UNL     1       1.704   8.186  20.213  0.00  0.00    +0.000 NA
ENDROOT
BRANCH   1   6
ATOM      3  C   UNL     1      -0.819  11.637  22.524  0.00  0.00    +0.000 A 
ATOM      4  C   UNL     1      -0.985  10.434  23.231  0.00  0.00    +0.000 A 
ATOM      5  C   UNL     1      -0.376   9.255  22.794  0.00  0.00    +0.000 A 
ATOM      6  C   UNL     1       0.371   9.238  21.619  0.00  0.00    +0.000 A 
ATOM      7  C   UNL     1       0.448  10.417  20.868  0.00  0.00    +0.000 A 
ATOM      8  C   UNL     1      -0.136  11.617  21.300  0.00  0.00    +0.000 A 
BRANCH   3  10
ATOM      9  C   UNL     1      -2.767  12.846  23.099  0.00  0.00    +0.000 C 
ATOM     10  O   UNL     1      -1.343  12.808  23.001  0.00  0.00    +0.000 OA
ENDBRANCH   3  10
BRANCH   8  11
ATOM     11  O   UNL     1       0.083  12.633  20.409  0.00  0.00    +0.000 OA
ATOM     12  C   UNL     1      -0.708  12.718  19.238  0.00  0.00    +0.000 C 
ENDBRANCH   8  11
ENDBRANCH   1   6
BRANCH   2  13
ATOM     13  C   UNL     1       2.200   6.960  19.724  0.00  0.00    +0.000 A 
ATOM     14  C   UNL     1       2.925   6.964  18.526  0.00  0.00    +0.000 A 
ATOM     15  C   UNL     1       3.447   5.779  17.997  0.00  0.00    +0.000 A 
ATOM     16  C   UNL     1       3.260   4.578  18.682  0.00  0.00    +0.000 A 
ATOM     17  C   UNL     1       2.544   4.551  19.882  0.00  0.00    +0.000 A 
ATOM     18  C   UNL     1       2.027   5.741  20.404  0.00  0.00    +0.000 A 
BRANCH  16  19
ATOM     19  S   UNL     1       3.873   3.070  17.998  0.00  0.00    +0.000 S 
ATOM     20  O   UNL     1       2.813   2.086  17.984  0.00  0.00    +0.000 OA
ATOM     21  O   UNL     1       4.673   3.364  16.836  0.00  0.00    +0.000 OA
BRANCH  19  22
ATOM     22  N   UNL     1       4.950   2.563  19.184  0.00  0.00    +0.000 NA
ATOM     23  H   UNL     1       5.042   1.548  19.154  0.00  0.00    +0.000 HD
ATOM     24  H   UNL     1       5.835   3.060  19.077  0.00  0.00    +0.000 HD
ENDBRANCH  19  22
ENDBRANCH  16  19
ENDBRANCH   2  13
TORSDOF 6
ENDMDL
MODEL 8
REMARK VINA RESULT:      -6.7      2.800      3.982
REMARK  Name = 
REMARK  8 active torsions:
REMARK  status: ('A' for Active; 'I' for Inactive)
REMARK    1  A    between atoms: C_1  and  O_2
REMARK    2  A    between atoms: O_2  and  C_3
REMARK    3  A    between atoms: C_6  and  N_7
REMARK    4  A    between atoms: N_8  and  C_9
REMARK    5  A    between atoms: C_12  and  S_13
REMARK    6  A    between atoms: S_13  and  N_14
REMARK    7  A    between atoms: C_20  and  O_21
REMARK    8  A    between atoms: O_21  and  C_22
REMARK                            x       y       z     vdW  Elec       q    Type
REMARK                         _______ _______ _______ _____ _____    ______ ____
ROOT
ATOM      1  N   UNL     1       1.867   7.889  20.077  0.00  0.00    +0.000 NA
ATOM      2  N   UNL     1       1.153   7.769  21.099  0.00  0.00    +0.000 NA
ENDROOT
BRANCH   1   6
ATOM      3  C   UNL     1       3.567   4.219  18.825  0.00  0.00    +0.000 A 
ATOM      4  C   UNL     1       3.578   5.353  17.997  0.00  0.00    +0.000 A 
ATOM      5  C   UNL     1       3.037   6.565  18.434  0.00  0.00    +0.000 A 
ATOM      6  C   UNL     1       2.431   6.659  19.684  0.00  0.00    +0.000 A 
ATOM      7  C   UNL     1       2.334   5.499  20.462  0.00  0.00    +0.000 A 
ATOM      8  C   UNL     1       2.892   4.278  20.052  0.00  0.00    +0.000 A 
BRANCH   3  10
ATOM      9  C   UNL     1       3.300   2.045  17.936  0.00  0.00    +0.000 C 
ATOM     10  O   UNL     1       4.176   3.058  18.431  0.00  0.00    +0.000 OA
ENDBRANCH   3  10
BRANCH   8  11
ATOM     11  O   UNL     1       2.684   3.293  20.980  0.00  0.00    +0.000 OA
ATOM     12  C   UNL     1       1.362   2.945  21.346  0.00  0.00    +0.000 C 
ENDBRANCH   8  11
ENDBRANCH   1   6
BRANCH   2  13
ATOM     13  C   UNL     1       0.510   8.978  21.434  0.00  0.00    +0.000 A 
ATOM     14  C   UNL     1      -0.063   9.097  22.707  0.00  0.00    +0.000 A 
ATOM     15  C   UNL     1      -0.708  10.275  23.099  0.00  0.00    +0.000 A 
ATOM     16  C   UNL     1      -0.763  11.355  22.217  0.00  0.00    +0.000 A 
ATOM     17  C   UNL     1      -0.194  11.260  20.944  0.00  0.00    +0.000 A 
ATOM     18  C   UNL     1       0.449  10.079  20.562  0.00  0.00    +0.000 A 
BRANCH  16  19
ATOM     19  S   UNL     1      -1.617  12.829  22.683  0.00  0.00    +0.000 S 
ATOM     20  O   UNL     1      -0.823  13.556  23.649  0.00  0.00    +0.000 OA
ATOM     21  O   UNL     1      -2.168  13.452  21.506  0.00  0.00    +0.000 OA
BRANCH  19  22
ATOM     22  N   UNL     1      -2.927  12.215  23.537  0.00  0.00    +0.000 NA
ATOM     23  H   UNL     1      -2.678  12.110  24.521  0.00  0.00    +0.000 HD
ATOM     24  H   UNL     1      -3.744  12.806  23.381  0.00  0.00    +0.000 HD
ENDBRANCH  19  22
ENDBRANCH  16  19
ENDBRANCH   2  13
TORSDOF 6
ENDMDL
MODEL 9
REMARK VINA RESULT:      -6.7      2.810      3.956
REMARK  Name = 
REMARK  8 active torsions:
REMARK  status: ('A' for Active; 'I' for Inactive)
REMARK    1  A    between atoms: C_1  and  O_2
REMARK    2  A    between atoms: O_2  and  C_3
REMARK    3  A    between atoms: C_6  and  N_7
REMARK    4  A    between atoms: N_8  and  C_9
REMARK    5  A    between atoms: C_12  and  S_13
REMARK    6  A    between atoms: S_13  and  N_14
REMARK    7  A    between atoms: C_20  and  O_21
REMARK    8  A    between atoms: O_21  and  C_22
REMARK                            x       y       z     vdW  Elec       q    Type
REMARK                         _______ _______ _______ _____ _____    ______ ____
ROOT
ATOM      1  N   UNL     1       1.718   7.930  20.066  0.00  0.00    +0.000 NA
ATOM      2  N   UNL     1       1.218   7.902  21.214  0.00  0.00    +0.000 NA
ENDROOT
BRANCH   1   6
ATOM      3  C   UNL     1       3.383   4.214  18.906  0.00  0.00    +0.000 A 
ATOM      4  C   UNL     1       3.341   5.307  18.025  0.00  0.00    +0.000 A 
ATOM      5  C   UNL     1       2.813   6.536  18.430  0.00  0.00    +0.000 A 
ATOM      6  C   UNL     1       2.271   6.687  19.704  0.00  0.00    +0.000 A 
ATOM      7  C   UNL     1       2.224   5.564  20.540  0.00  0.00    +0.000 A 
ATOM      8  C   UNL     1       2.771   4.329  20.161  0.00  0.00    +0.000 A 
BRANCH   3  10
ATOM      9  C   UNL     1       3.108   2.059  17.973  0.00  0.00    +0.000 C 
ATOM     10  O   UNL     1       3.981   3.040  18.537  0.00  0.00    +0.000 OA
ENDBRANCH   3  10
BRANCH   8  11
ATOM     11  O   UNL     1       2.619   3.389  21.145  0.00  0.00    +0.000 OA
ATOM     12  C   UNL     1       1.360   2.769  21.332  0.00  0.00    +0.000 C 
ENDBRANCH   8  11
ENDBRANCH   1   6
BRANCH   2  13
ATOM     13  C   UNL     1       0.578   9.115  21.538  0.00  0.00    +0.000 A 
ATOM     14  C   UNL     1      -0.160   9.183  22.727  0.00  0.00    +0.000 A 
ATOM     15  C   UNL     1      -0.811  10.362  23.103  0.00  0.00    +0.000 A 
ATOM     16  C   UNL     1      -0.707  11.494  22.295  0.00  0.00    +0.000 A 
ATOM     17  C   UNL     1       0.028  11.451  21.107  0.00  0.00    +0.000 A 
ATOM     18  C   UNL     1       0.676  10.268  20.738  0.00  0.00    +0.000 A 
BRANCH  16  19
ATOM     19  S   UNL     1      -1.564  12.973  22.736  0.00  0.00    +0.000 S 
ATOM     20  O   UNL     1      -2.970  12.680  22.902  0.00  0.00    +0.000 OA
ATOM     21  O   UNL     1      -0.800  13.689  23.728  0.00  0.00    +0.000 OA
BRANCH  19  22
ATOM     22  N   UNL     1      -1.449  13.876  21.324  0.00  0.00    +0.000 NA
ATOM     23  H   UNL     1      -1.296  13.254  20.530  0.00  0.00    +0.000 HD
ATOM     24  H   UNL     1      -2.273  14.470  21.229  0.00  0.00    +0.000 HD
ENDBRANCH  19  22
ENDBRANCH  16  19
ENDBRANCH   2  13
TORSDOF 6
ENDMDL
