MODEL 1
REMARK VINA RESULT:      -8.5      0.000      0.000
REMARK  Name = 
REMARK  5 active torsions:
REMARK  status: ('A' for Active; 'I' for Inactive)
REMARK    1  A    between atoms: C_2  and  C_3
REMARK    2  A    between atoms: C_3  and  N_4
REMARK    3  A    between atoms: C_7  and  C_8
REMARK    4  A    between atoms: N_22  and  C_23
REMARK    5  A    between atoms: C_23  and  C_24
REMARK                            x       y       z     vdW  Elec       q    Type
REMARK                         _______ _______ _______ _____ _____    ______ ____
ROOT
ATOM      1  C   UNL     1       1.752   8.621  20.031  0.00  0.00    +0.000 C 
ENDROOT
BRANCH   1   2
ATOM      2  N   UNL     1       0.931   9.676  19.400  0.00  0.00    +0.000 NA
ATOM      3  C   UNL     1      -0.451   9.679  19.877  0.00  0.00    +0.000 C 
ATOM      4  C   UNL     1      -1.267  10.680  19.071  0.00  0.00    +0.000 C 
ATOM      5  C   UNL     1      -0.731  12.106  19.251  0.00  0.00    +0.000 C 
ATOM      6  C   UNL     1       0.741  12.089  18.800  0.00  0.00    +0.000 C 
ATOM      7  C   UNL     1       1.561  11.000  19.510  0.00  0.00    +0.000 C 
BRANCH   5   8
ATOM      8  C   UNL     1      -0.864  12.667  20.684  0.00  0.00    +0.000 C 
ATOM      9  O   UNL     1       0.127  12.807  21.404  0.00  0.00    +0.000 OA
ATOM     10  N   UNL     1      -2.121  13.032  21.145  0.00  0.00    +0.000 N 
ATOM     11  C   UNL     1      -3.331  13.067  20.319  0.00  0.00    +0.000 C 
ATOM     12  C   UNL     1      -4.490  13.867  20.908  0.00  0.00    +0.000 C 
ATOM     13  C   UNL     1      -4.751  13.347  22.294  0.00  0.00    +0.000 A 
ATOM     14  C   UNL     1      -6.043  13.108  22.765  0.00  0.00    +0.000 A 
ATOM     15  C   UNL     1      -6.224  12.579  24.041  0.00  0.00    +0.000 A 
ATOM     16  C   UNL     1      -5.123  12.300  24.852  0.00  0.00    +0.000 A 
ATOM     17  C   UNL     1      -3.829  12.550  24.390  0.00  0.00    +0.000 A 
ATOM     18  C   UNL     1      -3.635  13.069  23.107  0.00  0.00    +0.000 A 
ATOM     19  C   UNL     1      -2.253  13.363  22.571  0.00  0.00    +0.000 C 
ENDBRANCH   5   8
ENDBRANCH   1   2
BRANCH   1  21
ATOM     20  O   UNL     1       2.046   7.401  17.945  0.00  0.00    +0.000 OA
ATOM     21  C   UNL     1       1.935   7.363  19.168  0.00  0.00    +0.000 C 
ATOM     22  N   UNL     1       1.964   6.186  19.878  0.00  0.00    +0.000 N 
ATOM     23  H   UNL     1       1.995   6.196  20.892  0.00  0.00    +0.000 HD
BRANCH  22  24
ATOM     24  C   UNL     1       2.217   4.920  19.231  0.00  0.00    +0.000 C 
BRANCH  24  25
ATOM     25  C   UNL     1       3.630   4.893  18.659  0.00  0.00    +0.000 A 
ATOM     26  N   UNL     1       3.841   4.667  17.396  0.00  0.00    +0.000 NA
ATOM     27  C   UNL     1       5.145   4.673  16.969  0.00  0.00    +0.000 A 
ATOM     28  C   UNL     1       6.205   4.915  17.757  0.00  0.00    +0.000 A 
ATOM     29  C   UNL     1       5.950   5.168  19.184  0.00  0.00    +0.000 A 
ATOM     30  O   UNL     1       6.850   5.416  19.980  0.00  0.00    +0.000 OA
ATOM     31  N   UNL     1       4.639   5.122  19.556  0.00  0.00    +0.000 N 
ATOM     32  C   UNL     1       7.619   4.933  17.271  0.00  0.00    +0.000 C 
ATOM     33  O   UNL     1       7.748   4.350  15.965  0.00  0.00    +0.000 OA
ATOM     34  C   UNL     1       6.761   4.854  15.061  0.00  0.00    +0.000 C 
ATOM     35  C   UNL     1       5.368   4.411  15.500  0.00  0.00    +0.000 C 
ATOM     36  H   UNL     1       4.449   5.293  20.534  0.00  0.00    +0.000 HD
ENDBRANCH  24  25
ENDBRANCH  22  24
ENDBRANCH   1  21
TORSDOF 5
ENDMDL
MODEL 2
REMARK VINA RESULT:      -8.2      1.494      2.301
REMARK  Name = 
REMARK  5 active torsions:
REMARK  status: ('A' for Active; 'I' for Inactive)
REMARK    1  A    between atoms: C_2  and  C_3
REMARK    2  A    between atoms: C_3  and  N_4
REMARK    3  A    between atoms: C_7  and  C_8
REMARK    4  A    between atoms: N_22  and  C_23
REMARK    5  A    between atoms: C_23  and  C_24
REMARK                            x       y       z     vdW  Elec       q    Type
REMARK                         _______ _______ _______ _____ _____    ______ ____
ROOT
ATOM      1  C   UNL     1       1.090   9.327  19.519  0.00  0.00    +0.000 C 
ENDROOT
BRANCH   1   2
ATOM      2  N   UNL     1       0.732  10.309  20.564  0.00  0.00    +0.000 NA
ATOM      3  C   UNL     1       0.512  11.651  20.027  0.00  0.00    +0.000 C 
ATOM      4  C   UNL     1       0.307  12.633  21.173  0.00  0.00    +0.000 C 
ATOM      5  C   UNL     1      -0.936  12.273  21.996  0.00  0.00    +0.000 C 
ATOM      6  C   UNL     1      -0.727  10.839  22.516  0.00  0.00    +0.000 C 
ATOM      7  C   UNL     1      -0.394   9.847  21.389  0.00  0.00    +0.000 C 
BRANCH   5   8
ATOM      8  C   UNL     1      -2.272  12.394  21.229  0.00  0.00    +0.000 C 
ATOM      9  O   UNL     1      -2.325  12.197  20.014  0.00  0.00    +0.000 OA
ATOM     10  N   UNL     1      -3.422  12.712  21.938  0.00  0.00    +0.000 N 
ATOM     11  C   UNL     1      -3.501  12.798  23.398  0.00  0.00    +0.000 C 
ATOM     12  C   UNL     1      -4.916  12.759  23.971  0.00  0.00    +0.000 C 
ATOM     13  C   UNL     1      -5.720  13.828  23.284  0.00  0.00    +0.000 A 
ATOM     14  C   UNL     1      -6.578  14.675  23.986  0.00  0.00    +0.000 A 
ATOM     15  C   UNL     1      -7.262  15.681  23.306  0.00  0.00    +0.000 A 
ATOM     16  C   UNL     1      -7.100  15.835  21.928  0.00  0.00    +0.000 A 
ATOM     17  C   UNL     1      -6.253  14.981  21.220  0.00  0.00    +0.000 A 
ATOM     18  C   UNL     1      -5.553  13.976  21.894  0.00  0.00    +0.000 A 
ATOM     19  C   UNL     1      -4.633  13.025  21.165  0.00  0.00    +0.000 C 
ENDBRANCH   5   8
ENDBRANCH   1   2
BRANCH   1  21
ATOM     20  O   UNL     1       1.895   7.820  21.253  0.00  0.00    +0.000 OA
ATOM     21  C   UNL     1       1.670   8.012  20.061  0.00  0.00    +0.000 C 
ATOM     22  N   UNL     1       1.917   7.061  19.098  0.00  0.00    +0.000 N 
ATOM     23  H   UNL     1       1.605   7.200  18.143  0.00  0.00    +0.000 HD
BRANCH  22  24
ATOM     24  C   UNL     1       2.380   5.737  19.446  0.00  0.00    +0.000 C 
BRANCH  24  25
ATOM     25  C   UNL     1       3.740   5.472  18.811  0.00  0.00    +0.000 A 
ATOM     26  N   UNL     1       3.859   5.276  17.532  0.00  0.00    +0.000 NA
ATOM     27  C   UNL     1       5.124   5.055  17.048  0.00  0.00    +0.000 A 
ATOM     28  C   UNL     1       6.238   5.048  17.797  0.00  0.00    +0.000 A 
ATOM     29  C   UNL     1       6.087   5.271  19.244  0.00  0.00    +0.000 A 
ATOM     30  O   UNL     1       7.046   5.300  20.009  0.00  0.00    +0.000 OA
ATOM     31  N   UNL     1       4.806   5.456  19.672  0.00  0.00    +0.000 N 
ATOM     32  C   UNL     1       7.611   4.822  17.250  0.00  0.00    +0.000 C 
ATOM     33  O   UNL     1       7.579   4.295  15.914  0.00  0.00    +0.000 OA
ATOM     34  C   UNL     1       6.677   5.025  15.079  0.00  0.00    +0.000 C 
ATOM     35  C   UNL     1       5.241   4.833  15.560  0.00  0.00    +0.000 C 
ATOM     36  H   UNL     1       4.686   5.609  20.664  0.00  0.00    +0.000 HD
ENDBRANCH  24  25
ENDBRANCH  22  24
ENDBRANCH   1  21
TORSDOF 5
ENDMDL
MODEL 3
REMARK VINA RESULT:      -8.2      2.505      3.192
REMARK  Name = 
REMARK  5 active torsions:
REMARK  status: ('A' for Active; 'I' for Inactive)
REMARK    1  A    between atoms: C_2  and  C_3
REMARK    2  A    between atoms: C_3  and  N_4
REMARK    3  A    between atoms: C_7  and  C_8
REMARK    4  A    between atoms: N_22  and  C_23
REMARK    5  A    between atoms: C_23  and  C_24
REMARK                            x       y       z     vdW  Elec       q    Type
REMARK                         _______ _______ _______ _____ _____    ______ ____
ROOT
ATOM      1  C   UNL     1      -0.083  10.537  18.964  0.00  0.00    +0.000 C 
ENDROOT
BRANCH   1   2
ATOM      2  N   UNL     1      -0.079  11.898  19.542  0.00  0.00    +0.000 NA
ATOM      3  C   UNL     1      -1.423  12.451  19.695  0.00  0.00    +0.000 C 
ATOM      4  C   UNL     1      -1.331  13.903  20.143  0.00  0.00    +0.000 C 
ATOM      5  C   UNL     1      -0.642  14.021  21.508  0.00  0.00    +0.000 C 
ATOM      6  C   UNL     1       0.755  13.389  21.359  0.00  0.00    +0.000 C 
ATOM      7  C   UNL     1       0.697  11.962  20.789  0.00  0.00    +0.000 C 
BRANCH   5   8
ATOM      8  C   UNL     1      -1.418  13.377  22.678  0.00  0.00    +0.000 C 
ATOM      9  O   UNL     1      -1.013  12.344  23.214  0.00  0.00    +0.000 OA
ATOM     10  N   UNL     1      -2.576  13.993  23.131  0.00  0.00    +0.000 N 
ATOM     11  C   UNL     1      -3.049  15.305  22.682  0.00  0.00    +0.000 C 
ATOM     12  C   UNL     1      -4.093  15.958  23.584  0.00  0.00    +0.000 C 
ATOM     13  C   UNL     1      -5.214  14.973  23.778  0.00  0.00    +0.000 A 
ATOM     14  C   UNL     1      -6.554  15.354  23.705  0.00  0.00    +0.000 A 
ATOM     15  C   UNL     1      -7.552  14.390  23.844  0.00  0.00    +0.000 A 
ATOM     16  C   UNL     1      -7.215  13.054  24.065  0.00  0.00    +0.000 A 
ATOM     17  C   UNL     1      -5.875  12.672  24.152  0.00  0.00    +0.000 A 
ATOM     18  C   UNL     1      -4.867  13.628  24.002  0.00  0.00    +0.000 A 
ATOM     19  C   UNL     1      -3.404  13.258  24.097  0.00  0.00    +0.000 C 
ENDBRANCH   5   8
ENDBRANCH   1   2
BRANCH   1  21
ATOM     20  O   UNL     1       2.161  10.820  18.065  0.00  0.00    +0.000 OA
ATOM     21  C   UNL     1       1.291  10.056  18.473  0.00  0.00    +0.000 C 
ATOM     22  N   UNL     1       1.468   8.693  18.529  0.00  0.00    +0.000 N 
ATOM     23  H   UNL     1       0.782   8.102  18.985  0.00  0.00    +0.000 HD
BRANCH  22  24
ATOM     24  C   UNL     1       2.732   8.082  18.188  0.00  0.00    +0.000 C 
BRANCH  24  25
ATOM     25  C   UNL     1       2.727   6.609  18.581  0.00  0.00    +0.000 A 
ATOM     26  N   UNL     1       2.962   5.677  17.705  0.00  0.00    +0.000 NA
ATOM     27  C   UNL     1       2.948   4.380  18.152  0.00  0.00    +0.000 A 
ATOM     28  C   UNL     1       2.731   4.014  19.426  0.00  0.00    +0.000 A 
ATOM     29  C   UNL     1       2.466   5.079  20.405  0.00  0.00    +0.000 A 
ATOM     30  O   UNL     1       2.273   4.847  21.595  0.00  0.00    +0.000 OA
ATOM     31  N   UNL     1       2.464   6.345  19.899  0.00  0.00    +0.000 N 
ATOM     32  C   UNL     1       2.735   2.596  19.898  0.00  0.00    +0.000 C 
ATOM     33  O   UNL     1       2.670   1.663  18.808  0.00  0.00    +0.000 OA
ATOM     34  C   UNL     1       3.605   1.990  17.776  0.00  0.00    +0.000 C 
ATOM     35  C   UNL     1       3.225   3.315  17.120  0.00  0.00    +0.000 C 
ATOM     36  H   UNL     1       2.283   7.088  20.560  0.00  0.00    +0.000 HD
ENDBRANCH  24  25
ENDBRANCH  22  24
ENDBRANCH   1  21
TORSDOF 5
ENDMDL
MODEL 4
REMARK VINA RESULT:      -8.1      2.028      3.021
REMARK  Name = 
REMARK  5 active torsions:
REMARK  status: ('A' for Active; 'I' for Inactive)
REMARK    1  A    between atoms: C_2  and  C_3
REMARK    2  A    between atoms: C_3  and  N_4
REMARK    3  A    between atoms: C_7  and  C_8
REMARK    4  A    between atoms: N_22  and  C_23
REMARK    5  A    between atoms: C_23  and  C_24
REMARK                            x       y       z     vdW  Elec       q    Type
REMARK                         _______ _______ _______ _____ _____    ______ ____
ROOT
ATOM      1  C   UNL     1       1.464   8.629  21.632  0.00  0.00    +0.000 C 
ENDROOT
BRANCH   1   2
ATOM      2  N   UNL     1       1.249   9.866  20.851  0.00  0.00    +0.000 NA
ATOM      3  C   UNL     1       1.243   9.630  19.409  0.00  0.00    +0.000 C 
ATOM      4  C   UNL     1       1.179  10.962  18.673  0.00  0.00    +0.000 C 
ATOM      5  C   UNL     1      -0.113  11.719  19.007  0.00  0.00    +0.000 C 
ATOM      6  C   UNL     1      -0.131  11.919  20.534  0.00  0.00    +0.000 C 
ATOM      7  C   UNL     1       0.058  10.600  21.302  0.00  0.00    +0.000 C 
BRANCH   5   8
ATOM      8  C   UNL     1      -1.407  11.026  18.524  0.00  0.00    +0.000 C 
ATOM      9  O   UNL     1      -1.359  10.028  17.802  0.00  0.00    +0.000 OA
ATOM     10  N   UNL     1      -2.630  11.535  18.935  0.00  0.00    +0.000 N 
ATOM     11  C   UNL     1      -2.796  12.604  19.923  0.00  0.00    +0.000 C 
ATOM     12  C   UNL     1      -4.198  12.725  20.514  0.00  0.00    +0.000 C 
ATOM     13  C   UNL     1      -5.170  12.838  19.372  0.00  0.00    +0.000 A 
ATOM     14  C   UNL     1      -6.217  13.761  19.378  0.00  0.00    +0.000 A 
ATOM     15  C   UNL     1      -7.058  13.856  18.271  0.00  0.00    +0.000 A 
ATOM     16  C   UNL     1      -6.865  13.025  17.166  0.00  0.00    +0.000 A 
ATOM     17  C   UNL     1      -5.827  12.091  17.161  0.00  0.00    +0.000 A 
ATOM     18  C   UNL     1      -4.970  11.996  18.261  0.00  0.00    +0.000 A 
ATOM     19  C   UNL     1      -3.840  10.993  18.301  0.00  0.00    +0.000 C 
ENDBRANCH   5   8
ENDBRANCH   1   2
BRANCH   1  21
ATOM     20  O   UNL     1       0.174   6.756  20.765  0.00  0.00    +0.000 OA
ATOM     21  C   UNL     1       1.255   7.334  20.832  0.00  0.00    +0.000 C 
ATOM     22  N   UNL     1       2.383   6.872  20.194  0.00  0.00    +0.000 N 
ATOM     23  H   UNL     1       3.225   7.435  20.166  0.00  0.00    +0.000 HD
BRANCH  22  24
ATOM     24  C   UNL     1       2.341   5.716  19.329  0.00  0.00    +0.000 C 
BRANCH  24  25
ATOM     25  C   UNL     1       3.722   5.447  18.742  0.00  0.00    +0.000 A 
ATOM     26  N   UNL     1       3.880   5.218  17.472  0.00  0.00    +0.000 NA
ATOM     27  C   UNL     1       5.161   4.997  17.031  0.00  0.00    +0.000 A 
ATOM     28  C   UNL     1       6.252   5.022  17.813  0.00  0.00    +0.000 A 
ATOM     29  C   UNL     1       6.056   5.282  19.248  0.00  0.00    +0.000 A 
ATOM     30  O   UNL     1       6.992   5.343  20.040  0.00  0.00    +0.000 OA
ATOM     31  N   UNL     1       4.762   5.466  19.633  0.00  0.00    +0.000 N 
ATOM     32  C   UNL     1       7.642   4.795  17.313  0.00  0.00    +0.000 C 
ATOM     33  O   UNL     1       7.655   4.232  15.992  0.00  0.00    +0.000 OA
ATOM     34  C   UNL     1       6.771   4.929  15.110  0.00  0.00    +0.000 C 
ATOM     35  C   UNL     1       5.323   4.736  15.554  0.00  0.00    +0.000 C 
ATOM     36  H   UNL     1       4.612   5.645  20.616  0.00  0.00    +0.000 HD
ENDBRANCH  24  25
ENDBRANCH  22  24
ENDBRANCH   1  21
TORSDOF 5
ENDMDL
MODEL 5
REMARK VINA RESULT:      -7.9      2.747     11.136
REMARK  Name = 
REMARK  5 active torsions:
REMARK  status: ('A' for Active; 'I' for Inactive)
REMARK    1  A    between atoms: C_2  and  C_3
REMARK    2  A    between atoms: C_3  and  N_4
REMARK    3  A    between atoms: C_7  and  C_8
REMARK    4  A    between atoms: N_22  and  C_23
REMARK    5  A    between atoms: C_23  and  C_24
REMARK                            x       y       z     vdW  Elec       q    Type
REMARK                         _______ _______ _______ _____ _____    ______ ____
ROOT
ATOM      1  C   UNL     1       0.521  12.615  21.410  0.00  0.00    +0.000 C 
ENDROOT
BRANCH   1   2
ATOM      2  N   UNL     1       0.125  11.430  20.620  0.00  0.00    +0.000 NA
ATOM      3  C   UNL     1       0.179  11.668  19.179  0.00  0.00    +0.000 C 
ATOM      4  C   UNL     1      -0.392  10.465  18.441  0.00  0.00    +0.000 C 
ATOM      5  C   UNL     1       0.432   9.201  18.716  0.00  0.00    +0.000 C 
ATOM      6  C   UNL     1       0.419   8.983  20.240  0.00  0.00    +0.000 C 
ATOM      7  C   UNL     1       0.874  10.230  21.017  0.00  0.00    +0.000 C 
BRANCH   5   8
ATOM      8  C   UNL     1       1.880   9.248  18.176  0.00  0.00    +0.000 C 
ATOM      9  O   UNL     1       2.345  10.286  17.702  0.00  0.00    +0.000 OA
ATOM     10  N   UNL     1       2.658   8.102  18.253  0.00  0.00    +0.000 N 
ATOM     11  C   UNL     1       2.264   6.875  18.949  0.00  0.00    +0.000 C 
ATOM     12  C   UNL     1       3.407   5.909  19.251  0.00  0.00    +0.000 C 
ATOM     13  C   UNL     1       4.131   5.636  17.961  0.00  0.00    +0.000 A 
ATOM     14  C   UNL     1       4.526   4.350  17.592  0.00  0.00    +0.000 A 
ATOM     15  C   UNL     1       5.151   4.147  16.363  0.00  0.00    +0.000 A 
ATOM     16  C   UNL     1       5.391   5.225  15.509  0.00  0.00    +0.000 A 
ATOM     17  C   UNL     1       5.009   6.515  15.880  0.00  0.00    +0.000 A 
ATOM     18  C   UNL     1       4.371   6.727  17.106  0.00  0.00    +0.000 A 
ATOM     19  C   UNL     1       3.949   8.109  17.551  0.00  0.00    +0.000 C 
ENDBRANCH   5   8
ENDBRANCH   1   2
BRANCH   1  21
ATOM     20  O   UNL     1      -0.636  14.546  22.337  0.00  0.00    +0.000 OA
ATOM     21  C   UNL     1      -0.649  13.343  22.088  0.00  0.00    +0.000 C 
ATOM     22  N   UNL     1      -1.718  12.534  22.397  0.00  0.00    +0.000 N 
ATOM     23  H   UNL     1      -1.751  11.575  22.069  0.00  0.00    +0.000 HD
BRANCH  22  24
ATOM     24  C   UNL     1      -2.935  13.074  22.958  0.00  0.00    +0.000 C 
BRANCH  24  25
ATOM     25  C   UNL     1      -4.116  12.774  22.041  0.00  0.00    +0.000 A 
ATOM     26  N   UNL     1      -3.940  12.527  20.777  0.00  0.00    +0.000 NA
ATOM     27  C   UNL     1      -5.060  12.257  20.031  0.00  0.00    +0.000 A 
ATOM     28  C   UNL     1      -6.310  12.213  20.519  0.00  0.00    +0.000 A 
ATOM     29  C   UNL     1      -6.492  12.496  21.951  0.00  0.00    +0.000 A 
ATOM     30  O   UNL     1      -7.592  12.463  22.494  0.00  0.00    +0.000 OA
ATOM     31  N   UNL     1      -5.349  12.785  22.636  0.00  0.00    +0.000 N 
ATOM     32  C   UNL     1      -7.517  11.902  19.694  0.00  0.00    +0.000 C 
ATOM     33  O   UNL     1      -7.243  11.978  18.286  0.00  0.00    +0.000 OA
ATOM     34  C   UNL     1      -6.043  11.280  17.942  0.00  0.00    +0.000 C 
ATOM     35  C   UNL     1      -4.834  11.969  18.567  0.00  0.00    +0.000 C 
ATOM     36  H   UNL     1      -5.459  12.983  23.621  0.00  0.00    +0.000 HD
ENDBRANCH  24  25
ENDBRANCH  22  24
ENDBRANCH   1  21
TORSDOF 5
ENDMDL
MODEL 6
REMARK VINA RESULT:      -7.9      6.844      8.791
REMARK  Name = 
REMARK  5 active torsions:
REMARK  status: ('A' for Active; 'I' for Inactive)
REMARK    1  A    between atoms: C_2  and  C_3
REMARK    2  A    between atoms: C_3  and  N_4
REMARK    3  A    between atoms: C_7  and  C_8
REMARK    4  A    between atoms: N_22  and  C_23
REMARK    5  A    between atoms: C_23  and  C_24
REMARK                            x       y       z     vdW  Elec       q    Type
REMARK                         _______ _______ _______ _____ _____    ______ ____
ROOT
ATOM      1  C   UNL     1       8.692   9.070  18.861  0.00  0.00    +0.000 C 
ENDROOT
BRANCH   1   2
ATOM      2  N   UNL     1       9.042  10.296  18.113  0.00  0.00    +0.000 NA
ATOM      3  C   UNL     1       8.018  11.334  18.217  0.00  0.00    +0.000 C 
ATOM      4  C   UNL     1       8.372  12.495  17.298  0.00  0.00    +0.000 C 
ATOM      5  C   UNL     1       9.702  13.140  17.705  0.00  0.00    +0.000 C 
ATOM      6  C   UNL     1      10.771  12.033  17.648  0.00  0.00    +0.000 C 
ATOM      7  C   UNL     1      10.379  10.794  18.470  0.00  0.00    +0.000 C 
BRANCH   5   8
ATOM      8  C   UNL     1       9.688  13.824  19.091  0.00  0.00    +0.000 C 
ATOM      9  O   UNL     1      10.373  13.389  20.018  0.00  0.00    +0.000 OA
ATOM     10  N   UNL     1       8.902  14.953  19.270  0.00  0.00    +0.000 N 
ATOM     11  C   UNL     1       8.188  15.648  18.196  0.00  0.00    +0.000 C 
ATOM     12  C   UNL     1       7.730  17.064  18.536  0.00  0.00    +0.000 C 
ATOM     13  C   UNL     1       6.934  16.996  19.811  0.00  0.00    +0.000 A 
ATOM     14  C   UNL     1       5.733  17.687  19.971  0.00  0.00    +0.000 A 
ATOM     15  C   UNL     1       5.012  17.549  21.155  0.00  0.00    +0.000 A 
ATOM     16  C   UNL     1       5.492  16.735  22.182  0.00  0.00    +0.000 A 
ATOM     17  C   UNL     1       6.701  16.053  22.031  0.00  0.00    +0.000 A 
ATOM     18  C   UNL     1       7.426  16.174  20.842  0.00  0.00    +0.000 A 
ATOM     19  C   UNL     1       8.743  15.460  20.640  0.00  0.00    +0.000 C 
ENDBRANCH   5   8
ENDBRANCH   1   2
BRANCH   1  21
ATOM     20  O   UNL     1       7.579   8.179  16.888  0.00  0.00    +0.000 OA
ATOM     21  C   UNL     1       8.047   7.970  18.004  0.00  0.00    +0.000 C 
ATOM     22  N   UNL     1       8.037   6.726  18.591  0.00  0.00    +0.000 N 
ATOM     23  H   UNL     1       8.540   6.560  19.455  0.00  0.00    +0.000 HD
BRANCH  22  24
ATOM     24  C   UNL     1       7.548   5.564  17.887  0.00  0.00    +0.000 C 
BRANCH  24  25
ATOM     25  C   UNL     1       6.109   5.267  18.296  0.00  0.00    +0.000 A 
ATOM     26  N   UNL     1       5.805   4.182  18.945  0.00  0.00    +0.000 NA
ATOM     27  C   UNL     1       4.486   4.004  19.282  0.00  0.00    +0.000 A 
ATOM     28  C   UNL     1       3.503   4.876  19.005  0.00  0.00    +0.000 A 
ATOM     29  C   UNL     1       3.864   6.098  18.268  0.00  0.00    +0.000 A 
ATOM     30  O   UNL     1       3.041   6.962  17.984  0.00  0.00    +0.000 OA
ATOM     31  N   UNL     1       5.181   6.208  17.937  0.00  0.00    +0.000 N 
ATOM     32  C   UNL     1       2.074   4.673  19.392  0.00  0.00    +0.000 C 
ATOM     33  O   UNL     1       1.811   3.319  19.795  0.00  0.00    +0.000 OA
ATOM     34  C   UNL     1       2.792   2.842  20.719  0.00  0.00    +0.000 C 
ATOM     35  C   UNL     1       4.154   2.741  20.037  0.00  0.00    +0.000 C 
ATOM     36  H   UNL     1       5.444   7.042  17.429  0.00  0.00    +0.000 HD
ENDBRANCH  24  25
ENDBRANCH  22  24
ENDBRANCH   1  21
TORSDOF 5
ENDMDL
MODEL 7
REMARK VINA RESULT:      -7.9      5.466      7.383
REMARK  Name = 
REMARK  5 active torsions:
REMARK  status: ('A' for Active; 'I' for Inactive)
REMARK    1  A    between atoms: C_2  and  C_3
REMARK    2  A    between atoms: C_3  and  N_4
REMARK    3  A    between atoms: C_7  and  C_8
REMARK    4  A    between atoms: N_22  and  C_23
REMARK    5  A    between atoms: C_23  and  C_24
REMARK                            x       y       z     vdW  Elec       q    Type
REMARK                         _______ _______ _______ _____ _____    ______ ____
ROOT
ATOM      1  C   UNL     1      10.027  11.309  20.239  0.00  0.00    +0.000 C 
ENDROOT
BRANCH   1   2
ATOM      2  N   UNL     1       9.750  12.753  20.399  0.00  0.00    +0.000 NA
ATOM      3  C   UNL     1       8.582  13.191  19.637  0.00  0.00    +0.000 C 
ATOM      4  C   UNL     1       8.456  14.707  19.723  0.00  0.00    +0.000 C 
ATOM      5  C   UNL     1       8.241  15.165  21.171  0.00  0.00    +0.000 C 
ATOM      6  C   UNL     1       9.446  14.655  21.983  0.00  0.00    +0.000 C 
ATOM      7  C   UNL     1       9.672  13.143  21.814  0.00  0.00    +0.000 C 
BRANCH   5   8
ATOM      8  C   UNL     1       6.911  14.698  21.803  0.00  0.00    +0.000 C 
ATOM      9  O   UNL     1       6.903  13.958  22.788  0.00  0.00    +0.000 OA
ATOM     10  N   UNL     1       5.718  15.145  21.253  0.00  0.00    +0.000 N 
ATOM     11  C   UNL     1       5.616  16.155  20.198  0.00  0.00    +0.000 C 
ATOM     12  C   UNL     1       4.232  16.779  20.033  0.00  0.00    +0.000 C 
ATOM     13  C   UNL     1       3.241  15.661  19.860  0.00  0.00    +0.000 A 
ATOM     14  C   UNL     1       2.233  15.707  18.897  0.00  0.00    +0.000 A 
ATOM     15  C   UNL     1       1.373  14.620  18.748  0.00  0.00    +0.000 A 
ATOM     16  C   UNL     1       1.509  13.496  19.564  0.00  0.00    +0.000 A 
ATOM     17  C   UNL     1       2.508  13.452  20.538  0.00  0.00    +0.000 A 
ATOM     18  C   UNL     1       3.384  14.531  20.688  0.00  0.00    +0.000 A 
ATOM     19  C   UNL     1       4.474  14.528  21.735  0.00  0.00    +0.000 C 
ENDBRANCH   5   8
ENDBRANCH   1   2
BRANCH   1  21
ATOM     20  O   UNL     1      10.301  11.209  17.823  0.00  0.00    +0.000 OA
ATOM     21  C   UNL     1       9.753  10.766  18.829  0.00  0.00    +0.000 C 
ATOM     22  N   UNL     1       8.839   9.740  18.783  0.00  0.00    +0.000 N 
ATOM     23  H   UNL     1       8.499   9.314  19.638  0.00  0.00    +0.000 HD
BRANCH  22  24
ATOM     24  C   UNL     1       8.532   9.057  17.548  0.00  0.00    +0.000 C 
BRANCH  24  25
ATOM     25  C   UNL     1       7.724   7.795  17.830  0.00  0.00    +0.000 A 
ATOM     26  N   UNL     1       6.713   7.462  17.083  0.00  0.00    +0.000 NA
ATOM     27  C   UNL     1       6.052   6.304  17.406  0.00  0.00    +0.000 A 
ATOM     28  C   UNL     1       6.387   5.490  18.420  0.00  0.00    +0.000 A 
ATOM     29  C   UNL     1       7.532   5.882  19.257  0.00  0.00    +0.000 A 
ATOM     30  O   UNL     1       7.927   5.196  20.195  0.00  0.00    +0.000 OA
ATOM     31  N   UNL     1       8.133   7.054  18.907  0.00  0.00    +0.000 N 
ATOM     32  C   UNL     1       5.664   4.224  18.748  0.00  0.00    +0.000 C 
ATOM     33  O   UNL     1       4.395   4.139  18.081  0.00  0.00    +0.000 OA
ATOM     34  C   UNL     1       4.503   4.465  16.693  0.00  0.00    +0.000 C 
ATOM     35  C   UNL     1       4.884   5.933  16.525  0.00  0.00    +0.000 C 
ATOM     36  H   UNL     1       8.921   7.337  19.474  0.00  0.00    +0.000 HD
ENDBRANCH  24  25
ENDBRANCH  22  24
ENDBRANCH   1  21
TORSDOF 5
ENDMDL
MODEL 8
REMARK VINA RESULT:      -7.9      4.507      7.792
REMARK  Name = 
REMARK  5 active torsions:
REMARK  status: ('A' for Active; 'I' for Inactive)
REMARK    1  A    between atoms: C_2  and  C_3
REMARK    2  A    between atoms: C_3  and  N_4
REMARK    3  A    between atoms: C_7  and  C_8
REMARK    4  A    between atoms: N_22  and  C_23
REMARK    5  A    between atoms: C_23  and  C_24
REMARK                            x       y       z     vdW  Elec       q    Type
REMARK                         _______ _______ _______ _____ _____    ______ ____
ROOT
ATOM      1  C   UNL     1       0.605  11.821  18.934  0.00  0.00    +0.000 C 
ENDROOT
BRANCH   1   2
ATOM      2  N   UNL     1       1.104  13.112  19.454  0.00  0.00    +0.000 NA
ATOM      3  C   UNL     1       2.476  13.029  19.950  0.00  0.00    +0.000 C 
ATOM      4  C   UNL     1       2.861  14.345  20.612  0.00  0.00    +0.000 C 
ATOM      5  C   UNL     1       2.819  15.504  19.608  0.00  0.00    +0.000 C 
ATOM      6  C   UNL     1       1.387  15.555  19.045  0.00  0.00    +0.000 C 
ATOM      7  C   UNL     1       0.927  14.201  18.483  0.00  0.00    +0.000 C 
BRANCH   5   8
ATOM      8  C   UNL     1       3.858  15.405  18.468  0.00  0.00    +0.000 C 
ATOM      9  O   UNL     1       3.512  15.490  17.288  0.00  0.00    +0.000 OA
ATOM     10  N   UNL     1       5.195  15.238  18.796  0.00  0.00    +0.000 N 
ATOM     11  C   UNL     1       5.730  15.296  20.158  0.00  0.00    +0.000 C 
ATOM     12  C   UNL     1       7.242  15.489  20.250  0.00  0.00    +0.000 C 
ATOM     13  C   UNL     1       7.894  14.419  19.418  0.00  0.00    +0.000 A 
ATOM     14  C   UNL     1       9.005  13.705  19.868  0.00  0.00    +0.000 A 
ATOM     15  C   UNL     1       9.538  12.689  19.076  0.00  0.00    +0.000 A 
ATOM     16  C   UNL     1       8.973  12.395  17.833  0.00  0.00    +0.000 A 
ATOM     17  C   UNL     1       7.870  13.116  17.374  0.00  0.00    +0.000 A 
ATOM     18  C   UNL     1       7.320  14.128  18.166  0.00  0.00    +0.000 A 
ATOM     19  C   UNL     1       6.132  14.939  17.703  0.00  0.00    +0.000 C 
ENDBRANCH   5   8
ENDBRANCH   1   2
BRANCH   1  21
ATOM     20  O   UNL     1      -0.529  10.865  20.864  0.00  0.00    +0.000 OA
ATOM     21  C   UNL     1       0.352  10.760  20.015  0.00  0.00    +0.000 C 
ATOM     22  N   UNL     1       1.198   9.676  19.956  0.00  0.00    +0.000 N 
ATOM     23  H   UNL     1       1.830   9.558  19.172  0.00  0.00    +0.000 HD
BRANCH  22  24
ATOM     24  C   UNL     1       1.041   8.547  20.843  0.00  0.00    +0.000 C 
BRANCH  24  25
ATOM     25  C   UNL     1       1.793   7.339  20.297  0.00  0.00    +0.000 A 
ATOM     26  N   UNL     1       2.472   7.413  19.190  0.00  0.00    +0.000 NA
ATOM     27  C   UNL     1       3.126   6.278  18.781  0.00  0.00    +0.000 A 
ATOM     28  C   UNL     1       3.128   5.114  19.451  0.00  0.00    +0.000 A 
ATOM     29  C   UNL     1       2.354   5.046  20.700  0.00  0.00    +0.000 A 
ATOM     30  O   UNL     1       2.309   4.034  21.392  0.00  0.00    +0.000 OA
ATOM     31  N   UNL     1       1.703   6.194  21.043  0.00  0.00    +0.000 N 
ATOM     32  C   UNL     1       3.859   3.892  18.997  0.00  0.00    +0.000 C 
ATOM     33  O   UNL     1       4.282   3.993  17.628  0.00  0.00    +0.000 OA
ATOM     34  C   UNL     1       4.917   5.246  17.361  0.00  0.00    +0.000 C 
ATOM     35  C   UNL     1       3.910   6.386  17.496  0.00  0.00    +0.000 C 
ATOM     36  H   UNL     1       1.166   6.162  21.899  0.00  0.00    +0.000 HD
ENDBRANCH  24  25
ENDBRANCH  22  24
ENDBRANCH   1  21
TORSDOF 5
ENDMDL
MODEL 9
REMARK VINA RESULT:      -7.9      2.331      3.417
REMARK  Name = 
REMARK  5 active torsions:
REMARK  status: ('A' for Active; 'I' for Inactive)
REMARK    1  A    between atoms: C_2  and  C_3
REMARK    2  A    between atoms: C_3  and  N_4
REMARK    3  A    between atoms: C_7  and  C_8
REMARK    4  A    between atoms: N_22  and  C_23
REMARK    5  A    between atoms: C_23  and  C_24
REMARK                            x       y       z     vdW  Elec       q    Type
REMARK                         _______ _______ _______ _____ _____    ______ ____
ROOT
ATOM      1  C   UNL     1      -0.138  10.433  18.822  0.00  0.00    +0.000 C 
ENDROOT
BRANCH   1   2
ATOM      2  N   UNL     1      -0.091  11.812  19.351  0.00  0.00    +0.000 NA
ATOM      3  C   UNL     1      -1.420  12.381  19.566  0.00  0.00    +0.000 C 
ATOM      4  C   UNL     1      -1.292  13.847  19.956  0.00  0.00    +0.000 C 
ATOM      5  C   UNL     1      -0.521  14.006  21.272  0.00  0.00    +0.000 C 
ATOM      6  C   UNL     1       0.860  13.358  21.062  0.00  0.00    +0.000 C 
ATOM      7  C   UNL     1       0.759  11.913  20.546  0.00  0.00    +0.000 C 
BRANCH   5   8
ATOM      8  C   UNL     1      -1.229  13.409  22.509  0.00  0.00    +0.000 C 
ATOM      9  O   UNL     1      -0.776  12.415  23.079  0.00  0.00    +0.000 OA
ATOM     10  N   UNL     1      -2.379  14.025  22.982  0.00  0.00    +0.000 N 
ATOM     11  C   UNL     1      -2.902  15.300  22.487  0.00  0.00    +0.000 C 
ATOM     12  C   UNL     1      -3.920  15.978  23.401  0.00  0.00    +0.000 C 
ATOM     13  C   UNL     1      -5.008  14.982  23.696  0.00  0.00    +0.000 A 
ATOM     14  C   UNL     1      -6.358  15.330  23.666  0.00  0.00    +0.000 A 
ATOM     15  C   UNL     1      -7.327  14.355  23.900  0.00  0.00    +0.000 A 
ATOM     16  C   UNL     1      -6.949  13.040  24.175  0.00  0.00    +0.000 A 
ATOM     17  C   UNL     1      -5.599  12.691  24.220  0.00  0.00    +0.000 A 
ATOM     18  C   UNL     1      -4.620  13.658  23.975  0.00  0.00    +0.000 A 
ATOM     19  C   UNL     1      -3.147  13.325  24.022  0.00  0.00    +0.000 C 
ENDBRANCH   5   8
ENDBRANCH   1   2
BRANCH   1  21
ATOM     20  O   UNL     1       2.136   9.598  18.586  0.00  0.00    +0.000 OA
ATOM     21  C   UNL     1       1.074   9.569  19.202  0.00  0.00    +0.000 C 
ATOM     22  N   UNL     1       0.872   8.756  20.293  0.00  0.00    +0.000 N 
ATOM     23  H   UNL     1       0.032   8.844  20.853  0.00  0.00    +0.000 HD
BRANCH  22  24
ATOM     24  C   UNL     1       1.937   7.944  20.836  0.00  0.00    +0.000 C 
BRANCH  24  25
ATOM     25  C   UNL     1       2.092   6.664  20.022  0.00  0.00    +0.000 A 
ATOM     26  N   UNL     1       1.447   5.582  20.341  0.00  0.00    +0.000 NA
ATOM     27  C   UNL     1       1.639   4.481  19.544  0.00  0.00    +0.000 A 
ATOM     28  C   UNL     1       2.427   4.455  18.457  0.00  0.00    +0.000 A 
ATOM     29  C   UNL     1       3.151   5.687  18.110  0.00  0.00    +0.000 A 
ATOM     30  O   UNL     1       3.880   5.768  17.126  0.00  0.00    +0.000 OA
ATOM     31  N   UNL     1       2.943   6.739  18.952  0.00  0.00    +0.000 N 
ATOM     32  C   UNL     1       2.613   3.250  17.591  0.00  0.00    +0.000 C 
ATOM     33  O   UNL     1       2.129   2.053  18.220  0.00  0.00    +0.000 OA
ATOM     34  C   UNL     1       0.824   2.238  18.776  0.00  0.00    +0.000 C 
ATOM     35  C   UNL     1       0.879   3.236  19.929  0.00  0.00    +0.000 C 
ATOM     36  H   UNL     1       3.435   7.593  18.727  0.00  0.00    +0.000 HD
ENDBRANCH  24  25
ENDBRANCH  22  24
ENDBRANCH   1  21
TORSDOF 5
ENDMDL
