MODEL 1
REMARK VINA RESULT:      -8.4      0.000      0.000
REMARK  Name = 
REMARK  3 active torsions:
REMARK  status: ('A' for Active; 'I' for Inactive)
REMARK    1  A    between atoms: C_5  and  C_6
REMARK    2  A    between atoms: N_11  and  C_12
REMARK    3  A    between atoms: C_12  and  C_13
REMARK                            x       y       z     vdW  Elec       q    Type
REMARK                         _______ _______ _______ _____ _____    ______ ____
ROOT
ATOM      1  C   UNL     1       8.322   9.020  18.268  0.00  0.00    +0.000 A 
ATOM      2  N   UNL     1       8.708   7.868  18.957  0.00  0.00    +0.000 NA
ATOM      3  C   UNL     1       7.962   6.949  18.438  0.00  0.00    +0.000 A 
ATOM      4  C   UNL     1       7.877   5.511  18.711  0.00  0.00    +0.000 A 
ATOM      5  C   UNL     1       6.979   4.829  17.978  0.00  0.00    +0.000 A 
ATOM      6  N   UNL     1       6.140   5.388  17.007  0.00  0.00    +0.000 N 
ATOM      7  C   UNL     1       6.249   6.763  16.760  0.00  0.00    +0.000 A 
ATOM      8  C   UNL     1       7.103   7.550  17.418  0.00  0.00    +0.000 A 
ATOM      9  N   UNL     1       7.386   8.883  17.363  0.00  0.00    +0.000 NA
ENDROOT
BRANCH   1  14
ATOM     10 CL   UNL     1      11.043  14.208  19.546  0.00  0.00    +0.000 Cl
ATOM     11  C   UNL     1      10.255  12.722  19.182  0.00  0.00    +0.000 A 
ATOM     12  C   UNL     1      10.385  11.642  20.053  0.00  0.00    +0.000 A 
ATOM     13  C   UNL     1       9.748  10.433  19.757  0.00  0.00    +0.000 A 
ATOM     14  C   UNL     1       8.985  10.306  18.589  0.00  0.00    +0.000 A 
ATOM     15  C   UNL     1       8.860  11.396  17.719  0.00  0.00    +0.000 A 
ATOM     16  C   UNL     1       9.496  12.606  18.017  0.00  0.00    +0.000 A 
ENDBRANCH   1  14
BRANCH   6  17
ATOM     17  C   UNL     1       5.174   4.558  16.258  0.00  0.00    +0.000 C 
BRANCH  17  18
ATOM     18  C   UNL     1       4.010   4.152  17.135  0.00  0.00    +0.000 A 
ATOM     19  C   UNL     1       3.132   5.118  17.652  0.00  0.00    +0.000 A 
ATOM     20  C   UNL     1       2.123   4.756  18.547  0.00  0.00    +0.000 A 
ATOM     21  C   UNL     1       1.980   3.424  18.925  0.00  0.00    +0.000 A 
ATOM     22 BR   UNL     1       0.674   2.946  20.206  0.00  0.00    +0.000 Br
ATOM     23  C   UNL     1       2.812   2.443  18.387  0.00  0.00    +0.000 A 
ATOM     24  C   UNL     1       3.822   2.807  17.494  0.00  0.00    +0.000 A 
ENDBRANCH  17  18
ENDBRANCH   6  17
TORSDOF 3
ENDMDL
MODEL 2
REMARK VINA RESULT:      -8.2      0.515      1.109
REMARK  Name = 
REMARK  3 active torsions:
REMARK  status: ('A' for Active; 'I' for Inactive)
REMARK    1  A    between atoms: C_5  and  C_6
REMARK    2  A    between atoms: N_11  and  C_12
REMARK    3  A    between atoms: C_12  and  C_13
REMARK                            x       y       z     vdW  Elec       q    Type
REMARK                         _______ _______ _______ _____ _____    ______ ____
ROOT
ATOM      1  C   UNL     1       8.545   9.139  18.428  0.00  0.00    +0.000 A 
ATOM      2  N   UNL     1       8.811   7.961  19.128  0.00  0.00    +0.000 NA
ATOM      3  C   UNL     1       8.049   7.093  18.547  0.00  0.00    +0.000 A 
ATOM      4  C   UNL     1       7.859   5.660  18.795  0.00  0.00    +0.000 A 
ATOM      5  C   UNL     1       6.976   5.040  17.992  0.00  0.00    +0.000 A 
ATOM      6  N   UNL     1       6.242   5.658  16.972  0.00  0.00    +0.000 N 
ATOM      7  C   UNL     1       6.451   7.025  16.750  0.00  0.00    +0.000 A 
ATOM      8  C   UNL     1       7.302   7.753  17.476  0.00  0.00    +0.000 A 
ATOM      9  N   UNL     1       7.668   9.066  17.457  0.00  0.00    +0.000 NA
ENDROOT
BRANCH   1  14
ATOM     10 CL   UNL     1      11.475  14.134  19.979  0.00  0.00    +0.000 Cl
ATOM     11  C   UNL     1      10.628  12.705  19.532  0.00  0.00    +0.000 A 
ATOM     12  C   UNL     1      10.114  11.870  20.523  0.00  0.00    +0.000 A 
ATOM     13  C   UNL     1       9.428  10.708  20.162  0.00  0.00    +0.000 A 
ATOM     14  C   UNL     1       9.259  10.380  18.810  0.00  0.00    +0.000 A 
ATOM     15  C   UNL     1       9.778  11.224  17.821  0.00  0.00    +0.000 A 
ATOM     16  C   UNL     1      10.463  12.389  18.183  0.00  0.00    +0.000 A 
ENDBRANCH   1  14
BRANCH   6  17
ATOM     17  C   UNL     1       5.284   4.894  16.147  0.00  0.00    +0.000 C 
BRANCH  17  18
ATOM     18  C   UNL     1       4.187   4.294  17.001  0.00  0.00    +0.000 A 
ATOM     19  C   UNL     1       4.102   2.905  17.183  0.00  0.00    +0.000 A 
ATOM     20  C   UNL     1       3.030   2.344  17.881  0.00  0.00    +0.000 A 
ATOM     21  C   UNL     1       2.039   3.170  18.406  0.00  0.00    +0.000 A 
ATOM     22 BR   UNL     1       0.541   2.406  19.270  0.00  0.00    +0.000 Br
ATOM     23  C   UNL     1       2.130   4.554  18.276  0.00  0.00    +0.000 A 
ATOM     24  C   UNL     1       3.203   5.113  17.576  0.00  0.00    +0.000 A 
ENDBRANCH  17  18
ENDBRANCH   6  17
TORSDOF 3
ENDMDL
MODEL 3
REMARK VINA RESULT:      -7.6      6.929      9.060
REMARK  Name = 
REMARK  3 active torsions:
REMARK  status: ('A' for Active; 'I' for Inactive)
REMARK    1  A    between atoms: C_5  and  C_6
REMARK    2  A    between atoms: N_11  and  C_12
REMARK    3  A    between atoms: C_12  and  C_13
REMARK                            x       y       z     vdW  Elec       q    Type
REMARK                         _______ _______ _______ _____ _____    ______ ____
ROOT
ATOM      1  C   UNL     1       2.596   7.781  18.197  0.00  0.00    +0.000 A 
ATOM      2  N   UNL     1       2.137   7.588  19.502  0.00  0.00    +0.000 NA
ATOM      3  C   UNL     1       1.418   8.640  19.721  0.00  0.00    +0.000 A 
ATOM      4  C   UNL     1       0.646   9.050  20.898  0.00  0.00    +0.000 A 
ATOM      5  C   UNL     1      -0.002  10.224  20.793  0.00  0.00    +0.000 A 
ATOM      6  N   UNL     1       0.021  11.059  19.670  0.00  0.00    +0.000 N 
ATOM      7  C   UNL     1       0.757  10.638  18.554  0.00  0.00    +0.000 A 
ATOM      8  C   UNL     1       1.442   9.492  18.532  0.00  0.00    +0.000 A 
ATOM      9  N   UNL     1       2.219   8.881  17.593  0.00  0.00    +0.000 NA
ENDROOT
BRANCH   1  14
ATOM     10 CL   UNL     1       6.070   3.603  15.663  0.00  0.00    +0.000 Cl
ATOM     11  C   UNL     1       5.079   4.803  16.395  0.00  0.00    +0.000 A 
ATOM     12  C   UNL     1       4.016   4.417  17.210  0.00  0.00    +0.000 A 
ATOM     13  C   UNL     1       3.208   5.390  17.804  0.00  0.00    +0.000 A 
ATOM     14  C   UNL     1       3.462   6.750  17.580  0.00  0.00    +0.000 A 
ATOM     15  C   UNL     1       4.532   7.130  16.760  0.00  0.00    +0.000 A 
ATOM     16  C   UNL     1       5.342   6.155  16.168  0.00  0.00    +0.000 A 
ENDBRANCH   1  14
BRANCH   6  17
ATOM     17  C   UNL     1      -0.716  12.339  19.651  0.00  0.00    +0.000 C 
BRANCH  17  18
ATOM     18  C   UNL     1      -2.177  12.122  19.320  0.00  0.00    +0.000 A 
ATOM     19  C   UNL     1      -2.553  11.479  18.131  0.00  0.00    +0.000 A 
ATOM     20  C   UNL     1      -3.899  11.375  17.773  0.00  0.00    +0.000 A 
ATOM     21  C   UNL     1      -4.879  11.907  18.608  0.00  0.00    +0.000 A 
ATOM     22 BR   UNL     1      -6.693  11.848  18.082  0.00  0.00    +0.000 Br
ATOM     23  C   UNL     1      -4.528  12.508  19.816  0.00  0.00    +0.000 A 
ATOM     24  C   UNL     1      -3.181  12.613  20.170  0.00  0.00    +0.000 A 
ENDBRANCH  17  18
ENDBRANCH   6  17
TORSDOF 3
ENDMDL
MODEL 4
REMARK VINA RESULT:      -7.5      6.921      9.051
REMARK  Name = 
REMARK  3 active torsions:
REMARK  status: ('A' for Active; 'I' for Inactive)
REMARK    1  A    between atoms: C_5  and  C_6
REMARK    2  A    between atoms: N_11  and  C_12
REMARK    3  A    between atoms: C_12  and  C_13
REMARK                            x       y       z     vdW  Elec       q    Type
REMARK                         _______ _______ _______ _____ _____    ______ ____
ROOT
ATOM      1  C   UNL     1       2.535   7.839  18.283  0.00  0.00    +0.000 A 
ATOM      2  N   UNL     1       2.088   7.660  19.594  0.00  0.00    +0.000 NA
ATOM      3  C   UNL     1       1.389   8.724  19.816  0.00  0.00    +0.000 A 
ATOM      4  C   UNL     1       0.638   9.152  21.001  0.00  0.00    +0.000 A 
ATOM      5  C   UNL     1       0.007  10.335  20.898  0.00  0.00    +0.000 A 
ATOM      6  N   UNL     1       0.029  11.164  19.769  0.00  0.00    +0.000 N 
ATOM      7  C   UNL     1       0.746  10.726  18.648  0.00  0.00    +0.000 A 
ATOM      8  C   UNL     1       1.412   9.569  18.623  0.00  0.00    +0.000 A 
ATOM      9  N   UNL     1       2.168   8.941  17.678  0.00  0.00    +0.000 NA
ENDROOT
BRANCH   1  14
ATOM     10 CL   UNL     1       5.971   3.599  15.802  0.00  0.00    +0.000 Cl
ATOM     11  C   UNL     1       4.980   4.814  16.508  0.00  0.00    +0.000 A 
ATOM     12  C   UNL     1       5.305   6.158  16.330  0.00  0.00    +0.000 A 
ATOM     13  C   UNL     1       4.502   7.147  16.906  0.00  0.00    +0.000 A 
ATOM     14  C   UNL     1       3.377   6.790  17.661  0.00  0.00    +0.000 A 
ATOM     15  C   UNL     1       3.057   5.439  17.834  0.00  0.00    +0.000 A 
ATOM     16  C   UNL     1       3.860   4.449  17.256  0.00  0.00    +0.000 A 
ENDBRANCH   1  14
BRANCH   6  17
ATOM     17  C   UNL     1      -0.687  12.456  19.753  0.00  0.00    +0.000 C 
BRANCH  17  18
ATOM     18  C   UNL     1      -2.134  12.271  19.349  0.00  0.00    +0.000 A 
ATOM     19  C   UNL     1      -3.172  12.695  20.193  0.00  0.00    +0.000 A 
ATOM     20  C   UNL     1      -4.505  12.428  19.871  0.00  0.00    +0.000 A 
ATOM     21  C   UNL     1      -4.808  11.743  18.697  0.00  0.00    +0.000 A 
ATOM     22 BR   UNL     1      -6.604  11.302  18.305  0.00  0.00    +0.000 Br
ATOM     23  C   UNL     1      -3.794  11.355  17.823  0.00  0.00    +0.000 A 
ATOM     24  C   UNL     1      -2.461  11.620  18.149  0.00  0.00    +0.000 A 
ENDBRANCH  17  18
ENDBRANCH   6  17
TORSDOF 3
ENDMDL
MODEL 5
REMARK VINA RESULT:      -7.5      5.717      7.765
REMARK  Name = 
REMARK  3 active torsions:
REMARK  status: ('A' for Active; 'I' for Inactive)
REMARK    1  A    between atoms: C_5  and  C_6
REMARK    2  A    between atoms: N_11  and  C_12
REMARK    3  A    between atoms: C_12  and  C_13
REMARK                            x       y       z     vdW  Elec       q    Type
REMARK                         _______ _______ _______ _____ _____    ______ ____
ROOT
ATOM      1  C   UNL     1       1.116   8.726  20.442  0.00  0.00    +0.000 A 
ATOM      2  N   UNL     1       1.566   9.103  19.175  0.00  0.00    +0.000 NA
ATOM      3  C   UNL     1       2.290   8.097  18.808  0.00  0.00    +0.000 A 
ATOM      4  C   UNL     1       3.043   7.854  17.573  0.00  0.00    +0.000 A 
ATOM      5  C   UNL     1       3.700   6.682  17.510  0.00  0.00    +0.000 A 
ATOM      6  N   UNL     1       3.719   5.714  18.521  0.00  0.00    +0.000 N 
ATOM      7  C   UNL     1       2.982   5.967  19.686  0.00  0.00    +0.000 A 
ATOM      8  C   UNL     1       2.286   7.091  19.869  0.00  0.00    +0.000 A 
ATOM      9  N   UNL     1       1.513   7.561  20.890  0.00  0.00    +0.000 NA
ENDROOT
BRANCH   1  14
ATOM     10 CL   UNL     1      -2.523  12.416  23.457  0.00  0.00    +0.000 Cl
ATOM     11  C   UNL     1      -1.473  11.360  22.596  0.00  0.00    +0.000 A 
ATOM     12  C   UNL     1      -1.181  11.619  21.257  0.00  0.00    +0.000 A 
ATOM     13  C   UNL     1      -0.331  10.761  20.555  0.00  0.00    +0.000 A 
ATOM     14  C   UNL     1       0.225   9.644  21.191  0.00  0.00    +0.000 A 
ATOM     15  C   UNL     1      -0.072   9.391  22.536  0.00  0.00    +0.000 A 
ATOM     16  C   UNL     1      -0.922  10.251  23.239  0.00  0.00    +0.000 A 
ENDBRANCH   1  14
BRANCH   6  17
ATOM     17  C   UNL     1       4.481   4.458  18.365  0.00  0.00    +0.000 C 
BRANCH  17  18
ATOM     18  C   UNL     1       5.315   4.479  17.102  0.00  0.00    +0.000 A 
ATOM     19  C   UNL     1       6.648   4.916  17.133  0.00  0.00    +0.000 A 
ATOM     20  C   UNL     1       7.384   5.038  15.952  0.00  0.00    +0.000 A 
ATOM     21  C   UNL     1       6.792   4.717  14.733  0.00  0.00    +0.000 A 
ATOM     22 BR   UNL     1       7.756   4.969  13.126  0.00  0.00    +0.000 Br
ATOM     23  C   UNL     1       5.484   4.238  14.686  0.00  0.00    +0.000 A 
ATOM     24  C   UNL     1       4.749   4.119  15.869  0.00  0.00    +0.000 A 
ENDBRANCH  17  18
ENDBRANCH   6  17
TORSDOF 3
ENDMDL
MODEL 6
REMARK VINA RESULT:      -7.4      8.283     10.374
REMARK  Name = 
REMARK  3 active torsions:
REMARK  status: ('A' for Active; 'I' for Inactive)
REMARK    1  A    between atoms: C_5  and  C_6
REMARK    2  A    between atoms: N_11  and  C_12
REMARK    3  A    between atoms: C_12  and  C_13
REMARK                            x       y       z     vdW  Elec       q    Type
REMARK                         _______ _______ _______ _____ _____    ______ ____
ROOT
ATOM      1  C   UNL     1       1.485   8.414  20.120  0.00  0.00    +0.000 A 
ATOM      2  N   UNL     1       1.040   8.082  21.402  0.00  0.00    +0.000 NA
ATOM      3  C   UNL     1       0.417   9.148  21.784  0.00  0.00    +0.000 A 
ATOM      4  C   UNL     1      -0.292   9.453  23.031  0.00  0.00    +0.000 A 
ATOM      5  C   UNL     1      -0.843  10.678  23.106  0.00  0.00    +0.000 A 
ATOM      6  N   UNL     1      -0.776  11.654  22.104  0.00  0.00    +0.000 N 
ATOM      7  C   UNL     1      -0.102  11.332  20.918  0.00  0.00    +0.000 A 
ATOM      8  C   UNL     1       0.484  10.149  20.719  0.00  0.00    +0.000 A 
ATOM      9  N   UNL     1       1.186   9.612  19.682  0.00  0.00    +0.000 NA
ENDROOT
BRANCH   1  14
ATOM     10 CL   UNL     1       4.534   4.341  16.948  0.00  0.00    +0.000 Cl
ATOM     11  C   UNL     1       3.666   5.513  17.861  0.00  0.00    +0.000 A 
ATOM     12  C   UNL     1       3.049   5.139  19.054  0.00  0.00    +0.000 A 
ATOM     13  C   UNL     1       2.341   6.088  19.795  0.00  0.00    +0.000 A 
ATOM     14  C   UNL     1       2.248   7.411  19.341  0.00  0.00    +0.000 A 
ATOM     15  C   UNL     1       2.871   7.779  18.143  0.00  0.00    +0.000 A 
ATOM     16  C   UNL     1       3.581   6.828  17.402  0.00  0.00    +0.000 A 
ENDBRANCH   1  14
BRANCH   6  17
ATOM     17  C   UNL     1      -1.404  12.979  22.282  0.00  0.00    +0.000 C 
BRANCH  17  18
ATOM     18  C   UNL     1      -2.872  12.844  22.628  0.00  0.00    +0.000 A 
ATOM     19  C   UNL     1      -3.845  12.824  21.617  0.00  0.00    +0.000 A 
ATOM     20  C   UNL     1      -5.205  12.809  21.940  0.00  0.00    +0.000 A 
ATOM     21  C   UNL     1      -5.597  12.806  23.276  0.00  0.00    +0.000 A 
ATOM     22 BR   UNL     1      -7.435  12.877  23.713  0.00  0.00    +0.000 Br
ATOM     23  C   UNL     1      -4.645  12.778  24.293  0.00  0.00    +0.000 A 
ATOM     24  C   UNL     1      -3.286  12.796  23.968  0.00  0.00    +0.000 A 
ENDBRANCH  17  18
ENDBRANCH   6  17
TORSDOF 3
ENDMDL
MODEL 7
REMARK VINA RESULT:      -7.2      6.691      9.113
REMARK  Name = 
REMARK  3 active torsions:
REMARK  status: ('A' for Active; 'I' for Inactive)
REMARK    1  A    between atoms: C_5  and  C_6
REMARK    2  A    between atoms: N_11  and  C_12
REMARK    3  A    between atoms: C_12  and  C_13
REMARK                            x       y       z     vdW  Elec       q    Type
REMARK                         _______ _______ _______ _____ _____    ______ ____
ROOT
ATOM      1  C   UNL     1       2.729   7.307  18.350  0.00  0.00    +0.000 A 
ATOM      2  N   UNL     1       2.510   7.017  19.698  0.00  0.00    +0.000 NA
ATOM      3  C   UNL     1       1.740   7.980  20.086  0.00  0.00    +0.000 A 
ATOM      4  C   UNL     1       1.137   8.263  21.393  0.00  0.00    +0.000 A 
ATOM      5  C   UNL     1       0.372   9.368  21.457  0.00  0.00    +0.000 A 
ATOM      6  N   UNL     1       0.130  10.243  20.392  0.00  0.00    +0.000 N 
ATOM      7  C   UNL     1       0.711   9.944  19.152  0.00  0.00    +0.000 A 
ATOM      8  C   UNL     1       1.488   8.876  18.958  0.00  0.00    +0.000 A 
ATOM      9  N   UNL     1       2.154   8.384  17.875  0.00  0.00    +0.000 NA
ENDROOT
BRANCH   1  14
ATOM     10 CL   UNL     1       6.187   3.614  15.133  0.00  0.00    +0.000 Cl
ATOM     11  C   UNL     1       5.189   4.673  16.051  0.00  0.00    +0.000 A 
ATOM     12  C   UNL     1       5.379   6.051  15.961  0.00  0.00    +0.000 A 
ATOM     13  C   UNL     1       4.571   6.912  16.708  0.00  0.00    +0.000 A 
ATOM     14  C   UNL     1       3.575   6.394  17.546  0.00  0.00    +0.000 A 
ATOM     15  C   UNL     1       3.390   5.008  17.631  0.00  0.00    +0.000 A 
ATOM     16  C   UNL     1       4.199   4.147  16.881  0.00  0.00    +0.000 A 
ENDBRANCH   1  14
BRANCH   6  17
ATOM     17  C   UNL     1      -0.717  11.441  20.561  0.00  0.00    +0.000 C 
BRANCH  17  18
ATOM     18  C   UNL     1       0.022  12.695  20.145  0.00  0.00    +0.000 A 
ATOM     19  C   UNL     1      -0.456  13.489  19.091  0.00  0.00    +0.000 A 
ATOM     20  C   UNL     1       0.281  14.585  18.636  0.00  0.00    +0.000 A 
ATOM     21  C   UNL     1       1.498  14.897  19.238  0.00  0.00    +0.000 A 
ATOM     22 BR   UNL     1       2.539  16.323  18.564  0.00  0.00    +0.000 Br
ATOM     23  C   UNL     1       1.966  14.148  20.316  0.00  0.00    +0.000 A 
ATOM     24  C   UNL     1       1.228  13.051  20.768  0.00  0.00    +0.000 A 
ENDBRANCH  17  18
ENDBRANCH   6  17
TORSDOF 3
ENDMDL
MODEL 8
REMARK VINA RESULT:      -7.2      7.994     10.186
REMARK  Name = 
REMARK  3 active torsions:
REMARK  status: ('A' for Active; 'I' for Inactive)
REMARK    1  A    between atoms: C_5  and  C_6
REMARK    2  A    between atoms: N_11  and  C_12
REMARK    3  A    between atoms: C_12  and  C_13
REMARK                            x       y       z     vdW  Elec       q    Type
REMARK                         _______ _______ _______ _____ _____    ______ ____
ROOT
ATOM      1  C   UNL     1       1.540   8.244  20.152  0.00  0.00    +0.000 A 
ATOM      2  N   UNL     1       1.079   7.989  21.445  0.00  0.00    +0.000 NA
ATOM      3  C   UNL     1       0.471   9.084  21.763  0.00  0.00    +0.000 A 
ATOM      4  C   UNL     1      -0.242   9.469  22.986  0.00  0.00    +0.000 A 
ATOM      5  C   UNL     1      -0.771  10.706  22.990  0.00  0.00    +0.000 A 
ATOM      6  N   UNL     1      -0.678  11.625  21.938  0.00  0.00    +0.000 N 
ATOM      7  C   UNL     1       0.000  11.228  20.778  0.00  0.00    +0.000 A 
ATOM      8  C   UNL     1       0.566  10.026  20.648  0.00  0.00    +0.000 A 
ATOM      9  N   UNL     1       1.267   9.422  19.647  0.00  0.00    +0.000 NA
ENDROOT
BRANCH   1  14
ATOM     10 CL   UNL     1       4.620   3.982  17.271  0.00  0.00    +0.000 Cl
ATOM     11  C   UNL     1       3.730   5.202  18.095  0.00  0.00    +0.000 A 
ATOM     12  C   UNL     1       3.647   6.483  17.551  0.00  0.00    +0.000 A 
ATOM     13  C   UNL     1       2.927   7.475  18.220  0.00  0.00    +0.000 A 
ATOM     14  C   UNL     1       2.292   7.187  19.435  0.00  0.00    +0.000 A 
ATOM     15  C   UNL     1       2.379   5.898  19.975  0.00  0.00    +0.000 A 
ATOM     16  C   UNL     1       3.099   4.905  19.304  0.00  0.00    +0.000 A 
ENDBRANCH   1  14
BRANCH   6  17
ATOM     17  C   UNL     1      -1.283  12.969  22.039  0.00  0.00    +0.000 C 
BRANCH  17  18
ATOM     18  C   UNL     1      -2.769  12.920  21.752  0.00  0.00    +0.000 A 
ATOM     19  C   UNL     1      -3.700  12.905  22.802  0.00  0.00    +0.000 A 
ATOM     20  C   UNL     1      -5.063  12.751  22.541  0.00  0.00    +0.000 A 
ATOM     21  C   UNL     1      -5.505  12.621  21.227  0.00  0.00    +0.000 A 
ATOM     22 BR   UNL     1      -7.339  12.322  20.878  0.00  0.00    +0.000 Br
ATOM     23  C   UNL     1      -4.601  12.681  20.169  0.00  0.00    +0.000 A 
ATOM     24  C   UNL     1      -3.237  12.832  20.432  0.00  0.00    +0.000 A 
ENDBRANCH  17  18
ENDBRANCH   6  17
TORSDOF 3
ENDMDL
MODEL 9
REMARK VINA RESULT:      -7.2      6.764      9.184
REMARK  Name = 
REMARK  3 active torsions:
REMARK  status: ('A' for Active; 'I' for Inactive)
REMARK    1  A    between atoms: C_5  and  C_6
REMARK    2  A    between atoms: N_11  and  C_12
REMARK    3  A    between atoms: C_12  and  C_13
REMARK                            x       y       z     vdW  Elec       q    Type
REMARK                         _______ _______ _______ _____ _____    ______ ____
ROOT
ATOM      1  C   UNL     1       2.733   7.303  18.350  0.00  0.00    +0.000 A 
ATOM      2  N   UNL     1       2.492   7.016  19.695  0.00  0.00    +0.000 NA
ATOM      3  C   UNL     1       1.721   7.983  20.070  0.00  0.00    +0.000 A 
ATOM      4  C   UNL     1       1.099   8.271  21.366  0.00  0.00    +0.000 A 
ATOM      5  C   UNL     1       0.337   9.378  21.417  0.00  0.00    +0.000 A 
ATOM      6  N   UNL     1       0.115  10.253  20.347  0.00  0.00    +0.000 N 
ATOM      7  C   UNL     1       0.714   9.949  19.117  0.00  0.00    +0.000 A 
ATOM      8  C   UNL     1       1.489   8.878  18.936  0.00  0.00    +0.000 A 
ATOM      9  N   UNL     1       2.171   8.382  17.864  0.00  0.00    +0.000 NA
ENDROOT
BRANCH   1  14
ATOM     10 CL   UNL     1       6.227   3.592  15.192  0.00  0.00    +0.000 Cl
ATOM     11  C   UNL     1       5.219   4.656  16.093  0.00  0.00    +0.000 A 
ATOM     12  C   UNL     1       5.414   6.033  16.003  0.00  0.00    +0.000 A 
ATOM     13  C   UNL     1       4.598   6.898  16.736  0.00  0.00    +0.000 A 
ATOM     14  C   UNL     1       3.589   6.385  17.561  0.00  0.00    +0.000 A 
ATOM     15  C   UNL     1       3.398   5.001  17.646  0.00  0.00    +0.000 A 
ATOM     16  C   UNL     1       4.214   4.135  16.910  0.00  0.00    +0.000 A 
ENDBRANCH   1  14
BRANCH   6  17
ATOM     17  C   UNL     1      -0.730  11.454  20.502  0.00  0.00    +0.000 C 
BRANCH  17  18
ATOM     18  C   UNL     1       0.018  12.704  20.090  0.00  0.00    +0.000 A 
ATOM     19  C   UNL     1       1.168  13.110  20.784  0.00  0.00    +0.000 A 
ATOM     20  C   UNL     1       1.796  14.319  20.474  0.00  0.00    +0.000 A 
ATOM     21  C   UNL     1       1.282  15.125  19.461  0.00  0.00    +0.000 A 
ATOM     22 BR   UNL     1       2.076  16.802  19.102  0.00  0.00    +0.000 Br
ATOM     23  C   UNL     1       0.168  14.716  18.730  0.00  0.00    +0.000 A 
ATOM     24  C   UNL     1      -0.460  13.508  19.043  0.00  0.00    +0.000 A 
ENDBRANCH  17  18
ENDBRANCH   6  17
TORSDOF 3
ENDMDL
