MODEL 1
REMARK VINA RESULT:      -8.2      0.000      0.000
REMARK  Name = 
REMARK  5 active torsions:
REMARK  status: ('A' for Active; 'I' for Inactive)
REMARK    1  A    between atoms: C_1  and  C_2
REMARK    2  A    between atoms: C_5  and  C_6
REMARK    3  A    between atoms: N_9  and  C_10
REMARK    4  A    between atoms: N_13  and  S_14
REMARK    5  A    between atoms: S_14  and  C_17
REMARK                            x       y       z     vdW  Elec       q    Type
REMARK                         _______ _______ _______ _____ _____    ______ ____
ROOT
ATOM      1  C   UNL     1       2.449   6.649  20.201  0.00  0.00    +0.000 C 
ATOM      2  C   UNL     1       1.388   5.588  20.457  0.00  0.00    +0.000 C 
ATOM      3  C   UNL     1       2.264   4.450  20.977  0.00  0.00    +0.000 C 
ATOM      4  N   UNL     1       3.431   4.441  20.040  0.00  0.00    +0.000 NA
ATOM      5  C   UNL     1       3.566   5.854  19.511  0.00  0.00    +0.000 C 
ENDROOT
BRANCH   1  11
ATOM      6  C   UNL     1       2.886   7.606  17.184  0.00  0.00    +0.000 C 
ATOM      7  C   UNL     1       2.209   8.326  18.290  0.00  0.00    +0.000 A 
ATOM      8  C   UNL     1       1.617   9.573  18.254  0.00  0.00    +0.000 A 
ATOM      9  N   UNL     1       1.084   9.906  19.462  0.00  0.00    +0.000 NA
ATOM     10  C   UNL     1       1.332   8.887  20.257  0.00  0.00    +0.000 A 
ATOM     11  N   UNL     1       2.031   7.889  19.590  0.00  0.00    +0.000 N 
BRANCH  10  12
ATOM     12  C   UNL     1       0.862   8.880  21.718  0.00  0.00    +0.000 C 
ATOM     13  C   UNL     1      -0.147   9.919  22.161  0.00  0.00    +0.000 C 
ATOM     14  C   UNL     1      -0.581   8.506  21.990  0.00  0.00    +0.000 C 
ENDBRANCH  10  12
ENDBRANCH   1  11
BRANCH   4  15
ATOM     15  S   UNL     1       3.374   3.232  18.825  0.00  0.00    +0.000 S 
ATOM     16  O   UNL     1       3.713   1.966  19.437  0.00  0.00    +0.000 OA
ATOM     17  O   UNL     1       2.129   3.399  18.101  0.00  0.00    +0.000 OA
BRANCH  15  18
ATOM     18  C   UNL     1       4.685   3.695  17.712  0.00  0.00    +0.000 A 
ATOM     19  C   UNL     1       5.873   4.203  18.255  0.00  0.00    +0.000 A 
ATOM     20  C   UNL     1       6.879   4.681  17.413  0.00  0.00    +0.000 A 
ATOM     21  C   UNL     1       6.700   4.643  16.033  0.00  0.00    +0.000 A 
ATOM     22  C   UNL     1       5.522   4.112  15.491  0.00  0.00    +0.000 A 
ATOM     23  C   UNL     1       4.495   3.669  16.327  0.00  0.00    +0.000 A 
ATOM     24  O   UNL     1       5.311   4.006  14.138  0.00  0.00    +0.000 OA
ATOM     25  C   UNL     1       6.546   4.121  13.415  0.00  0.00    +0.000 C 
ATOM     26  C   UNL     1       7.338   5.321  13.905  0.00  0.00    +0.000 C 
ATOM     27  O   UNL     1       7.728   5.140  15.272  0.00  0.00    +0.000 OA
ENDBRANCH  15  18
ENDBRANCH   4  15
TORSDOF 4
ENDMDL
MODEL 2
REMARK VINA RESULT:      -8.1      2.996      7.294
REMARK  Name = 
REMARK  5 active torsions:
REMARK  status: ('A' for Active; 'I' for Inactive)
REMARK    1  A    between atoms: C_1  and  C_2
REMARK    2  A    between atoms: C_5  and  C_6
REMARK    3  A    between atoms: N_9  and  C_10
REMARK    4  A    between atoms: N_13  and  S_14
REMARK    5  A    between atoms: S_14  and  C_17
REMARK                            x       y       z     vdW  Elec       q    Type
REMARK                         _______ _______ _______ _____ _____    ______ ____
ROOT
ATOM      1  C   UNL     1       4.390   4.434  16.325  0.00  0.00    +0.000 C 
ATOM      2  C   UNL     1       4.428   3.287  17.325  0.00  0.00    +0.000 C 
ATOM      3  C   UNL     1       3.004   3.357  17.871  0.00  0.00    +0.000 C 
ATOM      4  N   UNL     1       2.777   4.820  18.090  0.00  0.00    +0.000 NA
ATOM      5  C   UNL     1       3.675   5.544  17.107  0.00  0.00    +0.000 C 
ENDROOT
BRANCH   1  11
ATOM      6  C   UNL     1       5.323   3.562  13.396  0.00  0.00    +0.000 C 
ATOM      7  C   UNL     1       6.041   4.410  14.377  0.00  0.00    +0.000 A 
ATOM      8  C   UNL     1       7.277   5.011  14.236  0.00  0.00    +0.000 A 
ATOM      9  N   UNL     1       7.612   5.726  15.344  0.00  0.00    +0.000 NA
ATOM     10  C   UNL     1       6.607   5.585  16.182  0.00  0.00    +0.000 A 
ATOM     11  N   UNL     1       5.616   4.776  15.641  0.00  0.00    +0.000 N 
BRANCH  10  12
ATOM     12  C   UNL     1       6.607   6.270  17.555  0.00  0.00    +0.000 C 
ATOM     13  C   UNL     1       7.743   5.976  18.513  0.00  0.00    +0.000 C 
ATOM     14  C   UNL     1       7.689   7.296  17.827  0.00  0.00    +0.000 C 
ENDBRANCH  10  12
ENDBRANCH   1  11
BRANCH   4  15
ATOM     15  S   UNL     1       2.939   5.343  19.715  0.00  0.00    +0.000 S 
ATOM     16  O   UNL     1       2.173   4.446  20.552  0.00  0.00    +0.000 OA
ATOM     17  O   UNL     1       4.350   5.569  19.963  0.00  0.00    +0.000 OA
BRANCH  15  18
ATOM     18  C   UNL     1       2.151   6.940  19.723  0.00  0.00    +0.000 A 
ATOM     19  C   UNL     1       2.207   7.717  18.558  0.00  0.00    +0.000 A 
ATOM     20  C   UNL     1       1.700   9.017  18.560  0.00  0.00    +0.000 A 
ATOM     21  C   UNL     1       1.133   9.536  19.720  0.00  0.00    +0.000 A 
ATOM     22  C   UNL     1       1.056   8.749  20.877  0.00  0.00    +0.000 A 
ATOM     23  C   UNL     1       1.597   7.462  20.895  0.00  0.00    +0.000 A 
ATOM     24  O   UNL     1       0.466   9.192  22.036  0.00  0.00    +0.000 OA
ATOM     25  C   UNL     1      -0.370  10.331  21.784  0.00  0.00    +0.000 C 
ATOM     26  C   UNL     1       0.371  11.357  20.944  0.00  0.00    +0.000 C 
ATOM     27  O   UNL     1       0.666  10.825  19.648  0.00  0.00    +0.000 OA
ENDBRANCH  15  18
ENDBRANCH   4  15
TORSDOF 4
ENDMDL
MODEL 3
REMARK VINA RESULT:      -8.1      2.937      6.940
REMARK  Name = 
REMARK  5 active torsions:
REMARK  status: ('A' for Active; 'I' for Inactive)
REMARK    1  A    between atoms: C_1  and  C_2
REMARK    2  A    between atoms: C_5  and  C_6
REMARK    3  A    between atoms: N_9  and  C_10
REMARK    4  A    between atoms: N_13  and  S_14
REMARK    5  A    between atoms: S_14  and  C_17
REMARK                            x       y       z     vdW  Elec       q    Type
REMARK                         _______ _______ _______ _____ _____    ______ ____
ROOT
ATOM      1  C   UNL     1       4.330   4.474  16.321  0.00  0.00    +0.000 C 
ATOM      2  C   UNL     1       4.300   3.260  17.239  0.00  0.00    +0.000 C 
ATOM      3  C   UNL     1       2.882   3.376  17.794  0.00  0.00    +0.000 C 
ATOM      4  N   UNL     1       2.741   4.831  18.114  0.00  0.00    +0.000 NA
ATOM      5  C   UNL     1       3.680   5.567  17.180  0.00  0.00    +0.000 C 
ENDROOT
BRANCH   1  11
ATOM      6  C   UNL     1       5.270   3.631  13.386  0.00  0.00    +0.000 C 
ATOM      7  C   UNL     1       6.003   4.436  14.392  0.00  0.00    +0.000 A 
ATOM      8  C   UNL     1       7.259   4.999  14.277  0.00  0.00    +0.000 A 
ATOM      9  N   UNL     1       7.603   5.681  15.404  0.00  0.00    +0.000 NA
ATOM     10  C   UNL     1       6.584   5.555  16.227  0.00  0.00    +0.000 A 
ATOM     11  N   UNL     1       5.574   4.790  15.659  0.00  0.00    +0.000 N 
BRANCH  10  12
ATOM     12  C   UNL     1       6.589   6.212  17.614  0.00  0.00    +0.000 C 
ATOM     13  C   UNL     1       7.654   5.799  18.609  0.00  0.00    +0.000 C 
ATOM     14  C   UNL     1       7.747   7.131  17.951  0.00  0.00    +0.000 C 
ENDBRANCH  10  12
ENDBRANCH   1  11
BRANCH   4  15
ATOM     15  S   UNL     1       2.932   5.230  19.770  0.00  0.00    +0.000 S 
ATOM     16  O   UNL     1       2.117   4.322  20.546  0.00  0.00    +0.000 OA
ATOM     17  O   UNL     1       4.353   5.358  20.028  0.00  0.00    +0.000 OA
BRANCH  15  18
ATOM     18  C   UNL     1       2.235   6.864  19.892  0.00  0.00    +0.000 A 
ATOM     19  C   UNL     1       1.457   7.176  21.015  0.00  0.00    +0.000 A 
ATOM     20  C   UNL     1       0.802   8.406  21.092  0.00  0.00    +0.000 A 
ATOM     21  C   UNL     1       0.930   9.324  20.054  0.00  0.00    +0.000 A 
ATOM     22  C   UNL     1       1.728   9.020  18.943  0.00  0.00    +0.000 A 
ATOM     23  C   UNL     1       2.354   7.776  18.839  0.00  0.00    +0.000 A 
ATOM     24  O   UNL     1       1.929   9.905  17.911  0.00  0.00    +0.000 OA
ATOM     25  C   UNL     1       1.572  11.239  18.302  0.00  0.00    +0.000 C 
ATOM     26  C   UNL     1       0.210  11.249  18.973  0.00  0.00    +0.000 C 
ATOM     27  O   UNL     1       0.248  10.506  20.197  0.00  0.00    +0.000 OA
ENDBRANCH  15  18
ENDBRANCH   4  15
TORSDOF 4
ENDMDL
MODEL 4
REMARK VINA RESULT:      -7.6      4.045      6.566
REMARK  Name = 
REMARK  5 active torsions:
REMARK  status: ('A' for Active; 'I' for Inactive)
REMARK    1  A    between atoms: C_1  and  C_2
REMARK    2  A    between atoms: C_5  and  C_6
REMARK    3  A    between atoms: N_9  and  C_10
REMARK    4  A    between atoms: N_13  and  S_14
REMARK    5  A    between atoms: S_14  and  C_17
REMARK                            x       y       z     vdW  Elec       q    Type
REMARK                         _______ _______ _______ _____ _____    ______ ____
ROOT
ATOM      1  C   UNL     1      -1.199  11.677  19.422  0.00  0.00    +0.000 C 
ATOM      2  C   UNL     1      -0.637  12.148  20.756  0.00  0.00    +0.000 C 
ATOM      3  C   UNL     1       0.804  11.659  20.630  0.00  0.00    +0.000 C 
ATOM      4  N   UNL     1       0.665  10.275  20.076  0.00  0.00    +0.000 NA
ATOM      5  C   UNL     1      -0.635  10.255  19.298  0.00  0.00    +0.000 C 
ENDROOT
BRANCH   1  11
ATOM      6  C   UNL     1      -3.428  12.721  21.459  0.00  0.00    +0.000 C 
ATOM      7  C   UNL     1      -3.593  12.312  20.044  0.00  0.00    +0.000 A 
ATOM      8  C   UNL     1      -4.754  12.293  19.295  0.00  0.00    +0.000 A 
ATOM      9  N   UNL     1      -4.519  11.866  18.024  0.00  0.00    +0.000 NA
ATOM     10  C   UNL     1      -3.230  11.615  17.961  0.00  0.00    +0.000 A 
ATOM     11  N   UNL     1      -2.611  11.863  19.179  0.00  0.00    +0.000 N 
BRANCH  10  12
ATOM     12  C   UNL     1      -2.572  11.125  16.663  0.00  0.00    +0.000 C 
ATOM     13  C   UNL     1      -2.813   9.696  16.223  0.00  0.00    +0.000 C 
ATOM     14  C   UNL     1      -3.481  10.807  15.493  0.00  0.00    +0.000 C 
ENDBRANCH  10  12
ENDBRANCH   1  11
BRANCH   4  15
ATOM     15  S   UNL     1       0.819   9.015  21.229  0.00  0.00    +0.000 S 
ATOM     16  O   UNL     1       1.699   9.477  22.281  0.00  0.00    +0.000 OA
ATOM     17  O   UNL     1      -0.514   8.535  21.532  0.00  0.00    +0.000 OA
BRANCH  15  18
ATOM     18  C   UNL     1       1.644   7.720  20.327  0.00  0.00    +0.000 A 
ATOM     19  C   UNL     1       2.169   8.018  19.063  0.00  0.00    +0.000 A 
ATOM     20  C   UNL     1       2.722   7.004  18.278  0.00  0.00    +0.000 A 
ATOM     21  C   UNL     1       2.756   5.699  18.760  0.00  0.00    +0.000 A 
ATOM     22  C   UNL     1       2.253   5.407  20.035  0.00  0.00    +0.000 A 
ATOM     23  C   UNL     1       1.661   6.408  20.810  0.00  0.00    +0.000 A 
ATOM     24  O   UNL     1       2.302   4.148  20.581  0.00  0.00    +0.000 OA
ATOM     25  C   UNL     1       3.249   3.323  19.884  0.00  0.00    +0.000 C 
ATOM     26  C   UNL     1       3.037   3.424  18.384  0.00  0.00    +0.000 C 
ATOM     27  O   UNL     1       3.304   4.756  17.928  0.00  0.00    +0.000 OA
ENDBRANCH  15  18
ENDBRANCH   4  15
TORSDOF 4
ENDMDL
MODEL 5
REMARK VINA RESULT:      -7.4      3.046      7.603
REMARK  Name = 
REMARK  5 active torsions:
REMARK  status: ('A' for Active; 'I' for Inactive)
REMARK    1  A    between atoms: C_1  and  C_2
REMARK    2  A    between atoms: C_5  and  C_6
REMARK    3  A    between atoms: N_9  and  C_10
REMARK    4  A    between atoms: N_13  and  S_14
REMARK    5  A    between atoms: S_14  and  C_17
REMARK                            x       y       z     vdW  Elec       q    Type
REMARK                         _______ _______ _______ _____ _____    ______ ____
ROOT
ATOM      1  C   UNL     1       4.277   4.851  17.045  0.00  0.00    +0.000 C 
ATOM      2  C   UNL     1       3.518   3.634  17.557  0.00  0.00    +0.000 C 
ATOM      3  C   UNL     1       2.104   4.205  17.623  0.00  0.00    +0.000 C 
ATOM      4  N   UNL     1       2.292   5.555  18.242  0.00  0.00    +0.000 NA
ATOM      5  C   UNL     1       3.700   5.992  17.893  0.00  0.00    +0.000 C 
ENDROOT
BRANCH   1  11
ATOM      6  C   UNL     1       6.428   4.689  19.401  0.00  0.00    +0.000 C 
ATOM      7  C   UNL     1       6.663   4.685  17.938  0.00  0.00    +0.000 A 
ATOM      8  C   UNL     1       7.871   4.610  17.272  0.00  0.00    +0.000 A 
ATOM      9  N   UNL     1       7.697   4.621  15.922  0.00  0.00    +0.000 NA
ATOM     10  C   UNL     1       6.398   4.703  15.727  0.00  0.00    +0.000 A 
ATOM     11  N   UNL     1       5.713   4.755  16.934  0.00  0.00    +0.000 N 
BRANCH  10  12
ATOM     12  C   UNL     1       5.800   4.721  14.314  0.00  0.00    +0.000 C 
ATOM     13  C   UNL     1       6.715   4.454  13.136  0.00  0.00    +0.000 C 
ATOM     14  C   UNL     1       5.745   3.408  13.559  0.00  0.00    +0.000 C 
ENDBRANCH  10  12
ENDBRANCH   1  11
BRANCH   4  15
ATOM     15  S   UNL     1       1.917   5.644  19.913  0.00  0.00    +0.000 S 
ATOM     16  O   UNL     1       0.703   4.890  20.139  0.00  0.00    +0.000 OA
ATOM     17  O   UNL     1       3.128   5.341  20.650  0.00  0.00    +0.000 OA
BRANCH  15  18
ATOM     18  C   UNL     1       1.570   7.371  20.174  0.00  0.00    +0.000 A 
ATOM     19  C   UNL     1       1.036   7.765  21.408  0.00  0.00    +0.000 A 
ATOM     20  C   UNL     1       0.646   9.090  21.610  0.00  0.00    +0.000 A 
ATOM     21  C   UNL     1       0.798  10.019  20.585  0.00  0.00    +0.000 A 
ATOM     22  C   UNL     1       1.355   9.629  19.360  0.00  0.00    +0.000 A 
ATOM     23  C   UNL     1       1.710   8.296  19.135  0.00  0.00    +0.000 A 
ATOM     24  O   UNL     1       1.571  10.511  18.330  0.00  0.00    +0.000 OA
ATOM     25  C   UNL     1       1.537  11.867  18.799  0.00  0.00    +0.000 C 
ATOM     26  C   UNL     1       0.312  12.097  19.667  0.00  0.00    +0.000 C 
ATOM     27  O   UNL     1       0.382  11.299  20.855  0.00  0.00    +0.000 OA
ENDBRANCH  15  18
ENDBRANCH   4  15
TORSDOF 4
ENDMDL
MODEL 6
REMARK VINA RESULT:      -7.3      4.219      6.470
REMARK  Name = 
REMARK  5 active torsions:
REMARK  status: ('A' for Active; 'I' for Inactive)
REMARK    1  A    between atoms: C_1  and  C_2
REMARK    2  A    between atoms: C_5  and  C_6
REMARK    3  A    between atoms: N_9  and  C_10
REMARK    4  A    between atoms: N_13  and  S_14
REMARK    5  A    between atoms: S_14  and  C_17
REMARK                            x       y       z     vdW  Elec       q    Type
REMARK                         _______ _______ _______ _____ _____    ______ ____
ROOT
ATOM      1  C   UNL     1      -1.312  11.502  18.731  0.00  0.00    +0.000 C 
ATOM      2  C   UNL     1      -0.657  12.207  19.911  0.00  0.00    +0.000 C 
ATOM      3  C   UNL     1       0.752  11.627  19.826  0.00  0.00    +0.000 C 
ATOM      4  N   UNL     1       0.523  10.168  19.580  0.00  0.00    +0.000 NA
ATOM      5  C   UNL     1      -0.817  10.058  18.881  0.00  0.00    +0.000 C 
ENDROOT
BRANCH   1  11
ATOM      6  C   UNL     1      -3.489  12.536  20.828  0.00  0.00    +0.000 C 
ATOM      7  C   UNL     1      -3.686  12.155  19.409  0.00  0.00    +0.000 A 
ATOM      8  C   UNL     1      -4.860  12.164  18.682  0.00  0.00    +0.000 A 
ATOM      9  N   UNL     1      -4.654  11.758  17.399  0.00  0.00    +0.000 NA
ATOM     10  C   UNL     1      -3.369  11.493  17.307  0.00  0.00    +0.000 A 
ATOM     11  N   UNL     1      -2.725  11.710  18.518  0.00  0.00    +0.000 N 
BRANCH  10  12
ATOM     12  C   UNL     1      -2.741  11.019  15.989  0.00  0.00    +0.000 C 
ATOM     13  C   UNL     1      -2.685   9.532  15.705  0.00  0.00    +0.000 C 
ATOM     14  C   UNL     1      -3.659  10.381  14.965  0.00  0.00    +0.000 C 
ENDBRANCH  10  12
ENDBRANCH   1  11
BRANCH   4  15
ATOM     15  S   UNL     1       0.686   9.166  20.962  0.00  0.00    +0.000 S 
ATOM     16  O   UNL     1       1.577   9.827  21.890  0.00  0.00    +0.000 OA
ATOM     17  O   UNL     1      -0.646   8.763  21.369  0.00  0.00    +0.000 OA
BRANCH  15  18
ATOM     18  C   UNL     1       1.497   7.712  20.333  0.00  0.00    +0.000 A 
ATOM     19  C   UNL     1       1.347   6.508  21.035  0.00  0.00    +0.000 A 
ATOM     20  C   UNL     1       2.057   5.373  20.638  0.00  0.00    +0.000 A 
ATOM     21  C   UNL     1       2.908   5.440  19.538  0.00  0.00    +0.000 A 
ATOM     22  C   UNL     1       3.037   6.638  18.822  0.00  0.00    +0.000 A 
ATOM     23  C   UNL     1       2.362   7.788  19.238  0.00  0.00    +0.000 A 
ATOM     24  O   UNL     1       3.825   6.751  17.703  0.00  0.00    +0.000 OA
ATOM     25  C   UNL     1       4.143   5.457  17.166  0.00  0.00    +0.000 C 
ATOM     26  C   UNL     1       4.626   4.531  18.268  0.00  0.00    +0.000 C 
ATOM     27  O   UNL     1       3.579   4.288  19.215  0.00  0.00    +0.000 OA
ENDBRANCH  15  18
ENDBRANCH   4  15
TORSDOF 4
ENDMDL
MODEL 7
REMARK VINA RESULT:      -7.2      1.370      2.039
REMARK  Name = 
REMARK  5 active torsions:
REMARK  status: ('A' for Active; 'I' for Inactive)
REMARK    1  A    between atoms: C_1  and  C_2
REMARK    2  A    between atoms: C_5  and  C_6
REMARK    3  A    between atoms: N_9  and  C_10
REMARK    4  A    between atoms: N_13  and  S_14
REMARK    5  A    between atoms: S_14  and  C_17
REMARK                            x       y       z     vdW  Elec       q    Type
REMARK                         _______ _______ _______ _____ _____    ______ ____
ROOT
ATOM      1  C   UNL     1       1.873   5.818  20.575  0.00  0.00    +0.000 C 
ATOM      2  C   UNL     1       0.946   4.714  20.085  0.00  0.00    +0.000 C 
ATOM      3  C   UNL     1       1.417   3.557  20.963  0.00  0.00    +0.000 C 
ATOM      4  N   UNL     1       2.910   3.655  20.913  0.00  0.00    +0.000 NA
ATOM      5  C   UNL     1       3.233   5.112  20.649  0.00  0.00    +0.000 C 
ENDROOT
BRANCH   1  11
ATOM      6  C   UNL     1       2.582   6.482  17.531  0.00  0.00    +0.000 C 
ATOM      7  C   UNL     1       2.117   7.408  18.592  0.00  0.00    +0.000 A 
ATOM      8  C   UNL     1       1.888   8.767  18.492  0.00  0.00    +0.000 A 
ATOM      9  N   UNL     1       1.455   9.286  19.674  0.00  0.00    +0.000 NA
ATOM     10  C   UNL     1       1.408   8.276  20.515  0.00  0.00    +0.000 A 
ATOM     11  N   UNL     1       1.814   7.096  19.905  0.00  0.00    +0.000 N 
BRANCH  10  12
ATOM     12  C   UNL     1       0.941   8.463  21.965  0.00  0.00    +0.000 C 
ATOM     13  C   UNL     1       0.322   9.787  22.363  0.00  0.00    +0.000 C 
ATOM     14  C   UNL     1      -0.549   8.590  22.212  0.00  0.00    +0.000 C 
ENDBRANCH  10  12
ENDBRANCH   1  11
BRANCH   4  15
ATOM     15  S   UNL     1       3.673   2.556  19.841  0.00  0.00    +0.000 S 
ATOM     16  O   UNL     1       4.693   1.845  20.581  0.00  0.00    +0.000 OA
ATOM     17  O   UNL     1       2.630   1.838  19.136  0.00  0.00    +0.000 OA
BRANCH  15  18
ATOM     18  C   UNL     1       4.469   3.614  18.651  0.00  0.00    +0.000 A 
ATOM     19  C   UNL     1       4.183   3.424  17.292  0.00  0.00    +0.000 A 
ATOM     20  C   UNL     1       4.870   4.157  16.323  0.00  0.00    +0.000 A 
ATOM     21  C   UNL     1       5.836   5.081  16.712  0.00  0.00    +0.000 A 
ATOM     22  C   UNL     1       6.103   5.288  18.072  0.00  0.00    +0.000 A 
ATOM     23  C   UNL     1       5.449   4.530  19.046  0.00  0.00    +0.000 A 
ATOM     24  O   UNL     1       7.010   6.219  18.515  0.00  0.00    +0.000 OA
ATOM     25  C   UNL     1       7.315   7.171  17.484  0.00  0.00    +0.000 C 
ATOM     26  C   UNL     1       7.629   6.458  16.181  0.00  0.00    +0.000 C 
ATOM     27  O   UNL     1       6.476   5.755  15.702  0.00  0.00    +0.000 OA
ENDBRANCH  15  18
ENDBRANCH   4  15
TORSDOF 4
ENDMDL
MODEL 8
REMARK VINA RESULT:      -7.2      3.052      7.876
REMARK  Name = 
REMARK  5 active torsions:
REMARK  status: ('A' for Active; 'I' for Inactive)
REMARK    1  A    between atoms: C_1  and  C_2
REMARK    2  A    between atoms: C_5  and  C_6
REMARK    3  A    between atoms: N_9  and  C_10
REMARK    4  A    between atoms: N_13  and  S_14
REMARK    5  A    between atoms: S_14  and  C_17
REMARK                            x       y       z     vdW  Elec       q    Type
REMARK                         _______ _______ _______ _____ _____    ______ ____
ROOT
ATOM      1  C   UNL     1       4.524   4.255  16.109  0.00  0.00    +0.000 C 
ATOM      2  C   UNL     1       4.582   3.154  17.159  0.00  0.00    +0.000 C 
ATOM      3  C   UNL     1       3.190   3.292  17.773  0.00  0.00    +0.000 C 
ATOM      4  N   UNL     1       3.016   4.770  17.934  0.00  0.00    +0.000 NA
ATOM      5  C   UNL     1       3.881   5.420  16.874  0.00  0.00    +0.000 C 
ENDROOT
BRANCH   1  11
ATOM      6  C   UNL     1       7.171   5.761  17.075  0.00  0.00    +0.000 C 
ATOM      7  C   UNL     1       6.876   5.178  15.744  0.00  0.00    +0.000 A 
ATOM      8  C   UNL     1       7.688   5.160  14.626  0.00  0.00    +0.000 A 
ATOM      9  N   UNL     1       7.085   4.525  13.584  0.00  0.00    +0.000 NA
ATOM     10  C   UNL     1       5.906   4.144  14.027  0.00  0.00    +0.000 A 
ATOM     11  N   UNL     1       5.721   4.528  15.349  0.00  0.00    +0.000 N 
BRANCH  10  12
ATOM     12  C   UNL     1       4.928   3.369  13.134  0.00  0.00    +0.000 C 
ATOM     13  C   UNL     1       4.728   3.830  11.706  0.00  0.00    +0.000 C 
ATOM     14  C   UNL     1       5.507   2.590  11.970  0.00  0.00    +0.000 C 
ENDBRANCH  10  12
ENDBRANCH   1  11
BRANCH   4  15
ATOM     15  S   UNL     1       3.278   5.361  19.523  0.00  0.00    +0.000 S 
ATOM     16  O   UNL     1       2.656   4.442  20.450  0.00  0.00    +0.000 OA
ATOM     17  O   UNL     1       4.684   5.696  19.638  0.00  0.00    +0.000 OA
BRANCH  15  18
ATOM     18  C   UNL     1       2.377   6.896  19.553  0.00  0.00    +0.000 A 
ATOM     19  C   UNL     1       2.361   7.684  18.394  0.00  0.00    +0.000 A 
ATOM     20  C   UNL     1       1.761   8.944  18.413  0.00  0.00    +0.000 A 
ATOM     21  C   UNL     1       1.173   9.412  19.584  0.00  0.00    +0.000 A 
ATOM     22  C   UNL     1       1.168   8.613  20.736  0.00  0.00    +0.000 A 
ATOM     23  C   UNL     1       1.801   7.368  20.737  0.00  0.00    +0.000 A 
ATOM     24  O   UNL     1       0.562   9.003  21.905  0.00  0.00    +0.000 OA
ATOM     25  C   UNL     1      -0.358  10.081  21.673  0.00  0.00    +0.000 C 
ATOM     26  C   UNL     1       0.296  11.163  20.833  0.00  0.00    +0.000 C 
ATOM     27  O   UNL     1       0.613  10.664  19.528  0.00  0.00    +0.000 OA
ENDBRANCH  15  18
ENDBRANCH   4  15
TORSDOF 4
ENDMDL
MODEL 9
REMARK VINA RESULT:      -7.2      3.226      7.977
REMARK  Name = 
REMARK  5 active torsions:
REMARK  status: ('A' for Active; 'I' for Inactive)
REMARK    1  A    between atoms: C_1  and  C_2
REMARK    2  A    between atoms: C_5  and  C_6
REMARK    3  A    between atoms: N_9  and  C_10
REMARK    4  A    between atoms: N_13  and  S_14
REMARK    5  A    between atoms: S_14  and  C_17
REMARK                            x       y       z     vdW  Elec       q    Type
REMARK                         _______ _______ _______ _____ _____    ______ ____
ROOT
ATOM      1  C   UNL     1       4.309   4.991  17.037  0.00  0.00    +0.000 C 
ATOM      2  C   UNL     1       3.515   3.868  17.690  0.00  0.00    +0.000 C 
ATOM      3  C   UNL     1       2.122   4.492  17.700  0.00  0.00    +0.000 C 
ATOM      4  N   UNL     1       2.363   5.896  18.160  0.00  0.00    +0.000 NA
ATOM      5  C   UNL     1       3.781   6.241  17.753  0.00  0.00    +0.000 C 
ENDROOT
BRANCH   1  11
ATOM      6  C   UNL     1       6.450   4.745  19.395  0.00  0.00    +0.000 C 
ATOM      7  C   UNL     1       6.686   4.725  17.932  0.00  0.00    +0.000 A 
ATOM      8  C   UNL     1       7.890   4.595  17.267  0.00  0.00    +0.000 A 
ATOM      9  N   UNL     1       7.717   4.609  15.917  0.00  0.00    +0.000 NA
ATOM     10  C   UNL     1       6.423   4.746  15.721  0.00  0.00    +0.000 A 
ATOM     11  N   UNL     1       5.740   4.832  16.927  0.00  0.00    +0.000 N 
BRANCH  10  12
ATOM     12  C   UNL     1       5.827   4.785  14.307  0.00  0.00    +0.000 C 
ATOM     13  C   UNL     1       6.589   4.119  13.180  0.00  0.00    +0.000 C 
ATOM     14  C   UNL     1       5.355   3.475  13.708  0.00  0.00    +0.000 C 
ENDBRANCH  10  12
ENDBRANCH   1  11
BRANCH   4  15
ATOM     15  S   UNL     1       2.010   6.189  19.812  0.00  0.00    +0.000 S 
ATOM     16  O   UNL     1       0.881   5.363  20.180  0.00  0.00    +0.000 OA
ATOM     17  O   UNL     1       3.257   6.113  20.546  0.00  0.00    +0.000 OA
BRANCH  15  18
ATOM     18  C   UNL     1       1.498   7.894  19.836  0.00  0.00    +0.000 A 
ATOM     19  C   UNL     1       1.586   8.634  18.649  0.00  0.00    +0.000 A 
ATOM     20  C   UNL     1       1.302  10.000  18.654  0.00  0.00    +0.000 A 
ATOM     21  C   UNL     1       0.922  10.623  19.840  0.00  0.00    +0.000 A 
ATOM     22  C   UNL     1       0.810   9.876  21.021  0.00  0.00    +0.000 A 
ATOM     23  C   UNL     1       1.132   8.517  21.033  0.00  0.00    +0.000 A 
ATOM     24  O   UNL     1       0.395  10.427  22.208  0.00  0.00    +0.000 OA
ATOM     25  C   UNL     1      -0.260  11.686  21.990  0.00  0.00    +0.000 C 
ATOM     26  C   UNL     1       0.570  12.562  21.068  0.00  0.00    +0.000 C 
ATOM     27  O   UNL     1       0.670  11.970  19.768  0.00  0.00    +0.000 OA
ENDBRANCH  15  18
ENDBRANCH   4  15
TORSDOF 4
ENDMDL
