MODEL 1
REMARK VINA RESULT:      -9.4      0.000      0.000
REMARK  Name = 
REMARK  6 active torsions:
REMARK  status: ('A' for Active; 'I' for Inactive)
REMARK    1  A    between atoms: C_1  and  C_2
REMARK    2  A    between atoms: C_5  and  C_6
REMARK    3  A    between atoms: C_8  and  C_9
REMARK    4  A    between atoms: C_13  and  C_14
REMARK    5  A    between atoms: C_14  and  C_15
REMARK    6  A    between atoms: N_20  and  C_21
REMARK                            x       y       z     vdW  Elec       q    Type
REMARK                         _______ _______ _______ _____ _____    ______ ____
ROOT
ATOM      1  C   UNL     1       2.573   6.999  18.748  0.00  0.00    +0.000 A 
ATOM      2  C   UNL     1       2.107   7.117  20.042  0.00  0.00    +0.000 A 
ATOM      3  C   UNL     1       1.531   8.386  20.325  0.00  0.00    +0.000 A 
ATOM      4 CL   UNL     1       0.889   8.698  21.883  0.00  0.00    +0.000 Cl
ATOM      5  C   UNL     1       1.563   9.248  19.240  0.00  0.00    +0.000 A 
ATOM      6  S   UNL     1       2.300   8.457  17.890  0.00  0.00    +0.000 S 
ENDROOT
BRANCH   5   7
ATOM      7  C   UNL     1       1.044  10.709  19.118  0.00  0.00    +0.000 C 
ATOM      8  C   UNL     1       2.036  11.487  18.218  0.00  0.00    +0.000 C 
ATOM      9  C   UNL     1       0.918  11.266  20.535  0.00  0.00    +0.000 C 
ATOM     10  S   UNL     1       0.193  12.869  20.556  0.00  0.00    +0.000 S 
ATOM     11  O   UNL     1       1.110  13.800  19.929  0.00  0.00    +0.000 OA
ATOM     12  O   UNL     1      -0.264  13.102  21.909  0.00  0.00    +0.000 OA
ATOM     13  N   UNL     1      -1.125  12.649  19.540  0.00  0.00    +0.000 N 
ATOM     14  C   UNL     1      -2.448  13.051  20.061  0.00  0.00    +0.000 C 
ATOM     15  C   UNL     1      -1.011  11.895  18.379  0.00  0.00    +0.000 C 
ATOM     16  N   UNL     1      -1.663  12.197  17.317  0.00  0.00    +0.000 NA
ATOM     17  N   UNL     1      -0.257  10.781  18.454  0.00  0.00    +0.000 N 
ATOM     18  H   UNL     1      -2.125  13.097  17.477  0.00  0.00    +0.000 HD
ATOM     19  H   UNL     1      -0.269  10.295  17.558  0.00  0.00    +0.000 HD
ENDBRANCH   5   7
BRANCH   1  22
ATOM     20  C   UNL     1       4.717   4.769  16.565  0.00  0.00    +0.000 A 
ATOM     21  C   UNL     1       4.147   5.929  17.089  0.00  0.00    +0.000 A 
ATOM     22  C   UNL     1       3.199   5.823  18.114  0.00  0.00    +0.000 A 
ATOM     23  C   UNL     1       2.867   4.538  18.564  0.00  0.00    +0.000 A 
ATOM     24  C   UNL     1       3.484   3.441  17.993  0.00  0.00    +0.000 A 
ATOM     25  N   UNL     1       4.397   3.528  17.010  0.00  0.00    +0.000 NA
BRANCH  20  30
ATOM     26  C   UNL     1       7.354   4.434  12.419  0.00  0.00    +0.000 C 
ATOM     27  C   UNL     1       6.913   4.748  13.790  0.00  0.00    +0.000 A 
ATOM     28  N   UNL     1       7.628   5.524  14.612  0.00  0.00    +0.000 NA
ATOM     29  O   UNL     1       6.833   5.585  15.760  0.00  0.00    +0.000 OA
ATOM     30  C   UNL     1       5.717   4.835  15.504  0.00  0.00    +0.000 A 
ATOM     31  N   UNL     1       5.724   4.293  14.303  0.00  0.00    +0.000 NA
ENDBRANCH  20  30
ENDBRANCH   1  22
TORSDOF 3
ENDMDL
MODEL 2
REMARK VINA RESULT:      -9.1      1.370      1.415
REMARK  Name = 
REMARK  6 active torsions:
REMARK  status: ('A' for Active; 'I' for Inactive)
REMARK    1  A    between atoms: C_1  and  C_2
REMARK    2  A    between atoms: C_5  and  C_6
REMARK    3  A    between atoms: C_8  and  C_9
REMARK    4  A    between atoms: C_13  and  C_14
REMARK    5  A    between atoms: C_14  and  C_15
REMARK    6  A    between atoms: N_20  and  C_21
REMARK                            x       y       z     vdW  Elec       q    Type
REMARK                         _______ _______ _______ _____ _____    ______ ____
ROOT
ATOM      1  C   UNL     1       2.264   7.341  19.516  0.00  0.00    +0.000 A 
ATOM      2  C   UNL     1       1.849   7.688  20.786  0.00  0.00    +0.000 A 
ATOM      3  C   UNL     1       1.040   8.859  20.819  0.00  0.00    +0.000 A 
ATOM      4 CL   UNL     1       0.426   9.423  22.315  0.00  0.00    +0.000 Cl
ATOM      5  C   UNL     1       0.843   9.414  19.564  0.00  0.00    +0.000 A 
ATOM      6  S   UNL     1       1.659   8.464  18.372  0.00  0.00    +0.000 S 
ENDROOT
BRANCH   5   7
ATOM      7  C   UNL     1       0.033  10.677  19.155  0.00  0.00    +0.000 C 
ATOM      8  C   UNL     1       1.041  11.747  18.670  0.00  0.00    +0.000 C 
ATOM      9  C   UNL     1      -0.793  11.100  20.368  0.00  0.00    +0.000 C 
ATOM     10  S   UNL     1      -1.880  12.433  20.000  0.00  0.00    +0.000 S 
ATOM     11  O   UNL     1      -1.087  13.616  19.727  0.00  0.00    +0.000 OA
ATOM     12  O   UNL     1      -2.880  12.458  21.045  0.00  0.00    +0.000 OA
ATOM     13  N   UNL     1      -2.571  11.909  18.563  0.00  0.00    +0.000 N 
ATOM     14  C   UNL     1      -4.047  11.897  18.494  0.00  0.00    +0.000 C 
ATOM     15  C   UNL     1      -1.804  11.280  17.591  0.00  0.00    +0.000 C 
ATOM     16  N   UNL     1      -2.038  11.443  16.342  0.00  0.00    +0.000 NA
ATOM     17  N   UNL     1      -0.864  10.418  18.029  0.00  0.00    +0.000 N 
ATOM     18  H   UNL     1      -2.755  12.168  16.249  0.00  0.00    +0.000 HD
ATOM     19  H   UNL     1      -0.385   9.997  17.233  0.00  0.00    +0.000 HD
ENDBRANCH   5   7
BRANCH   1  22
ATOM     20  C   UNL     1       4.653   5.052  17.675  0.00  0.00    +0.000 A 
ATOM     21  C   UNL     1       3.880   6.176  17.965  0.00  0.00    +0.000 A 
ATOM     22  C   UNL     1       3.085   6.181  19.117  0.00  0.00    +0.000 A 
ATOM     23  C   UNL     1       3.107   5.040  19.929  0.00  0.00    +0.000 A 
ATOM     24  C   UNL     1       3.907   3.971  19.572  0.00  0.00    +0.000 A 
ATOM     25  N   UNL     1       4.676   3.952  18.470  0.00  0.00    +0.000 NA
BRANCH  20  30
ATOM     26  C   UNL     1       6.717   4.314  13.265  0.00  0.00    +0.000 C 
ATOM     27  C   UNL     1       6.463   4.753  14.649  0.00  0.00    +0.000 A 
ATOM     28  N   UNL     1       7.285   5.585  15.298  0.00  0.00    +0.000 NA
ATOM     29  O   UNL     1       6.649   5.759  16.531  0.00  0.00    +0.000 OA
ATOM     30  C   UNL     1       5.504   5.008  16.490  0.00  0.00    +0.000 A 
ATOM     31  N   UNL     1       5.350   4.365  15.351  0.00  0.00    +0.000 NA
ENDBRANCH  20  30
ENDBRANCH   1  22
TORSDOF 3
ENDMDL
MODEL 3
REMARK VINA RESULT:      -9.1      1.632      2.123
REMARK  Name = 
REMARK  6 active torsions:
REMARK  status: ('A' for Active; 'I' for Inactive)
REMARK    1  A    between atoms: C_1  and  C_2
REMARK    2  A    between atoms: C_5  and  C_6
REMARK    3  A    between atoms: C_8  and  C_9
REMARK    4  A    between atoms: C_13  and  C_14
REMARK    5  A    between atoms: C_14  and  C_15
REMARK    6  A    between atoms: N_20  and  C_21
REMARK                            x       y       z     vdW  Elec       q    Type
REMARK                         _______ _______ _______ _____ _____    ______ ____
ROOT
ATOM      1  C   UNL     1       2.242   7.104  19.066  0.00  0.00    +0.000 A 
ATOM      2  C   UNL     1       1.853   7.191  20.387  0.00  0.00    +0.000 A 
ATOM      3  C   UNL     1       1.309   8.458  20.737  0.00  0.00    +0.000 A 
ATOM      4 CL   UNL     1       0.762   8.732  22.338  0.00  0.00    +0.000 Cl
ATOM      5  C   UNL     1       1.288   9.348  19.676  0.00  0.00    +0.000 A 
ATOM      6  S   UNL     1       1.937   8.588  18.264  0.00  0.00    +0.000 S 
ENDROOT
BRANCH   5   7
ATOM      7  C   UNL     1       0.779  10.817  19.623  0.00  0.00    +0.000 C 
ATOM      8  C   UNL     1      -0.727  10.781  19.265  0.00  0.00    +0.000 C 
ATOM      9  C   UNL     1       1.645  11.561  18.608  0.00  0.00    +0.000 C 
ATOM     10  S   UNL     1       1.279  13.281  18.557  0.00  0.00    +0.000 S 
ATOM     11  O   UNL     1      -0.058  13.454  18.022  0.00  0.00    +0.000 OA
ATOM     12  O   UNL     1       2.403  13.929  17.918  0.00  0.00    +0.000 OA
ATOM     13  N   UNL     1       1.255  13.663  20.191  0.00  0.00    +0.000 N 
ATOM     14  C   UNL     1       2.099  14.794  20.628  0.00  0.00    +0.000 C 
ATOM     15  C   UNL     1       0.676  12.802  21.115  0.00  0.00    +0.000 C 
ATOM     16  N   UNL     1       0.059  13.245  22.148  0.00  0.00    +0.000 NA
ATOM     17  N   UNL     1       0.877  11.484  20.921  0.00  0.00    +0.000 N 
ATOM     18  H   UNL     1      -0.009  14.263  22.062  0.00  0.00    +0.000 HD
ATOM     19  H   UNL     1       0.435  10.954  21.671  0.00  0.00    +0.000 HD
ENDBRANCH   5   7
BRANCH   1  22
ATOM     20  C   UNL     1       4.384   4.895  16.859  0.00  0.00    +0.000 A 
ATOM     21  C   UNL     1       3.875   6.049  17.455  0.00  0.00    +0.000 A 
ATOM     22  C   UNL     1       2.816   5.939  18.365  0.00  0.00    +0.000 A 
ATOM     23  C   UNL     1       2.317   4.657  18.632  0.00  0.00    +0.000 A 
ATOM     24  C   UNL     1       2.884   3.565  18.002  0.00  0.00    +0.000 A 
ATOM     25  N   UNL     1       3.900   3.656  17.128  0.00  0.00    +0.000 NA
BRANCH  20  30
ATOM     26  C   UNL     1       7.411   4.692  12.981  0.00  0.00    +0.000 C 
ATOM     27  C   UNL     1       6.854   4.920  14.326  0.00  0.00    +0.000 A 
ATOM     28  N   UNL     1       7.541   5.547  15.288  0.00  0.00    +0.000 NA
ATOM     29  O   UNL     1       6.635   5.578  16.352  0.00  0.00    +0.000 OA
ATOM     30  C   UNL     1       5.493   4.962  15.914  0.00  0.00    +0.000 A 
ATOM     31  N   UNL     1       5.584   4.534  14.671  0.00  0.00    +0.000 NA
ENDBRANCH  20  30
ENDBRANCH   1  22
TORSDOF 3
ENDMDL
MODEL 4
REMARK VINA RESULT:      -9.0      1.563      2.027
REMARK  Name = 
REMARK  6 active torsions:
REMARK  status: ('A' for Active; 'I' for Inactive)
REMARK    1  A    between atoms: C_1  and  C_2
REMARK    2  A    between atoms: C_5  and  C_6
REMARK    3  A    between atoms: C_8  and  C_9
REMARK    4  A    between atoms: C_13  and  C_14
REMARK    5  A    between atoms: C_14  and  C_15
REMARK    6  A    between atoms: N_20  and  C_21
REMARK                            x       y       z     vdW  Elec       q    Type
REMARK                         _______ _______ _______ _____ _____    ______ ____
ROOT
ATOM      1  C   UNL     1       1.637   7.829  20.204  0.00  0.00    +0.000 A 
ATOM      2  C   UNL     1       1.073   8.026  21.448  0.00  0.00    +0.000 A 
ATOM      3  C   UNL     1       0.487   9.312  21.610  0.00  0.00    +0.000 A 
ATOM      4 CL   UNL     1      -0.271   9.719  23.092  0.00  0.00    +0.000 Cl
ATOM      5  C   UNL     1       0.610  10.106  20.481  0.00  0.00    +0.000 A 
ATOM      6  S   UNL     1       1.443   9.233  19.242  0.00  0.00    +0.000 S 
ENDROOT
BRANCH   5   7
ATOM      7  C   UNL     1       0.113  11.559  20.231  0.00  0.00    +0.000 C 
ATOM      8  C   UNL     1       0.438  11.921  18.761  0.00  0.00    +0.000 C 
ATOM      9  C   UNL     1       0.797  12.456  21.261  0.00  0.00    +0.000 C 
ATOM     10  S   UNL     1       0.209  14.113  21.194  0.00  0.00    +0.000 S 
ATOM     11  O   UNL     1       0.625  14.701  19.936  0.00  0.00    +0.000 OA
ATOM     12  O   UNL     1       0.582  14.739  22.443  0.00  0.00    +0.000 OA
ATOM     13  N   UNL     1      -1.451  13.873  21.150  0.00  0.00    +0.000 N 
ATOM     14  C   UNL     1      -2.260  14.601  22.150  0.00  0.00    +0.000 C 
ATOM     15  C   UNL     1      -2.004  12.852  20.388  0.00  0.00    +0.000 C 
ATOM     16  N   UNL     1      -3.136  12.990  19.802  0.00  0.00    +0.000 NA
ATOM     17  N   UNL     1      -1.337  11.681  20.373  0.00  0.00    +0.000 N 
ATOM     18  H   UNL     1      -3.429  13.965  19.911  0.00  0.00    +0.000 HD
ATOM     19  H   UNL     1      -1.846  11.001  19.809  0.00  0.00    +0.000 HD
ENDBRANCH   5   7
BRANCH   1  22
ATOM     20  C   UNL     1       3.688   5.423  18.120  0.00  0.00    +0.000 A 
ATOM     21  C   UNL     1       3.064   6.606  18.519  0.00  0.00    +0.000 A 
ATOM     22  C   UNL     1       2.300   6.614  19.692  0.00  0.00    +0.000 A 
ATOM     23  C   UNL     1       2.200   5.417  20.413  0.00  0.00    +0.000 A 
ATOM     24  C   UNL     1       2.856   4.291  19.950  0.00  0.00    +0.000 A 
ATOM     25  N   UNL     1       3.593   4.269  18.826  0.00  0.00    +0.000 NA
BRANCH  20  30
ATOM     26  C   UNL     1       6.270   4.186  14.113  0.00  0.00    +0.000 C 
ATOM     27  C   UNL     1       5.618   4.950  15.192  0.00  0.00    +0.000 A 
ATOM     28  N   UNL     1       5.606   6.287  15.216  0.00  0.00    +0.000 NA
ATOM     29  O   UNL     1       4.861   6.576  16.363  0.00  0.00    +0.000 OA
ATOM     30  C   UNL     1       4.502   5.373  16.910  0.00  0.00    +0.000 A 
ATOM     31  N   UNL     1       4.952   4.341  16.225  0.00  0.00    +0.000 NA
ENDBRANCH  20  30
ENDBRANCH   1  22
TORSDOF 3
ENDMDL
MODEL 5
REMARK VINA RESULT:      -9.0      1.987      2.766
REMARK  Name = 
REMARK  6 active torsions:
REMARK  status: ('A' for Active; 'I' for Inactive)
REMARK    1  A    between atoms: C_1  and  C_2
REMARK    2  A    between atoms: C_5  and  C_6
REMARK    3  A    between atoms: C_8  and  C_9
REMARK    4  A    between atoms: C_13  and  C_14
REMARK    5  A    between atoms: C_14  and  C_15
REMARK    6  A    between atoms: N_20  and  C_21
REMARK                            x       y       z     vdW  Elec       q    Type
REMARK                         _______ _______ _______ _____ _____    ______ ____
ROOT
ATOM      1  C   UNL     1       1.655   7.802  20.240  0.00  0.00    +0.000 A 
ATOM      2  C   UNL     1       1.054   7.989  21.468  0.00  0.00    +0.000 A 
ATOM      3  C   UNL     1       0.533   9.300  21.652  0.00  0.00    +0.000 A 
ATOM      4 CL   UNL     1      -0.260   9.699  23.118  0.00  0.00    +0.000 Cl
ATOM      5  C   UNL     1       0.746  10.124  20.558  0.00  0.00    +0.000 A 
ATOM      6  S   UNL     1       1.578   9.247  19.322  0.00  0.00    +0.000 S 
ENDROOT
BRANCH   5   7
ATOM      7  C   UNL     1       0.341  11.610  20.342  0.00  0.00    +0.000 C 
ATOM      8  C   UNL     1      -1.180  11.647  20.056  0.00  0.00    +0.000 C 
ATOM      9  C   UNL     1       1.204  12.155  19.206  0.00  0.00    +0.000 C 
ATOM     10  S   UNL     1       0.960  13.879  18.954  0.00  0.00    +0.000 S 
ATOM     11  O   UNL     1      -0.387  14.088  18.458  0.00  0.00    +0.000 OA
ATOM     12  O   UNL     1       2.093  14.355  18.191  0.00  0.00    +0.000 OA
ATOM     13  N   UNL     1       1.047  14.459  20.527  0.00  0.00    +0.000 N 
ATOM     14  C   UNL     1       1.991  15.567  20.781  0.00  0.00    +0.000 C 
ATOM     15  C   UNL     1       0.457  13.766  21.575  0.00  0.00    +0.000 C 
ATOM     16  N   UNL     1      -0.073  14.377  22.569  0.00  0.00    +0.000 NA
ATOM     17  N   UNL     1       0.553  12.422  21.540  0.00  0.00    +0.000 N 
ATOM     18  H   UNL     1      -0.073  15.379  22.358  0.00  0.00    +0.000 HD
ATOM     19  H   UNL     1       0.113  12.023  22.369  0.00  0.00    +0.000 HD
ENDBRANCH   5   7
BRANCH   1  22
ATOM     20  C   UNL     1       3.622   5.350  18.129  0.00  0.00    +0.000 A 
ATOM     21  C   UNL     1       3.047   6.551  18.545  0.00  0.00    +0.000 A 
ATOM     22  C   UNL     1       2.270   6.570  19.710  0.00  0.00    +0.000 A 
ATOM     23  C   UNL     1       2.109   5.364  20.405  0.00  0.00    +0.000 A 
ATOM     24  C   UNL     1       2.719   4.220  19.926  0.00  0.00    +0.000 A 
ATOM     25  N   UNL     1       3.468   4.188  18.810  0.00  0.00    +0.000 NA
BRANCH  20  30
ATOM     26  C   UNL     1       6.209   4.078  14.136  0.00  0.00    +0.000 C 
ATOM     27  C   UNL     1       5.568   4.850  15.216  0.00  0.00    +0.000 A 
ATOM     28  N   UNL     1       5.596   6.186  15.254  0.00  0.00    +0.000 NA
ATOM     29  O   UNL     1       4.848   6.485  16.396  0.00  0.00    +0.000 OA
ATOM     30  C   UNL     1       4.447   5.288  16.927  0.00  0.00    +0.000 A 
ATOM     31  N   UNL     1       4.874   4.250  16.236  0.00  0.00    +0.000 NA
ENDBRANCH  20  30
ENDBRANCH   1  22
TORSDOF 3
ENDMDL
MODEL 6
REMARK VINA RESULT:      -8.9      1.400      1.624
REMARK  Name = 
REMARK  6 active torsions:
REMARK  status: ('A' for Active; 'I' for Inactive)
REMARK    1  A    between atoms: C_1  and  C_2
REMARK    2  A    between atoms: C_5  and  C_6
REMARK    3  A    between atoms: C_8  and  C_9
REMARK    4  A    between atoms: C_13  and  C_14
REMARK    5  A    between atoms: C_14  and  C_15
REMARK    6  A    between atoms: N_20  and  C_21
REMARK                            x       y       z     vdW  Elec       q    Type
REMARK                         _______ _______ _______ _____ _____    ______ ____
ROOT
ATOM      1  C   UNL     1       1.904   7.166  20.067  0.00  0.00    +0.000 A 
ATOM      2  C   UNL     1       1.156   7.370  21.209  0.00  0.00    +0.000 A 
ATOM      3  C   UNL     1       0.591   8.674  21.292  0.00  0.00    +0.000 A 
ATOM      4 CL   UNL     1      -0.380   9.092  22.641  0.00  0.00    +0.000 Cl
ATOM      5  C   UNL     1       0.916   9.474  20.209  0.00  0.00    +0.000 A 
ATOM      6  S   UNL     1       1.909   8.585  19.106  0.00  0.00    +0.000 S 
ENDROOT
BRANCH   5   7
ATOM      7  C   UNL     1       0.511  10.944  19.904  0.00  0.00    +0.000 C 
ATOM      8  C   UNL     1       1.066  11.304  18.504  0.00  0.00    +0.000 C 
ATOM      9  C   UNL     1       1.059  11.810  21.035  0.00  0.00    +0.000 C 
ATOM     10  S   UNL     1       0.542  13.486  20.899  0.00  0.00    +0.000 S 
ATOM     11  O   UNL     1       1.162  14.068  19.725  0.00  0.00    +0.000 OA
ATOM     12  O   UNL     1       0.742  14.092  22.198  0.00  0.00    +0.000 OA
ATOM     13  N   UNL     1      -1.100  13.303  20.602  0.00  0.00    +0.000 N 
ATOM     14  C   UNL     1      -2.027  14.051  21.476  0.00  0.00    +0.000 C 
ATOM     15  C   UNL     1      -1.563  12.306  19.753  0.00  0.00    +0.000 C 
ATOM     16  N   UNL     1      -2.588  12.486  19.004  0.00  0.00    +0.000 NA
ATOM     17  N   UNL     1      -0.940  11.113  19.826  0.00  0.00    +0.000 N 
ATOM     18  H   UNL     1      -2.863  13.470  19.079  0.00  0.00    +0.000 HD
ATOM     19  H   UNL     1      -1.380  10.455  19.184  0.00  0.00    +0.000 HD
ENDBRANCH   5   7
BRANCH   1  22
ATOM     20  C   UNL     1       4.251   4.729  18.368  0.00  0.00    +0.000 A 
ATOM     21  C   UNL     1       3.615   5.930  18.682  0.00  0.00    +0.000 A 
ATOM     22  C   UNL     1       2.604   5.935  19.650  0.00  0.00    +0.000 A 
ATOM     23  C   UNL     1       2.279   4.717  20.260  0.00  0.00    +0.000 A 
ATOM     24  C   UNL     1       2.963   3.573  19.894  0.00  0.00    +0.000 A 
ATOM     25  N   UNL     1       3.936   3.553  18.967  0.00  0.00    +0.000 NA
BRANCH  20  30
ATOM     26  C   UNL     1       7.042   4.743  14.311  0.00  0.00    +0.000 C 
ATOM     27  C   UNL     1       6.587   4.669  15.710  0.00  0.00    +0.000 A 
ATOM     28  N   UNL     1       7.440   4.565  16.736  0.00  0.00    +0.000 NA
ATOM     29  O   UNL     1       6.596   4.571  17.850  0.00  0.00    +0.000 OA
ATOM     30  C   UNL     1       5.317   4.679  17.373  0.00  0.00    +0.000 A 
ATOM     31  N   UNL     1       5.261   4.736  16.058  0.00  0.00    +0.000 NA
ENDBRANCH  20  30
ENDBRANCH   1  22
TORSDOF 3
ENDMDL
MODEL 7
REMARK VINA RESULT:      -8.8      2.271      3.061
REMARK  Name = 
REMARK  6 active torsions:
REMARK  status: ('A' for Active; 'I' for Inactive)
REMARK    1  A    between atoms: C_1  and  C_2
REMARK    2  A    between atoms: C_5  and  C_6
REMARK    3  A    between atoms: C_8  and  C_9
REMARK    4  A    between atoms: C_13  and  C_14
REMARK    5  A    between atoms: C_14  and  C_15
REMARK    6  A    between atoms: N_20  and  C_21
REMARK                            x       y       z     vdW  Elec       q    Type
REMARK                         _______ _______ _______ _____ _____    ______ ____
ROOT
ATOM      1  C   UNL     1       1.517   7.522  20.569  0.00  0.00    +0.000 A 
ATOM      2  C   UNL     1       0.803   7.816  21.713  0.00  0.00    +0.000 A 
ATOM      3  C   UNL     1       0.334   9.159  21.761  0.00  0.00    +0.000 A 
ATOM      4 CL   UNL     1      -0.584   9.689  23.108  0.00  0.00    +0.000 Cl
ATOM      5  C   UNL     1       0.699   9.898  20.647  0.00  0.00    +0.000 A 
ATOM      6  S   UNL     1       1.608   8.905  19.561  0.00  0.00    +0.000 S 
ENDROOT
BRANCH   5   7
ATOM      7  C   UNL     1       0.395  11.383  20.299  0.00  0.00    +0.000 C 
ATOM      8  C   UNL     1      -1.129  11.507  20.058  0.00  0.00    +0.000 C 
ATOM      9  C   UNL     1       1.251  11.750  19.088  0.00  0.00    +0.000 C 
ATOM     10  S   UNL     1       1.122  13.455  18.676  0.00  0.00    +0.000 S 
ATOM     11  O   UNL     1      -0.224  13.717  18.204  0.00  0.00    +0.000 OA
ATOM     12  O   UNL     1       2.257  13.769  17.835  0.00  0.00    +0.000 OA
ATOM     13  N   UNL     1       1.311  14.175  20.180  0.00  0.00    +0.000 N 
ATOM     14  C   UNL     1       2.341  15.228  20.295  0.00  0.00    +0.000 C 
ATOM     15  C   UNL     1       0.713  13.631  21.310  0.00  0.00    +0.000 C 
ATOM     16  N   UNL     1       0.267  14.374  22.255  0.00  0.00    +0.000 NA
ATOM     17  N   UNL     1       0.711  12.287  21.404  0.00  0.00    +0.000 N 
ATOM     18  H   UNL     1       0.331  15.348  21.947  0.00  0.00    +0.000 HD
ATOM     19  H   UNL     1       0.275  12.004  22.281  0.00  0.00    +0.000 HD
ENDBRANCH   5   7
BRANCH   1  22
ATOM     20  C   UNL     1       3.795   4.881  19.095  0.00  0.00    +0.000 A 
ATOM     21  C   UNL     1       3.267   6.139  19.386  0.00  0.00    +0.000 A 
ATOM     22  C   UNL     1       2.120   6.231  20.184  0.00  0.00    +0.000 A 
ATOM     23  C   UNL     1       1.554   5.038  20.652  0.00  0.00    +0.000 A 
ATOM     24  C   UNL     1       2.145   3.833  20.321  0.00  0.00    +0.000 A 
ATOM     25  N   UNL     1       3.246   3.730  19.557  0.00  0.00    +0.000 NA
BRANCH  20  30
ATOM     26  C   UNL     1       7.173   4.649  15.519  0.00  0.00    +0.000 C 
ATOM     27  C   UNL     1       6.502   4.618  16.831  0.00  0.00    +0.000 A 
ATOM     28  N   UNL     1       7.174   4.446  17.975  0.00  0.00    +0.000 NA
ATOM     29  O   UNL     1       6.170   4.526  18.945  0.00  0.00    +0.000 OA
ATOM     30  C   UNL     1       4.995   4.740  18.276  0.00  0.00    +0.000 A 
ATOM     31  N   UNL     1       5.149   4.797  16.969  0.00  0.00    +0.000 NA
ENDBRANCH  20  30
ENDBRANCH   1  22
TORSDOF 3
ENDMDL
MODEL 8
REMARK VINA RESULT:      -8.7      1.375      1.592
REMARK  Name = 
REMARK  6 active torsions:
REMARK  status: ('A' for Active; 'I' for Inactive)
REMARK    1  A    between atoms: C_1  and  C_2
REMARK    2  A    between atoms: C_5  and  C_6
REMARK    3  A    between atoms: C_8  and  C_9
REMARK    4  A    between atoms: C_13  and  C_14
REMARK    5  A    between atoms: C_14  and  C_15
REMARK    6  A    between atoms: N_20  and  C_21
REMARK                            x       y       z     vdW  Elec       q    Type
REMARK                         _______ _______ _______ _____ _____    ______ ____
ROOT
ATOM      1  C   UNL     1       1.924   7.490  20.014  0.00  0.00    +0.000 A 
ATOM      2  C   UNL     1       1.542   7.764  21.311  0.00  0.00    +0.000 A 
ATOM      3  C   UNL     1       0.829   8.988  21.446  0.00  0.00    +0.000 A 
ATOM      4 CL   UNL     1       0.266   9.476  22.990  0.00  0.00    +0.000 Cl
ATOM      5  C   UNL     1       0.672   9.657  20.243  0.00  0.00    +0.000 A 
ATOM      6  S   UNL     1       1.405   8.745  18.969  0.00  0.00    +0.000 S 
ENDROOT
BRANCH   5   7
ATOM      7  C   UNL     1      -0.038  11.008  19.944  0.00  0.00    +0.000 C 
ATOM      8  C   UNL     1       0.983  11.929  19.233  0.00  0.00    +0.000 C 
ATOM      9  C   UNL     1      -0.552  11.555  21.275  0.00  0.00    +0.000 C 
ATOM     10  S   UNL     1      -1.514  13.013  21.067  0.00  0.00    +0.000 S 
ATOM     11  O   UNL     1      -0.647  14.077  20.600  0.00  0.00    +0.000 OA
ATOM     12  O   UNL     1      -2.280  13.185  22.282  0.00  0.00    +0.000 OA
ATOM     13  N   UNL     1      -2.532  12.561  19.811  0.00  0.00    +0.000 N 
ATOM     14  C   UNL     1      -3.983  12.742  20.025  0.00  0.00    +0.000 C 
ATOM     15  C   UNL     1      -2.053  11.822  18.737  0.00  0.00    +0.000 C 
ATOM     16  N   UNL     1      -2.504  11.995  17.550  0.00  0.00    +0.000 NA
ATOM     17  N   UNL     1      -1.162  10.852  19.022  0.00  0.00    +0.000 N 
ATOM     18  H   UNL     1      -3.128  12.806  17.566  0.00  0.00    +0.000 HD
ATOM     19  H   UNL     1      -0.904  10.359  18.167  0.00  0.00    +0.000 HD
ENDBRANCH   5   7
BRANCH   1  22
ATOM     20  C   UNL     1       4.028   5.147  17.910  0.00  0.00    +0.000 A 
ATOM     21  C   UNL     1       3.339   6.297  18.296  0.00  0.00    +0.000 A 
ATOM     22  C   UNL     1       2.649   6.305  19.514  0.00  0.00    +0.000 A 
ATOM     23  C   UNL     1       2.686   5.140  20.292  0.00  0.00    +0.000 A 
ATOM     24  C   UNL     1       3.399   4.046  19.838  0.00  0.00    +0.000 A 
ATOM     25  N   UNL     1       4.066   4.024  18.671  0.00  0.00    +0.000 NA
BRANCH  20  30
ATOM     26  C   UNL     1       6.229   3.945  13.672  0.00  0.00    +0.000 C 
ATOM     27  C   UNL     1       5.735   4.689  14.845  0.00  0.00    +0.000 A 
ATOM     28  N   UNL     1       5.899   6.010  14.976  0.00  0.00    +0.000 NA
ATOM     29  O   UNL     1       5.255   6.289  16.184  0.00  0.00    +0.000 OA
ATOM     30  C   UNL     1       4.769   5.099  16.654  0.00  0.00    +0.000 A 
ATOM     31  N   UNL     1       5.046   4.081  15.864  0.00  0.00    +0.000 NA
ENDBRANCH  20  30
ENDBRANCH   1  22
TORSDOF 3
ENDMDL
MODEL 9
REMARK VINA RESULT:      -8.6      2.624      3.627
REMARK  Name = 
REMARK  6 active torsions:
REMARK  status: ('A' for Active; 'I' for Inactive)
REMARK    1  A    between atoms: C_1  and  C_2
REMARK    2  A    between atoms: C_5  and  C_6
REMARK    3  A    between atoms: C_8  and  C_9
REMARK    4  A    between atoms: C_13  and  C_14
REMARK    5  A    between atoms: C_14  and  C_15
REMARK    6  A    between atoms: N_20  and  C_21
REMARK                            x       y       z     vdW  Elec       q    Type
REMARK                         _______ _______ _______ _____ _____    ______ ____
ROOT
ATOM      1  C   UNL     1       1.307   8.860  19.794  0.00  0.00    +0.000 A 
ATOM      2  C   UNL     1       1.318   9.990  19.002  0.00  0.00    +0.000 A 
ATOM      3  C   UNL     1       0.560  11.068  19.539  0.00  0.00    +0.000 A 
ATOM      4 CL   UNL     1       0.479  12.554  18.689  0.00  0.00    +0.000 Cl
ATOM      5  C   UNL     1      -0.040  10.755  20.748  0.00  0.00    +0.000 A 
ATOM      6  S   UNL     1       0.358   9.132  21.194  0.00  0.00    +0.000 S 
ENDROOT
BRANCH   5   7
ATOM      7  C   UNL     1      -0.940  11.632  21.665  0.00  0.00    +0.000 C 
ATOM      8  C   UNL     1      -1.116  10.882  23.008  0.00  0.00    +0.000 C 
ATOM      9  C   UNL     1      -2.247  11.882  20.914  0.00  0.00    +0.000 C 
ATOM     10  S   UNL     1      -3.306  12.992  21.774  0.00  0.00    +0.000 S 
ATOM     11  O   UNL     1      -3.758  12.351  22.993  0.00  0.00    +0.000 OA
ATOM     12  O   UNL     1      -4.270  13.479  20.812  0.00  0.00    +0.000 OA
ATOM     13  N   UNL     1      -2.236  14.221  22.180  0.00  0.00    +0.000 N 
ATOM     14  C   UNL     1      -2.622  15.597  21.805  0.00  0.00    +0.000 C 
ATOM     15  C   UNL     1      -0.948  13.930  22.611  0.00  0.00    +0.000 C 
ATOM     16  N   UNL     1      -0.359  14.649  23.494  0.00  0.00    +0.000 NA
ATOM     17  N   UNL     1      -0.318  12.915  21.989  0.00  0.00    +0.000 N 
ATOM     18  H   UNL     1      -1.039  15.324  23.855  0.00  0.00    +0.000 HD
ATOM     19  H   UNL     1       0.624  12.812  22.365  0.00  0.00    +0.000 HD
ENDBRANCH   5   7
BRANCH   1  22
ATOM     20  C   UNL     1       3.452   6.123  18.293  0.00  0.00    +0.000 A 
ATOM     21  C   UNL     1       2.801   7.350  18.428  0.00  0.00    +0.000 A 
ATOM     22  C   UNL     1       2.002   7.580  19.555  0.00  0.00    +0.000 A 
ATOM     23  C   UNL     1       1.897   6.551  20.500  0.00  0.00    +0.000 A 
ATOM     24  C   UNL     1       2.581   5.368  20.292  0.00  0.00    +0.000 A 
ATOM     25  N   UNL     1       3.351   5.134  19.216  0.00  0.00    +0.000 NA
BRANCH  20  30
ATOM     26  C   UNL     1       6.101   4.153  14.639  0.00  0.00    +0.000 C 
ATOM     27  C   UNL     1       5.452   5.107  15.557  0.00  0.00    +0.000 A 
ATOM     28  N   UNL     1       5.505   6.430  15.370  0.00  0.00    +0.000 NA
ATOM     29  O   UNL     1       4.738   6.929  16.426  0.00  0.00    +0.000 OA
ATOM     30  C   UNL     1       4.302   5.846  17.140  0.00  0.00    +0.000 A 
ATOM     31  N   UNL     1       4.723   4.699  16.646  0.00  0.00    +0.000 NA
ENDBRANCH  20  30
ENDBRANCH   1  22
TORSDOF 3
ENDMDL
