MODEL 1
REMARK VINA RESULT:      -8.3      0.000      0.000
REMARK  Name = 
REMARK  9 active torsions:
REMARK  status: ('A' for Active; 'I' for Inactive)
REMARK    1  A    between atoms: C_1  and  O_2
REMARK    2  A    between atoms: O_2  and  C_3
REMARK    3  A    between atoms: C_5  and  N_6
REMARK    4  A    between atoms: N_6  and  C_7
REMARK    5  A    between atoms: C_7  and  C_8
REMARK    6  A    between atoms: C_7  and  C_9
REMARK    7  A    between atoms: C_9  and  C_10
REMARK    8  A    between atoms: C_9  and  C_18
REMARK    9  A    between atoms: C_10  and  C_11
REMARK                            x       y       z     vdW  Elec       q    Type
REMARK                         _______ _______ _______ _____ _____    ______ ____
ROOT
ATOM      1  C   UNL     1       4.566   5.570  18.197  0.00  0.00    +0.000 C 
ENDROOT
BRANCH   1   2
ATOM      2  C   UNL     1       3.657   4.340  18.401  0.00  0.00    +0.000 A 
ATOM      3  C   UNL     1       3.251   3.500  17.348  0.00  0.00    +0.000 A 
ATOM      4  C   UNL     1       2.476   2.361  17.574  0.00  0.00    +0.000 A 
ATOM      5  C   UNL     1       2.013   2.078  18.853  0.00  0.00    +0.000 A 
ATOM      6  C   UNL     1       2.340   2.933  19.898  0.00  0.00    +0.000 A 
ATOM      7 BR   UNL     1       1.605   2.628  21.613  0.00  0.00    +0.000 Br
ATOM      8  C   UNL     1       3.180   4.032  19.689  0.00  0.00    +0.000 A 
ENDBRANCH   1   2
BRANCH   1   9
ATOM      9  C   UNL     1       5.992   5.251  17.616  0.00  0.00    +0.000 C 
ATOM     10  C   UNL     1       7.130   5.658  18.570  0.00  0.00    +0.000 C 
BRANCH   9  11
ATOM     11  N   UNL     1       6.219   5.938  16.343  0.00  0.00    +0.000 N 
ATOM     12  H   UNL     1       6.744   6.810  16.358  0.00  0.00    +0.000 HD
BRANCH  11  15
ATOM     13  C   UNL     1       5.758   3.982  13.301  0.00  0.00    +0.000 A 
ATOM     14  C   UNL     1       5.446   4.514  14.529  0.00  0.00    +0.000 A 
ATOM     15  C   UNL     1       6.407   5.283  15.146  0.00  0.00    +0.000 A 
ATOM     16  N   UNL     1       7.596   5.499  14.561  0.00  0.00    +0.000 NA
ATOM     17  C   UNL     1       7.795   4.938  13.355  0.00  0.00    +0.000 A 
ATOM     18  N   UNL     1       6.928   4.171  12.681  0.00  0.00    +0.000 NA
BRANCH  13  20
ATOM     19  C   UNL     1       5.164   2.629  11.481  0.00  0.00    +0.000 C 
ATOM     20  O   UNL     1       4.772   3.206  12.719  0.00  0.00    +0.000 OA
ENDBRANCH  13  20
ENDBRANCH  11  15
ENDBRANCH   9  11
ENDBRANCH   1   9
BRANCH   1  21
ATOM     21  C   UNL     1       3.829   6.697  17.397  0.00  0.00    +0.000 C 
BRANCH  21  22
ATOM     22  C   UNL     1       2.906   7.575  18.212  0.00  0.00    +0.000 A 
ATOM     23  C   UNL     1       2.604   7.254  19.544  0.00  0.00    +0.000 A 
ATOM     24  C   UNL     1       1.670   8.003  20.262  0.00  0.00    +0.000 A 
ATOM     25  C   UNL     1       1.054   9.094  19.660  0.00  0.00    +0.000 A 
ATOM     26 CL   UNL     1      -0.141   9.983  20.521  0.00  0.00    +0.000 Cl
ATOM     27  C   UNL     1       1.386   9.462  18.359  0.00  0.00    +0.000 A 
ATOM     28  C   UNL     1       2.315   8.707  17.640  0.00  0.00    +0.000 A 
ENDBRANCH  21  22
ENDBRANCH   1  21
TORSDOF 7
ENDMDL
MODEL 2
REMARK VINA RESULT:      -8.1      0.403      1.010
REMARK  Name = 
REMARK  9 active torsions:
REMARK  status: ('A' for Active; 'I' for Inactive)
REMARK    1  A    between atoms: C_1  and  O_2
REMARK    2  A    between atoms: O_2  and  C_3
REMARK    3  A    between atoms: C_5  and  N_6
REMARK    4  A    between atoms: N_6  and  C_7
REMARK    5  A    between atoms: C_7  and  C_8
REMARK    6  A    between atoms: C_7  and  C_9
REMARK    7  A    between atoms: C_9  and  C_10
REMARK    8  A    between atoms: C_9  and  C_18
REMARK    9  A    between atoms: C_10  and  C_11
REMARK                            x       y       z     vdW  Elec       q    Type
REMARK                         _______ _______ _______ _____ _____    ______ ____
ROOT
ATOM      1  C   UNL     1       4.277   5.670  18.058  0.00  0.00    +0.000 C 
ENDROOT
BRANCH   1   2
ATOM      2  C   UNL     1       3.482   4.368  18.291  0.00  0.00    +0.000 A 
ATOM      3  C   UNL     1       3.139   3.479  17.256  0.00  0.00    +0.000 A 
ATOM      4  C   UNL     1       2.470   2.280  17.510  0.00  0.00    +0.000 A 
ATOM      5  C   UNL     1       2.048   1.979  18.798  0.00  0.00    +0.000 A 
ATOM      6  C   UNL     1       2.311   2.876  19.827  0.00  0.00    +0.000 A 
ATOM      7 BR   UNL     1       1.625   2.534  21.555  0.00  0.00    +0.000 Br
ATOM      8  C   UNL     1       3.049   4.040  19.590  0.00  0.00    +0.000 A 
ENDBRANCH   1   2
BRANCH   1   9
ATOM      9  C   UNL     1       5.669   5.477  17.352  0.00  0.00    +0.000 C 
ATOM     10  C   UNL     1       6.820   6.171  18.104  0.00  0.00    +0.000 C 
BRANCH   9  11
ATOM     11  N   UNL     1       5.657   6.005  15.987  0.00  0.00    +0.000 N 
ATOM     12  H   UNL     1       5.844   6.998  15.856  0.00  0.00    +0.000 HD
BRANCH  11  15
ATOM     13  C   UNL     1       5.801   3.873  13.033  0.00  0.00    +0.000 A 
ATOM     14  C   UNL     1       5.256   4.467  14.145  0.00  0.00    +0.000 A 
ATOM     15  C   UNL     1       6.076   5.288  14.888  0.00  0.00    +0.000 A 
ATOM     16  N   UNL     1       7.352   5.494  14.527  0.00  0.00    +0.000 NA
ATOM     17  C   UNL     1       7.782   4.869  13.416  0.00  0.00    +0.000 A 
ATOM     18  N   UNL     1       7.067   4.050  12.636  0.00  0.00    +0.000 NA
BRANCH  13  20
ATOM     19  C   UNL     1       5.632   2.088  11.521  0.00  0.00    +0.000 C 
ATOM     20  O   UNL     1       4.951   3.047  12.320  0.00  0.00    +0.000 OA
ENDBRANCH  13  20
ENDBRANCH  11  15
ENDBRANCH   9  11
ENDBRANCH   1   9
BRANCH   1  21
ATOM     21  C   UNL     1       3.394   6.759  17.359  0.00  0.00    +0.000 C 
BRANCH  21  22
ATOM     22  C   UNL     1       2.522   7.579  18.283  0.00  0.00    +0.000 A 
ATOM     23  C   UNL     1       1.873   8.732  17.818  0.00  0.00    +0.000 A 
ATOM     24  C   UNL     1       1.157   9.548  18.695  0.00  0.00    +0.000 A 
ATOM     25  C   UNL     1       1.063   9.199  20.038  0.00  0.00    +0.000 A 
ATOM     26 CL   UNL     1       0.230  10.233  21.132  0.00  0.00    +0.000 Cl
ATOM     27  C   UNL     1       1.651   8.027  20.504  0.00  0.00    +0.000 A 
ATOM     28  C   UNL     1       2.374   7.216  19.627  0.00  0.00    +0.000 A 
ENDBRANCH  21  22
ENDBRANCH   1  21
TORSDOF 7
ENDMDL
MODEL 3
REMARK VINA RESULT:      -7.7      2.336      3.612
REMARK  Name = 
REMARK  9 active torsions:
REMARK  status: ('A' for Active; 'I' for Inactive)
REMARK    1  A    between atoms: C_1  and  O_2
REMARK    2  A    between atoms: O_2  and  C_3
REMARK    3  A    between atoms: C_5  and  N_6
REMARK    4  A    between atoms: N_6  and  C_7
REMARK    5  A    between atoms: C_7  and  C_8
REMARK    6  A    between atoms: C_7  and  C_9
REMARK    7  A    between atoms: C_9  and  C_10
REMARK    8  A    between atoms: C_9  and  C_18
REMARK    9  A    between atoms: C_10  and  C_11
REMARK                            x       y       z     vdW  Elec       q    Type
REMARK                         _______ _______ _______ _____ _____    ______ ____
ROOT
ATOM      1  C   UNL     1       4.361   5.491  17.456  0.00  0.00    +0.000 C 
ENDROOT
BRANCH   1   2
ATOM      2  C   UNL     1       5.729   5.935  18.014  0.00  0.00    +0.000 A 
ATOM      3  C   UNL     1       6.440   5.203  18.983  0.00  0.00    +0.000 A 
ATOM      4  C   UNL     1       7.703   5.602  19.424  0.00  0.00    +0.000 A 
ATOM      5  C   UNL     1       8.253   6.794  18.970  0.00  0.00    +0.000 A 
ATOM      6  C   UNL     1       7.538   7.572  18.067  0.00  0.00    +0.000 A 
ATOM      7 BR   UNL     1       8.222   9.257  17.548  0.00  0.00    +0.000 Br
ATOM      8  C   UNL     1       6.308   7.137  17.565  0.00  0.00    +0.000 A 
ENDBRANCH   1   2
BRANCH   1   9
ATOM      9  C   UNL     1       4.372   4.115  16.693  0.00  0.00    +0.000 C 
ATOM     10  C   UNL     1       3.833   2.954  17.549  0.00  0.00    +0.000 C 
BRANCH   9  11
ATOM     11  N   UNL     1       5.723   3.752  16.261  0.00  0.00    +0.000 N 
ATOM     12  H   UNL     1       6.150   2.925  16.674  0.00  0.00    +0.000 HD
BRANCH  11  15
ATOM     13  C   UNL     1       6.151   3.761  12.640  0.00  0.00    +0.000 A 
ATOM     14  C   UNL     1       5.607   3.416  13.854  0.00  0.00    +0.000 A 
ATOM     15  C   UNL     1       6.193   3.949  14.982  0.00  0.00    +0.000 A 
ATOM     16  N   UNL     1       7.249   4.772  14.885  0.00  0.00    +0.000 NA
ATOM     17  C   UNL     1       7.696   5.051  13.647  0.00  0.00    +0.000 A 
ATOM     18  N   UNL     1       7.201   4.578  12.496  0.00  0.00    +0.000 NA
BRANCH  13  20
ATOM     19  C   UNL     1       5.783   1.802  11.406  0.00  0.00    +0.000 C 
ATOM     20  O   UNL     1       5.543   3.198  11.533  0.00  0.00    +0.000 OA
ENDBRANCH  13  20
ENDBRANCH  11  15
ENDBRANCH   9  11
ENDBRANCH   1   9
BRANCH   1  21
ATOM     21  C   UNL     1       3.248   5.560  18.555  0.00  0.00    +0.000 C 
BRANCH  21  22
ATOM     22  C   UNL     1       2.629   6.923  18.769  0.00  0.00    +0.000 A 
ATOM     23  C   UNL     1       2.093   7.278  20.016  0.00  0.00    +0.000 A 
ATOM     24  C   UNL     1       1.427   8.493  20.183  0.00  0.00    +0.000 A 
ATOM     25  C   UNL     1       1.318   9.372  19.111  0.00  0.00    +0.000 A 
ATOM     26 CL   UNL     1       0.447  10.843  19.299  0.00  0.00    +0.000 Cl
ATOM     27  C   UNL     1       1.895   9.061  17.883  0.00  0.00    +0.000 A 
ATOM     28  C   UNL     1       2.555   7.842  17.715  0.00  0.00    +0.000 A 
ENDBRANCH  21  22
ENDBRANCH   1  21
TORSDOF 7
ENDMDL
MODEL 4
REMARK VINA RESULT:      -7.3      2.521      3.895
REMARK  Name = 
REMARK  9 active torsions:
REMARK  status: ('A' for Active; 'I' for Inactive)
REMARK    1  A    between atoms: C_1  and  O_2
REMARK    2  A    between atoms: O_2  and  C_3
REMARK    3  A    between atoms: C_5  and  N_6
REMARK    4  A    between atoms: N_6  and  C_7
REMARK    5  A    between atoms: C_7  and  C_8
REMARK    6  A    between atoms: C_7  and  C_9
REMARK    7  A    between atoms: C_9  and  C_10
REMARK    8  A    between atoms: C_9  and  C_18
REMARK    9  A    between atoms: C_10  and  C_11
REMARK                            x       y       z     vdW  Elec       q    Type
REMARK                         _______ _______ _______ _____ _____    ______ ____
ROOT
ATOM      1  C   UNL     1       4.253   5.477  17.415  0.00  0.00    +0.000 C 
ENDROOT
BRANCH   1   2
ATOM      2  C   UNL     1       5.635   5.886  17.966  0.00  0.00    +0.000 A 
ATOM      3  C   UNL     1       6.350   5.116  18.902  0.00  0.00    +0.000 A 
ATOM      4  C   UNL     1       7.625   5.485  19.336  0.00  0.00    +0.000 A 
ATOM      5  C   UNL     1       8.185   6.682  18.910  0.00  0.00    +0.000 A 
ATOM      6  C   UNL     1       7.468   7.496  18.041  0.00  0.00    +0.000 A 
ATOM      7 BR   UNL     1       8.167   9.187  17.562  0.00  0.00    +0.000 Br
ATOM      8  C   UNL     1       6.224   7.093  17.544  0.00  0.00    +0.000 A 
ENDBRANCH   1   2
BRANCH   1   9
ATOM      9  C   UNL     1       4.227   4.108  16.642  0.00  0.00    +0.000 C 
ATOM     10  C   UNL     1       3.681   2.950  17.497  0.00  0.00    +0.000 C 
BRANCH   9  11
ATOM     11  N   UNL     1       5.564   3.724  16.186  0.00  0.00    +0.000 N 
ATOM     12  H   UNL     1       5.956   2.851  16.535  0.00  0.00    +0.000 HD
BRANCH  11  15
ATOM     13  C   UNL     1       7.529   4.955  13.371  0.00  0.00    +0.000 A 
ATOM     14  C   UNL     1       7.115   4.835  14.677  0.00  0.00    +0.000 A 
ATOM     15  C   UNL     1       6.049   3.999  14.926  0.00  0.00    +0.000 A 
ATOM     16  N   UNL     1       5.449   3.333  13.928  0.00  0.00    +0.000 NA
ATOM     17  C   UNL     1       5.939   3.516  12.688  0.00  0.00    +0.000 A 
ATOM     18  N   UNL     1       6.961   4.309  12.346  0.00  0.00    +0.000 NA
BRANCH  13  20
ATOM     19  C   UNL     1       8.547   6.470  11.901  0.00  0.00    +0.000 C 
ATOM     20  O   UNL     1       8.593   5.812  13.160  0.00  0.00    +0.000 OA
ENDBRANCH  13  20
ENDBRANCH  11  15
ENDBRANCH   9  11
ENDBRANCH   1   9
BRANCH   1  21
ATOM     21  C   UNL     1       3.151   5.563  18.524  0.00  0.00    +0.000 C 
BRANCH  21  22
ATOM     22  C   UNL     1       2.556   6.936  18.745  0.00  0.00    +0.000 A 
ATOM     23  C   UNL     1       2.080   7.315  20.009  0.00  0.00    +0.000 A 
ATOM     24  C   UNL     1       1.434   8.538  20.188  0.00  0.00    +0.000 A 
ATOM     25  C   UNL     1       1.286   9.403  19.109  0.00  0.00    +0.000 A 
ATOM     26 CL   UNL     1       0.439  10.886  19.313  0.00  0.00    +0.000 Cl
ATOM     27  C   UNL     1       1.804   9.068  17.861  0.00  0.00    +0.000 A 
ATOM     28  C   UNL     1       2.444   7.840  17.682  0.00  0.00    +0.000 A 
ENDBRANCH  21  22
ENDBRANCH   1  21
TORSDOF 7
ENDMDL
MODEL 5
REMARK VINA RESULT:      -7.3      6.784     10.652
REMARK  Name = 
REMARK  9 active torsions:
REMARK  status: ('A' for Active; 'I' for Inactive)
REMARK    1  A    between atoms: C_1  and  O_2
REMARK    2  A    between atoms: O_2  and  C_3
REMARK    3  A    between atoms: C_5  and  N_6
REMARK    4  A    between atoms: N_6  and  C_7
REMARK    5  A    between atoms: C_7  and  C_8
REMARK    6  A    between atoms: C_7  and  C_9
REMARK    7  A    between atoms: C_9  and  C_10
REMARK    8  A    between atoms: C_9  and  C_18
REMARK    9  A    between atoms: C_10  and  C_11
REMARK                            x       y       z     vdW  Elec       q    Type
REMARK                         _______ _______ _______ _____ _____    ______ ____
ROOT
ATOM      1  C   UNL     1       0.120  11.092  19.055  0.00  0.00    +0.000 C 
ENDROOT
BRANCH   1   2
ATOM      2  C   UNL     1      -1.289  10.895  18.459  0.00  0.00    +0.000 A 
ATOM      3  C   UNL     1      -1.550  10.062  17.356  0.00  0.00    +0.000 A 
ATOM      4  C   UNL     1      -2.847   9.861  16.878  0.00  0.00    +0.000 A 
ATOM      5  C   UNL     1      -3.910  10.557  17.438  0.00  0.00    +0.000 A 
ATOM      6  C   UNL     1      -3.668  11.441  18.483  0.00  0.00    +0.000 A 
ATOM      7 BR   UNL     1      -5.089  12.489  19.161  0.00  0.00    +0.000 Br
ATOM      8  C   UNL     1      -2.383  11.587  19.014  0.00  0.00    +0.000 A 
ENDBRANCH   1   2
BRANCH   1   9
ATOM      9  C   UNL     1       0.370  12.498  19.714  0.00  0.00    +0.000 C 
ATOM     10  C   UNL     1       1.640  13.188  19.183  0.00  0.00    +0.000 C 
BRANCH   9  11
ATOM     11  N   UNL     1       0.503  12.393  21.168  0.00  0.00    +0.000 N 
ATOM     12  H   UNL     1       1.434  12.487  21.571  0.00  0.00    +0.000 HD
BRANCH  11  15
ATOM     13  C   UNL     1      -2.370  12.643  23.400  0.00  0.00    +0.000 A 
ATOM     14  C   UNL     1      -1.541  12.091  22.452  0.00  0.00    +0.000 A 
ATOM     15  C   UNL     1      -0.453  12.837  22.056  0.00  0.00    +0.000 A 
ATOM     16  N   UNL     1      -0.220  14.050  22.581  0.00  0.00    +0.000 NA
ATOM     17  C   UNL     1      -1.091  14.492  23.508  0.00  0.00    +0.000 A 
ATOM     18  N   UNL     1      -2.176  13.847  23.952  0.00  0.00    +0.000 NA
BRANCH  13  20
ATOM     19  C   UNL     1      -4.341  12.526  24.664  0.00  0.00    +0.000 C 
ATOM     20  O   UNL     1      -3.457  11.870  23.764  0.00  0.00    +0.000 OA
ENDBRANCH  13  20
ENDBRANCH  11  15
ENDBRANCH   9  11
ENDBRANCH   1   9
BRANCH   1  21
ATOM     21  C   UNL     1       0.509   9.906  20.001  0.00  0.00    +0.000 C 
BRANCH  21  22
ATOM     22  C   UNL     1       1.379   8.837  19.379  0.00  0.00    +0.000 A 
ATOM     23  C   UNL     1       1.706   7.675  20.095  0.00  0.00    +0.000 A 
ATOM     24  C   UNL     1       2.594   6.739  19.563  0.00  0.00    +0.000 A 
ATOM     25  C   UNL     1       3.139   6.947  18.301  0.00  0.00    +0.000 A 
ATOM     26 CL   UNL     1       4.279   5.825  17.668  0.00  0.00    +0.000 Cl
ATOM     27  C   UNL     1       2.779   8.064  17.553  0.00  0.00    +0.000 A 
ATOM     28  C   UNL     1       1.895   9.003  18.089  0.00  0.00    +0.000 A 
ENDBRANCH  21  22
ENDBRANCH   1  21
TORSDOF 7
ENDMDL
MODEL 6
REMARK VINA RESULT:      -7.2      1.200      1.699
REMARK  Name = 
REMARK  9 active torsions:
REMARK  status: ('A' for Active; 'I' for Inactive)
REMARK    1  A    between atoms: C_1  and  O_2
REMARK    2  A    between atoms: O_2  and  C_3
REMARK    3  A    between atoms: C_5  and  N_6
REMARK    4  A    between atoms: N_6  and  C_7
REMARK    5  A    between atoms: C_7  and  C_8
REMARK    6  A    between atoms: C_7  and  C_9
REMARK    7  A    between atoms: C_9  and  C_10
REMARK    8  A    between atoms: C_9  and  C_18
REMARK    9  A    between atoms: C_10  and  C_11
REMARK                            x       y       z     vdW  Elec       q    Type
REMARK                         _______ _______ _______ _____ _____    ______ ____
ROOT
ATOM      1  C   UNL     1       3.531   6.411  18.664  0.00  0.00    +0.000 C 
ENDROOT
BRANCH   1   2
ATOM      2  C   UNL     1       2.671   5.137  18.804  0.00  0.00    +0.000 A 
ATOM      3  C   UNL     1       1.910   4.602  17.748  0.00  0.00    +0.000 A 
ATOM      4  C   UNL     1       1.189   3.414  17.891  0.00  0.00    +0.000 A 
ATOM      5  C   UNL     1       1.140   2.776  19.123  0.00  0.00    +0.000 A 
ATOM      6  C   UNL     1       1.825   3.324  20.201  0.00  0.00    +0.000 A 
ATOM      7 BR   UNL     1       1.655   2.533  21.910  0.00  0.00    +0.000 Br
ATOM      8  C   UNL     1       2.610   4.470  20.042  0.00  0.00    +0.000 A 
ENDBRANCH   1   2
BRANCH   1   9
ATOM      9  C   UNL     1       4.962   6.179  18.054  0.00  0.00    +0.000 C 
ATOM     10  C   UNL     1       5.348   7.249  17.016  0.00  0.00    +0.000 C 
BRANCH   9  11
ATOM     11  N   UNL     1       5.061   4.875  17.397  0.00  0.00    +0.000 N 
ATOM     12  H   UNL     1       4.290   4.220  17.516  0.00  0.00    +0.000 HD
BRANCH  11  15
ATOM     13  C   UNL     1       5.760   4.149  13.893  0.00  0.00    +0.000 A 
ATOM     14  C   UNL     1       5.026   4.227  15.053  0.00  0.00    +0.000 A 
ATOM     15  C   UNL     1       5.676   4.678  16.180  0.00  0.00    +0.000 A 
ATOM     16  N   UNL     1       6.972   5.026  16.135  0.00  0.00    +0.000 NA
ATOM     17  C   UNL     1       7.593   4.919  14.947  0.00  0.00    +0.000 A 
ATOM     18  N   UNL     1       7.051   4.486  13.801  0.00  0.00    +0.000 NA
BRANCH  13  20
ATOM     19  C   UNL     1       5.812   2.730  12.027  0.00  0.00    +0.000 C 
ATOM     20  O   UNL     1       5.076   3.681  12.785  0.00  0.00    +0.000 OA
ENDBRANCH  13  20
ENDBRANCH  11  15
ENDBRANCH   9  11
ENDBRANCH   1   9
BRANCH   1  21
ATOM     21  C   UNL     1       2.744   7.552  17.935  0.00  0.00    +0.000 C 
BRANCH  21  22
ATOM     22  C   UNL     1       1.876   8.414  18.825  0.00  0.00    +0.000 A 
ATOM     23  C   UNL     1       1.253   9.564  18.320  0.00  0.00    +0.000 A 
ATOM     24  C   UNL     1       0.542  10.417  19.165  0.00  0.00    +0.000 A 
ATOM     25  C   UNL     1       0.425  10.108  20.515  0.00  0.00    +0.000 A 
ATOM     26 CL   UNL     1      -0.401  11.187  21.570  0.00  0.00    +0.000 Cl
ATOM     27  C   UNL     1       0.988   8.939  21.022  0.00  0.00    +0.000 A 
ATOM     28  C   UNL     1       1.705   8.091  20.177  0.00  0.00    +0.000 A 
ENDBRANCH  21  22
ENDBRANCH   1  21
TORSDOF 7
ENDMDL
MODEL 7
REMARK VINA RESULT:      -7.2      3.863      6.888
REMARK  Name = 
REMARK  9 active torsions:
REMARK  status: ('A' for Active; 'I' for Inactive)
REMARK    1  A    between atoms: C_1  and  O_2
REMARK    2  A    between atoms: O_2  and  C_3
REMARK    3  A    between atoms: C_5  and  N_6
REMARK    4  A    between atoms: N_6  and  C_7
REMARK    5  A    between atoms: C_7  and  C_8
REMARK    6  A    between atoms: C_7  and  C_9
REMARK    7  A    between atoms: C_9  and  C_10
REMARK    8  A    between atoms: C_9  and  C_18
REMARK    9  A    between atoms: C_10  and  C_11
REMARK                            x       y       z     vdW  Elec       q    Type
REMARK                         _______ _______ _______ _____ _____    ______ ____
ROOT
ATOM      1  C   UNL     1       4.816   4.745  16.577  0.00  0.00    +0.000 C 
ENDROOT
BRANCH   1   2
ATOM      2  C   UNL     1       5.567   4.562  15.241  0.00  0.00    +0.000 A 
ATOM      3  C   UNL     1       6.890   4.994  15.036  0.00  0.00    +0.000 A 
ATOM      4  C   UNL     1       7.560   4.760  13.833  0.00  0.00    +0.000 A 
ATOM      5  C   UNL     1       6.894   4.164  12.771  0.00  0.00    +0.000 A 
ATOM      6  C   UNL     1       5.563   3.793  12.925  0.00  0.00    +0.000 A 
ATOM      7 BR   UNL     1       4.613   3.103  11.443  0.00  0.00    +0.000 Br
ATOM      8  C   UNL     1       4.913   3.955  14.152  0.00  0.00    +0.000 A 
ENDBRANCH   1   2
BRANCH   1   9
ATOM      9  C   UNL     1       4.546   6.240  16.985  0.00  0.00    +0.000 C 
ATOM     10  C   UNL     1       5.839   7.068  17.103  0.00  0.00    +0.000 C 
BRANCH   9  11
ATOM     11  N   UNL     1       3.849   6.329  18.269  0.00  0.00    +0.000 N 
ATOM     12  H   UNL     1       4.358   6.059  19.109  0.00  0.00    +0.000 HD
BRANCH  11  15
ATOM     13  C   UNL     1       1.408   8.457  19.944  0.00  0.00    +0.000 A 
ATOM     14  C   UNL     1       2.264   7.395  19.775  0.00  0.00    +0.000 A 
ATOM     15  C   UNL     1       2.913   7.296  18.564  0.00  0.00    +0.000 A 
ATOM     16  N   UNL     1       2.713   8.206  17.598  0.00  0.00    +0.000 NA
ATOM     17  C   UNL     1       1.861   9.210  17.872  0.00  0.00    +0.000 A 
ATOM     18  N   UNL     1       1.179   9.388  19.010  0.00  0.00    +0.000 NA
BRANCH  13  20
ATOM     19  C   UNL     1       0.501   9.844  21.603  0.00  0.00    +0.000 C 
ATOM     20  O   UNL     1       0.766   8.517  21.167  0.00  0.00    +0.000 OA
ENDBRANCH  13  20
ENDBRANCH  11  15
ENDBRANCH   9  11
ENDBRANCH   1   9
BRANCH   1  21
ATOM     21  C   UNL     1       3.522   3.865  16.629  0.00  0.00    +0.000 C 
BRANCH  21  22
ATOM     22  C   UNL     1       2.998   3.561  18.015  0.00  0.00    +0.000 A 
ATOM     23  C   UNL     1       3.850   3.057  19.008  0.00  0.00    +0.000 A 
ATOM     24  C   UNL     1       3.345   2.676  20.252  0.00  0.00    +0.000 A 
ATOM     25  C   UNL     1       1.989   2.825  20.519  0.00  0.00    +0.000 A 
ATOM     26 CL   UNL     1       1.354   2.302  22.030  0.00  0.00    +0.000 Cl
ATOM     27  C   UNL     1       1.139   3.379  19.565  0.00  0.00    +0.000 A 
ATOM     28  C   UNL     1       1.645   3.752  18.319  0.00  0.00    +0.000 A 
ENDBRANCH  21  22
ENDBRANCH   1  21
TORSDOF 7
ENDMDL
MODEL 8
REMARK VINA RESULT:      -7.2      3.635      5.925
REMARK  Name = 
REMARK  9 active torsions:
REMARK  status: ('A' for Active; 'I' for Inactive)
REMARK    1  A    between atoms: C_1  and  O_2
REMARK    2  A    between atoms: O_2  and  C_3
REMARK    3  A    between atoms: C_5  and  N_6
REMARK    4  A    between atoms: N_6  and  C_7
REMARK    5  A    between atoms: C_7  and  C_8
REMARK    6  A    between atoms: C_7  and  C_9
REMARK    7  A    between atoms: C_9  and  C_10
REMARK    8  A    between atoms: C_9  and  C_18
REMARK    9  A    between atoms: C_10  and  C_11
REMARK                            x       y       z     vdW  Elec       q    Type
REMARK                         _______ _______ _______ _____ _____    ______ ____
ROOT
ATOM      1  C   UNL     1       3.260   5.415  17.710  0.00  0.00    +0.000 C 
ENDROOT
BRANCH   1   2
ATOM      2  C   UNL     1       4.758   5.208  17.403  0.00  0.00    +0.000 A 
ATOM      3  C   UNL     1       5.760   5.254  18.389  0.00  0.00    +0.000 A 
ATOM      4  C   UNL     1       7.101   5.004  18.087  0.00  0.00    +0.000 A 
ATOM      5  C   UNL     1       7.487   4.787  16.770  0.00  0.00    +0.000 A 
ATOM      6  C   UNL     1       6.525   4.808  15.767  0.00  0.00    +0.000 A 
ATOM      7 BR   UNL     1       7.062   4.645  13.962  0.00  0.00    +0.000 Br
ATOM      8  C   UNL     1       5.172   4.981  16.077  0.00  0.00    +0.000 A 
ENDBRANCH   1   2
BRANCH   1   9
ATOM      9  C   UNL     1       2.352   4.156  17.458  0.00  0.00    +0.000 C 
ATOM     10  C   UNL     1       1.001   4.238  18.192  0.00  0.00    +0.000 C 
BRANCH   9  11
ATOM     11  N   UNL     1       3.013   2.923  17.891  0.00  0.00    +0.000 N 
ATOM     12  H   UNL     1       3.797   2.581  17.338  0.00  0.00    +0.000 HD
BRANCH  11  15
ATOM     13  C   UNL     1       4.363   1.937  21.131  0.00  0.00    +0.000 A 
ATOM     14  C   UNL     1       4.363   2.206  19.783  0.00  0.00    +0.000 A 
ATOM     15  C   UNL     1       3.160   2.559  19.211  0.00  0.00    +0.000 A 
ATOM     16  N   UNL     1       2.043   2.637  19.950  0.00  0.00    +0.000 NA
ATOM     17  C   UNL     1       2.157   2.361  21.262  0.00  0.00    +0.000 A 
ATOM     18  N   UNL     1       3.275   2.002  21.906  0.00  0.00    +0.000 NA
BRANCH  13  20
ATOM     19  C   UNL     1       5.736   0.170  21.833  0.00  0.00    +0.000 C 
ATOM     20  O   UNL     1       5.586   1.574  21.666  0.00  0.00    +0.000 OA
ENDBRANCH  13  20
ENDBRANCH  11  15
ENDBRANCH   9  11
ENDBRANCH   1   9
BRANCH   1  21
ATOM     21  C   UNL     1       3.051   6.032  19.135  0.00  0.00    +0.000 C 
BRANCH  21  22
ATOM     22  C   UNL     1       2.294   7.341  19.171  0.00  0.00    +0.000 A 
ATOM     23  C   UNL     1       2.181   8.135  18.020  0.00  0.00    +0.000 A 
ATOM     24  C   UNL     1       1.577   9.391  18.080  0.00  0.00    +0.000 A 
ATOM     25  C   UNL     1       1.056   9.848  19.285  0.00  0.00    +0.000 A 
ATOM     26 CL   UNL     1       0.363  11.420  19.375  0.00  0.00    +0.000 Cl
ATOM     27  C   UNL     1       1.107   9.048  20.424  0.00  0.00    +0.000 A 
ATOM     28  C   UNL     1       1.719   7.794  20.364  0.00  0.00    +0.000 A 
ENDBRANCH  21  22
ENDBRANCH   1  21
TORSDOF 7
ENDMDL
MODEL 9
REMARK VINA RESULT:      -7.1      1.984      3.406
REMARK  Name = 
REMARK  9 active torsions:
REMARK  status: ('A' for Active; 'I' for Inactive)
REMARK    1  A    between atoms: C_1  and  O_2
REMARK    2  A    between atoms: O_2  and  C_3
REMARK    3  A    between atoms: C_5  and  N_6
REMARK    4  A    between atoms: N_6  and  C_7
REMARK    5  A    between atoms: C_7  and  C_8
REMARK    6  A    between atoms: C_7  and  C_9
REMARK    7  A    between atoms: C_9  and  C_10
REMARK    8  A    between atoms: C_9  and  C_18
REMARK    9  A    between atoms: C_10  and  C_11
REMARK                            x       y       z     vdW  Elec       q    Type
REMARK                         _______ _______ _______ _____ _____    ______ ____
ROOT
ATOM      1  C   UNL     1       4.387   5.799  17.151  0.00  0.00    +0.000 C 
ENDROOT
BRANCH   1   2
ATOM      2  C   UNL     1       5.758   6.315  17.634  0.00  0.00    +0.000 A 
ATOM      3  C   UNL     1       6.425   7.402  17.041  0.00  0.00    +0.000 A 
ATOM      4  C   UNL     1       7.638   7.882  17.540  0.00  0.00    +0.000 A 
ATOM      5  C   UNL     1       8.261   7.229  18.596  0.00  0.00    +0.000 A 
ATOM      6  C   UNL     1       7.657   6.108  19.153  0.00  0.00    +0.000 A 
ATOM      7 BR   UNL     1       8.563   5.139  20.501  0.00  0.00    +0.000 Br
ATOM      8  C   UNL     1       6.406   5.672  18.706  0.00  0.00    +0.000 A 
ENDBRANCH   1   2
BRANCH   1   9
ATOM      9  C   UNL     1       4.434   4.448  16.347  0.00  0.00    +0.000 C 
ATOM     10  C   UNL     1       3.881   3.256  17.149  0.00  0.00    +0.000 C 
BRANCH   9  11
ATOM     11  N   UNL     1       5.801   4.110  15.945  0.00  0.00    +0.000 N 
ATOM     12  H   UNL     1       6.304   3.417  16.497  0.00  0.00    +0.000 HD
BRANCH  11  15
ATOM     13  C   UNL     1       6.173   3.399  12.388  0.00  0.00    +0.000 A 
ATOM     14  C   UNL     1       5.692   3.260  13.668  0.00  0.00    +0.000 A 
ATOM     15  C   UNL     1       6.226   4.083  14.635  0.00  0.00    +0.000 A 
ATOM     16  N   UNL     1       7.176   4.980  14.327  0.00  0.00    +0.000 NA
ATOM     17  C   UNL     1       7.569   5.038  13.042  0.00  0.00    +0.000 A 
ATOM     18  N   UNL     1       7.116   4.280  12.036  0.00  0.00    +0.000 NA
BRANCH  13  20
ATOM     19  C   UNL     1       6.481   1.479  11.078  0.00  0.00    +0.000 C 
ATOM     20  O   UNL     1       5.620   2.548  11.448  0.00  0.00    +0.000 OA
ENDBRANCH  13  20
ENDBRANCH  11  15
ENDBRANCH   9  11
ENDBRANCH   1   9
BRANCH   1  21
ATOM     21  C   UNL     1       3.346   5.766  18.320  0.00  0.00    +0.000 C 
BRANCH  21  22
ATOM     22  C   UNL     1       2.675   7.086  18.630  0.00  0.00    +0.000 A 
ATOM     23  C   UNL     1       2.117   7.325  19.895  0.00  0.00    +0.000 A 
ATOM     24  C   UNL     1       1.405   8.498  20.147  0.00  0.00    +0.000 A 
ATOM     25  C   UNL     1       1.271   9.452  19.144  0.00  0.00    +0.000 A 
ATOM     26 CL   UNL     1       0.345  10.871  19.434  0.00  0.00    +0.000 Cl
ATOM     27  C   UNL     1       1.869   9.256  17.902  0.00  0.00    +0.000 A 
ATOM     28  C   UNL     1       2.575   8.079  17.649  0.00  0.00    +0.000 A 
ENDBRANCH  21  22
ENDBRANCH   1  21
TORSDOF 7
ENDMDL
