MODEL 1
REMARK VINA RESULT:      -7.5      0.000      0.000
REMARK  Name = 
REMARK  5 active torsions:
REMARK  status: ('A' for Active; 'I' for Inactive)
REMARK    1  A    between atoms: C_1  and  O_2
REMARK    2  A    between atoms: O_2  and  C_3
REMARK    3  A    between atoms: C_5  and  C_6
REMARK    4  A    between atoms: C_13  and  C_14
REMARK    5  A    between atoms: C_21  and  C_22
REMARK                            x       y       z     vdW  Elec       q    Type
REMARK                         _______ _______ _______ _____ _____    ______ ____
ROOT
ATOM      1  C   UNL     1       2.237   4.258  19.808  0.00  0.00    +0.000 A 
ATOM      2  N   UNL     1       1.828   5.484  20.192  0.00  0.00    +0.000 NA
ATOM      3  C   UNL     1       2.364   6.561  19.582  0.00  0.00    +0.000 A 
ATOM      4  C   UNL     1       3.359   6.421  18.614  0.00  0.00    +0.000 A 
ATOM      5  C   UNL     1       3.792   5.144  18.190  0.00  0.00    +0.000 A 
ATOM      6  C   UNL     1       3.190   4.033  18.816  0.00  0.00    +0.000 A 
ENDROOT
BRANCH   5   7
ATOM      7  C   UNL     1       4.780   5.047  17.075  0.00  0.00    +0.000 A 
ATOM      8  C   UNL     1       4.502   4.378  15.868  0.00  0.00    +0.000 A 
ATOM      9  C   UNL     1       5.414   4.371  14.803  0.00  0.00    +0.000 A 
ATOM     10  C   UNL     1       6.650   4.991  14.943  0.00  0.00    +0.000 A 
ATOM     11 CL   UNL     1       7.766   4.993  13.636  0.00  0.00    +0.000 Cl
ATOM     12  C   UNL     1       6.982   5.612  16.140  0.00  0.00    +0.000 A 
ATOM     13  C   UNL     1       6.052   5.649  17.186  0.00  0.00    +0.000 A 
ENDBRANCH   5   7
BRANCH   3  14
ATOM     14  C   UNL     1       1.750   7.858  19.936  0.00  0.00    +0.000 A 
ATOM     15  C   UNL     1       1.584   8.899  19.007  0.00  0.00    +0.000 A 
ATOM     16  C   UNL     1       0.951  10.096  19.363  0.00  0.00    +0.000 A 
ATOM     17  C   UNL     1       0.478  10.282  20.659  0.00  0.00    +0.000 A 
ATOM     18  C   UNL     1       0.641   9.274  21.604  0.00  0.00    +0.000 A 
ATOM     19  C   UNL     1       1.272   8.081  21.244  0.00  0.00    +0.000 A 
ENDBRANCH   3  14
BRANCH   1  21
ATOM     20  C   UNL     1       1.991   2.988  21.773  0.00  0.00    +0.000 C 
ATOM     21  O   UNL     1       1.642   3.160  20.402  0.00  0.00    +0.000 OA
ENDBRANCH   1  21
BRANCH   6  22
ATOM     22  C   UNL     1       3.464   2.677  18.437  0.00  0.00    +0.000 C 
ATOM     23  N   UNL     1       3.695   1.578  18.151  0.00  0.00    +0.000 NA
ENDBRANCH   6  22
TORSDOF 4
ENDMDL
MODEL 2
REMARK VINA RESULT:      -7.5      0.105      1.008
REMARK  Name = 
REMARK  5 active torsions:
REMARK  status: ('A' for Active; 'I' for Inactive)
REMARK    1  A    between atoms: C_1  and  O_2
REMARK    2  A    between atoms: O_2  and  C_3
REMARK    3  A    between atoms: C_5  and  C_6
REMARK    4  A    between atoms: C_13  and  C_14
REMARK    5  A    between atoms: C_21  and  C_22
REMARK                            x       y       z     vdW  Elec       q    Type
REMARK                         _______ _______ _______ _____ _____    ______ ____
ROOT
ATOM      1  C   UNL     1       2.257   4.232  19.748  0.00  0.00    +0.000 A 
ATOM      2  N   UNL     1       1.847   5.456  20.137  0.00  0.00    +0.000 NA
ATOM      3  C   UNL     1       2.383   6.536  19.532  0.00  0.00    +0.000 A 
ATOM      4  C   UNL     1       3.379   6.400  18.564  0.00  0.00    +0.000 A 
ATOM      5  C   UNL     1       3.814   5.126  18.136  0.00  0.00    +0.000 A 
ATOM      6  C   UNL     1       3.212   4.011  18.757  0.00  0.00    +0.000 A 
ENDROOT
BRANCH   5   7
ATOM      7  C   UNL     1       4.803   5.034  17.021  0.00  0.00    +0.000 A 
ATOM      8  C   UNL     1       4.520   4.386  15.804  0.00  0.00    +0.000 A 
ATOM      9  C   UNL     1       5.434   4.385  14.741  0.00  0.00    +0.000 A 
ATOM     10  C   UNL     1       6.677   4.988  14.893  0.00  0.00    +0.000 A 
ATOM     11 CL   UNL     1       7.796   4.996  13.588  0.00  0.00    +0.000 Cl
ATOM     12  C   UNL     1       7.013   5.587  16.099  0.00  0.00    +0.000 A 
ATOM     13  C   UNL     1       6.081   5.619  17.144  0.00  0.00    +0.000 A 
ENDBRANCH   5   7
BRANCH   3  14
ATOM     14  C   UNL     1       1.767   7.832  19.890  0.00  0.00    +0.000 A 
ATOM     15  C   UNL     1       1.338   8.134  21.193  0.00  0.00    +0.000 A 
ATOM     16  C   UNL     1       0.807   9.390  21.509  0.00  0.00    +0.000 A 
ATOM     17  C   UNL     1       0.686  10.369  20.527  0.00  0.00    +0.000 A 
ATOM     18  C   UNL     1       1.090  10.093  19.225  0.00  0.00    +0.000 A 
ATOM     19  C   UNL     1       1.620   8.839  18.914  0.00  0.00    +0.000 A 
ENDBRANCH   3  14
BRANCH   1  21
ATOM     20  C   UNL     1       1.930   3.011  21.733  0.00  0.00    +0.000 C 
ATOM     21  O   UNL     1       1.663   3.131  20.338  0.00  0.00    +0.000 OA
ENDBRANCH   1  21
BRANCH   6  22
ATOM     22  C   UNL     1       3.488   2.658  18.373  0.00  0.00    +0.000 C 
ATOM     23  N   UNL     1       3.722   1.560  18.083  0.00  0.00    +0.000 NA
ENDBRANCH   6  22
TORSDOF 4
ENDMDL
MODEL 3
REMARK VINA RESULT:      -7.3      0.842      1.305
REMARK  Name = 
REMARK  5 active torsions:
REMARK  status: ('A' for Active; 'I' for Inactive)
REMARK    1  A    between atoms: C_1  and  O_2
REMARK    2  A    between atoms: O_2  and  C_3
REMARK    3  A    between atoms: C_5  and  C_6
REMARK    4  A    between atoms: C_13  and  C_14
REMARK    5  A    between atoms: C_21  and  C_22
REMARK                            x       y       z     vdW  Elec       q    Type
REMARK                         _______ _______ _______ _____ _____    ______ ____
ROOT
ATOM      1  C   UNL     1       2.568   4.799  20.655  0.00  0.00    +0.000 A 
ATOM      2  N   UNL     1       1.947   5.981  20.842  0.00  0.00    +0.000 NA
ATOM      3  C   UNL     1       2.213   6.990  19.987  0.00  0.00    +0.000 A 
ATOM      4  C   UNL     1       3.150   6.839  18.964  0.00  0.00    +0.000 A 
ATOM      5  C   UNL     1       3.803   5.605  18.745  0.00  0.00    +0.000 A 
ATOM      6  C   UNL     1       3.479   4.554  19.629  0.00  0.00    +0.000 A 
ENDROOT
BRANCH   5   7
ATOM      7  C   UNL     1       4.714   5.464  17.571  0.00  0.00    +0.000 A 
ATOM      8  C   UNL     1       5.966   6.103  17.498  0.00  0.00    +0.000 A 
ATOM      9  C   UNL     1       6.839   5.890  16.423  0.00  0.00    +0.000 A 
ATOM     10  C   UNL     1       6.455   5.072  15.367  0.00  0.00    +0.000 A 
ATOM     11 CL   UNL     1       7.528   4.801  14.051  0.00  0.00    +0.000 Cl
ATOM     12  C   UNL     1       5.203   4.471  15.377  0.00  0.00    +0.000 A 
ATOM     13  C   UNL     1       4.351   4.657  16.472  0.00  0.00    +0.000 A 
ENDBRANCH   5   7
BRANCH   3  14
ATOM     14  C   UNL     1       1.376   8.196  20.152  0.00  0.00    +0.000 A 
ATOM     15  C   UNL     1       1.237   9.168  19.148  0.00  0.00    +0.000 A 
ATOM     16  C   UNL     1       0.394  10.273  19.318  0.00  0.00    +0.000 A 
ATOM     17  C   UNL     1      -0.323  10.434  20.500  0.00  0.00    +0.000 A 
ATOM     18  C   UNL     1      -0.194   9.495  21.518  0.00  0.00    +0.000 A 
ATOM     19  C   UNL     1       0.647   8.394  21.344  0.00  0.00    +0.000 A 
ENDBRANCH   3  14
BRANCH   1  21
ATOM     20  C   UNL     1       1.099   3.015  21.099  0.00  0.00    +0.000 C 
ATOM     21  O   UNL     1       2.247   3.756  21.505  0.00  0.00    +0.000 OA
ENDBRANCH   1  21
BRANCH   6  22
ATOM     22  C   UNL     1       3.995   3.224  19.486  0.00  0.00    +0.000 C 
ATOM     23  N   UNL     1       4.396   2.141  19.385  0.00  0.00    +0.000 NA
ENDBRANCH   6  22
TORSDOF 4
ENDMDL
MODEL 4
REMARK VINA RESULT:      -7.3      0.845      1.642
REMARK  Name = 
REMARK  5 active torsions:
REMARK  status: ('A' for Active; 'I' for Inactive)
REMARK    1  A    between atoms: C_1  and  O_2
REMARK    2  A    between atoms: O_2  and  C_3
REMARK    3  A    between atoms: C_5  and  C_6
REMARK    4  A    between atoms: C_13  and  C_14
REMARK    5  A    between atoms: C_21  and  C_22
REMARK                            x       y       z     vdW  Elec       q    Type
REMARK                         _______ _______ _______ _____ _____    ______ ____
ROOT
ATOM      1  C   UNL     1       2.564   4.781  20.674  0.00  0.00    +0.000 A 
ATOM      2  N   UNL     1       1.934   5.958  20.860  0.00  0.00    +0.000 NA
ATOM      3  C   UNL     1       2.191   6.967  20.002  0.00  0.00    +0.000 A 
ATOM      4  C   UNL     1       3.127   6.823  18.979  0.00  0.00    +0.000 A 
ATOM      5  C   UNL     1       3.790   5.594  18.761  0.00  0.00    +0.000 A 
ATOM      6  C   UNL     1       3.476   4.542  19.647  0.00  0.00    +0.000 A 
ENDROOT
BRANCH   5   7
ATOM      7  C   UNL     1       4.700   5.459  17.586  0.00  0.00    +0.000 A 
ATOM      8  C   UNL     1       5.933   6.134  17.495  0.00  0.00    +0.000 A 
ATOM      9  C   UNL     1       6.808   5.927  16.420  0.00  0.00    +0.000 A 
ATOM     10  C   UNL     1       6.444   5.078  15.381  0.00  0.00    +0.000 A 
ATOM     11 CL   UNL     1       7.520   4.816  14.067  0.00  0.00    +0.000 Cl
ATOM     12  C   UNL     1       5.212   4.440  15.408  0.00  0.00    +0.000 A 
ATOM     13  C   UNL     1       4.358   4.620  16.503  0.00  0.00    +0.000 A 
ENDBRANCH   5   7
BRANCH   3  14
ATOM     14  C   UNL     1       1.343   8.167  20.167  0.00  0.00    +0.000 A 
ATOM     15  C   UNL     1       0.602   8.420  21.334  0.00  0.00    +0.000 A 
ATOM     16  C   UNL     1      -0.149   9.592  21.477  0.00  0.00    +0.000 A 
ATOM     17  C   UNL     1      -0.183  10.534  20.453  0.00  0.00    +0.000 A 
ATOM     18  C   UNL     1       0.529  10.304  19.280  0.00  0.00    +0.000 A 
ATOM     19  C   UNL     1       1.278   9.134  19.142  0.00  0.00    +0.000 A 
ENDBRANCH   3  14
BRANCH   1  21
ATOM     20  C   UNL     1       1.101   2.996  21.132  0.00  0.00    +0.000 C 
ATOM     21  O   UNL     1       2.254   3.737  21.526  0.00  0.00    +0.000 OA
ENDBRANCH   1  21
BRANCH   6  22
ATOM     22  C   UNL     1       4.003   3.216  19.506  0.00  0.00    +0.000 C 
ATOM     23  N   UNL     1       4.438   2.145  19.412  0.00  0.00    +0.000 NA
ENDBRANCH   6  22
TORSDOF 4
ENDMDL
MODEL 5
REMARK VINA RESULT:      -7.1      0.821      1.041
REMARK  Name = 
REMARK  5 active torsions:
REMARK  status: ('A' for Active; 'I' for Inactive)
REMARK    1  A    between atoms: C_1  and  O_2
REMARK    2  A    between atoms: O_2  and  C_3
REMARK    3  A    between atoms: C_5  and  C_6
REMARK    4  A    between atoms: C_13  and  C_14
REMARK    5  A    between atoms: C_21  and  C_22
REMARK                            x       y       z     vdW  Elec       q    Type
REMARK                         _______ _______ _______ _____ _____    ______ ____
ROOT
ATOM      1  C   UNL     1       1.725   4.513  20.060  0.00  0.00    +0.000 A 
ATOM      2  N   UNL     1       1.426   5.743  20.526  0.00  0.00    +0.000 NA
ATOM      3  C   UNL     1       2.012   6.810  19.946  0.00  0.00    +0.000 A 
ATOM      4  C   UNL     1       2.951   6.651  18.926  0.00  0.00    +0.000 A 
ATOM      5  C   UNL     1       3.269   5.372  18.417  0.00  0.00    +0.000 A 
ATOM      6  C   UNL     1       2.614   4.274  19.014  0.00  0.00    +0.000 A 
ENDROOT
BRANCH   5   7
ATOM      7  C   UNL     1       4.197   5.265  17.253  0.00  0.00    +0.000 A 
ATOM      8  C   UNL     1       4.547   6.370  16.453  0.00  0.00    +0.000 A 
ATOM      9  C   UNL     1       5.484   6.261  15.417  0.00  0.00    +0.000 A 
ATOM     10  C   UNL     1       6.053   5.028  15.121  0.00  0.00    +0.000 A 
ATOM     11 CL   UNL     1       7.210   4.894  13.857  0.00  0.00    +0.000 Cl
ATOM     12  C   UNL     1       5.689   3.904  15.851  0.00  0.00    +0.000 A 
ATOM     13  C   UNL     1       4.782   4.026  16.911  0.00  0.00    +0.000 A 
ENDBRANCH   5   7
BRANCH   3  14
ATOM     14  C   UNL     1       1.513   8.127  20.394  0.00  0.00    +0.000 A 
ATOM     15  C   UNL     1       1.278   9.192  19.509  0.00  0.00    +0.000 A 
ATOM     16  C   UNL     1       0.755  10.410  19.961  0.00  0.00    +0.000 A 
ATOM     17  C   UNL     1       0.463  10.592  21.309  0.00  0.00    +0.000 A 
ATOM     18  C   UNL     1       0.698   9.560  22.211  0.00  0.00    +0.000 A 
ATOM     19  C   UNL     1       1.219   8.346  21.757  0.00  0.00    +0.000 A 
ENDBRANCH   3  14
BRANCH   1  21
ATOM     20  C   UNL     1       1.744   2.891  21.764  0.00  0.00    +0.000 C 
ATOM     21  O   UNL     1       1.077   3.431  20.626  0.00  0.00    +0.000 OA
ENDBRANCH   1  21
BRANCH   6  22
ATOM     22  C   UNL     1       2.770   2.925  18.554  0.00  0.00    +0.000 C 
ATOM     23  N   UNL     1       2.911   1.841  18.166  0.00  0.00    +0.000 NA
ENDBRANCH   6  22
TORSDOF 4
ENDMDL
MODEL 6
REMARK VINA RESULT:      -6.8      2.709      6.599
REMARK  Name = 
REMARK  5 active torsions:
REMARK  status: ('A' for Active; 'I' for Inactive)
REMARK    1  A    between atoms: C_1  and  O_2
REMARK    2  A    between atoms: O_2  and  C_3
REMARK    3  A    between atoms: C_5  and  C_6
REMARK    4  A    between atoms: C_13  and  C_14
REMARK    5  A    between atoms: C_21  and  C_22
REMARK                            x       y       z     vdW  Elec       q    Type
REMARK                         _______ _______ _______ _____ _____    ______ ____
ROOT
ATOM      1  C   UNL     1       3.974   3.577  18.561  0.00  0.00    +0.000 A 
ATOM      2  N   UNL     1       4.665   3.583  17.404  0.00  0.00    +0.000 NA
ATOM      3  C   UNL     1       4.670   4.710  16.663  0.00  0.00    +0.000 A 
ATOM      4  C   UNL     1       3.934   5.830  17.051  0.00  0.00    +0.000 A 
ATOM      5  C   UNL     1       3.212   5.847  18.266  0.00  0.00    +0.000 A 
ATOM      6  C   UNL     1       3.254   4.669  19.041  0.00  0.00    +0.000 A 
ENDROOT
BRANCH   5   7
ATOM      7  C   UNL     1       2.531   7.107  18.687  0.00  0.00    +0.000 A 
ATOM      8  C   UNL     1       2.247   8.155  17.791  0.00  0.00    +0.000 A 
ATOM      9  C   UNL     1       1.533   9.293  18.193  0.00  0.00    +0.000 A 
ATOM     10  C   UNL     1       1.132   9.431  19.516  0.00  0.00    +0.000 A 
ATOM     11 CL   UNL     1       0.248  10.820  20.009  0.00  0.00    +0.000 Cl
ATOM     12  C   UNL     1       1.445   8.443  20.441  0.00  0.00    +0.000 A 
ATOM     13  C   UNL     1       2.125   7.291  20.026  0.00  0.00    +0.000 A 
ENDBRANCH   5   7
BRANCH   3  14
ATOM     14  C   UNL     1       5.579   4.697  15.498  0.00  0.00    +0.000 A 
ATOM     15  C   UNL     1       6.806   5.381  15.484  0.00  0.00    +0.000 A 
ATOM     16  C   UNL     1       7.668   5.305  14.383  0.00  0.00    +0.000 A 
ATOM     17  C   UNL     1       7.317   4.550  13.268  0.00  0.00    +0.000 A 
ATOM     18  C   UNL     1       6.101   3.874  13.247  0.00  0.00    +0.000 A 
ATOM     19  C   UNL     1       5.246   3.951  14.348  0.00  0.00    +0.000 A 
ENDBRANCH   3  14
BRANCH   1  21
ATOM     20  C   UNL     1       3.575   1.260  18.663  0.00  0.00    +0.000 C 
ATOM     21  O   UNL     1       4.020   2.434  19.338  0.00  0.00    +0.000 OA
ENDBRANCH   1  21
BRANCH   6  22
ATOM     22  C   UNL     1       2.642   4.561  20.333  0.00  0.00    +0.000 C 
ATOM     23  N   UNL     1       2.167   4.464  21.386  0.00  0.00    +0.000 NA
ENDBRANCH   6  22
TORSDOF 4
ENDMDL
MODEL 7
REMARK VINA RESULT:      -6.8      2.681      6.590
REMARK  Name = 
REMARK  5 active torsions:
REMARK  status: ('A' for Active; 'I' for Inactive)
REMARK    1  A    between atoms: C_1  and  O_2
REMARK    2  A    between atoms: O_2  and  C_3
REMARK    3  A    between atoms: C_5  and  C_6
REMARK    4  A    between atoms: C_13  and  C_14
REMARK    5  A    between atoms: C_21  and  C_22
REMARK                            x       y       z     vdW  Elec       q    Type
REMARK                         _______ _______ _______ _____ _____    ______ ____
ROOT
ATOM      1  C   UNL     1       3.895   3.481  18.605  0.00  0.00    +0.000 A 
ATOM      2  N   UNL     1       4.599   3.512  17.456  0.00  0.00    +0.000 NA
ATOM      3  C   UNL     1       4.606   4.653  16.737  0.00  0.00    +0.000 A 
ATOM      4  C   UNL     1       3.860   5.762  17.137  0.00  0.00    +0.000 A 
ATOM      5  C   UNL     1       3.125   5.752  18.344  0.00  0.00    +0.000 A 
ATOM      6  C   UNL     1       3.164   4.560  19.097  0.00  0.00    +0.000 A 
ENDROOT
BRANCH   5   7
ATOM      7  C   UNL     1       2.433   7.001  18.781  0.00  0.00    +0.000 A 
ATOM      8  C   UNL     1       2.069   7.241  20.120  0.00  0.00    +0.000 A 
ATOM      9  C   UNL     1       1.495   8.455  20.519  0.00  0.00    +0.000 A 
ATOM     10  C   UNL     1       1.222   9.439  19.576  0.00  0.00    +0.000 A 
ATOM     11 CL   UNL     1       0.526  10.933  20.065  0.00  0.00    +0.000 Cl
ATOM     12  C   UNL     1       1.513   9.214  18.237  0.00  0.00    +0.000 A 
ATOM     13  C   UNL     1       2.122   8.015  17.849  0.00  0.00    +0.000 A 
ENDBRANCH   5   7
BRANCH   3  14
ATOM     14  C   UNL     1       5.529   4.666  15.582  0.00  0.00    +0.000 A 
ATOM     15  C   UNL     1       6.761   5.341  15.601  0.00  0.00    +0.000 A 
ATOM     16  C   UNL     1       7.634   5.290  14.509  0.00  0.00    +0.000 A 
ATOM     17  C   UNL     1       7.291   4.569  13.369  0.00  0.00    +0.000 A 
ATOM     18  C   UNL     1       6.072   3.903  13.315  0.00  0.00    +0.000 A 
ATOM     19  C   UNL     1       5.204   3.955  14.408  0.00  0.00    +0.000 A 
ENDBRANCH   3  14
BRANCH   1  21
ATOM     20  C   UNL     1       3.747   1.132  18.602  0.00  0.00    +0.000 C 
ATOM     21  O   UNL     1       3.938   2.324  19.361  0.00  0.00    +0.000 OA
ENDBRANCH   1  21
BRANCH   6  22
ATOM     22  C   UNL     1       2.538   4.425  20.380  0.00  0.00    +0.000 C 
ATOM     23  N   UNL     1       2.013   4.306  21.407  0.00  0.00    +0.000 NA
ENDBRANCH   6  22
TORSDOF 4
ENDMDL
MODEL 8
REMARK VINA RESULT:      -6.7      2.672      6.557
REMARK  Name = 
REMARK  5 active torsions:
REMARK  status: ('A' for Active; 'I' for Inactive)
REMARK    1  A    between atoms: C_1  and  O_2
REMARK    2  A    between atoms: O_2  and  C_3
REMARK    3  A    between atoms: C_5  and  C_6
REMARK    4  A    between atoms: C_13  and  C_14
REMARK    5  A    between atoms: C_21  and  C_22
REMARK                            x       y       z     vdW  Elec       q    Type
REMARK                         _______ _______ _______ _____ _____    ______ ____
ROOT
ATOM      1  C   UNL     1       3.958   3.485  18.631  0.00  0.00    +0.000 A 
ATOM      2  N   UNL     1       4.665   3.494  17.483  0.00  0.00    +0.000 NA
ATOM      3  C   UNL     1       4.667   4.619  16.738  0.00  0.00    +0.000 A 
ATOM      4  C   UNL     1       3.912   5.731  17.111  0.00  0.00    +0.000 A 
ATOM      5  C   UNL     1       3.173   5.744  18.316  0.00  0.00    +0.000 A 
ATOM      6  C   UNL     1       3.218   4.570  19.096  0.00  0.00    +0.000 A 
ENDROOT
BRANCH   5   7
ATOM      7  C   UNL     1       2.471   6.998  18.722  0.00  0.00    +0.000 A 
ATOM      8  C   UNL     1       2.080   7.255  20.050  0.00  0.00    +0.000 A 
ATOM      9  C   UNL     1       1.496   8.474  20.422  0.00  0.00    +0.000 A 
ATOM     10  C   UNL     1       1.242   9.445  19.461  0.00  0.00    +0.000 A 
ATOM     11 CL   UNL     1       0.536  10.944  19.916  0.00  0.00    +0.000 Cl
ATOM     12  C   UNL     1       1.562   9.203  18.132  0.00  0.00    +0.000 A 
ATOM     13  C   UNL     1       2.180   8.000  17.771  0.00  0.00    +0.000 A 
ENDBRANCH   5   7
BRANCH   3  14
ATOM     14  C   UNL     1       5.593   4.612  15.586  0.00  0.00    +0.000 A 
ATOM     15  C   UNL     1       5.322   3.914  14.398  0.00  0.00    +0.000 A 
ATOM     16  C   UNL     1       6.197   3.972  13.306  0.00  0.00    +0.000 A 
ATOM     17  C   UNL     1       7.366   4.723  13.382  0.00  0.00    +0.000 A 
ATOM     18  C   UNL     1       7.668   5.413  14.551  0.00  0.00    +0.000 A 
ATOM     19  C   UNL     1       6.792   5.354  15.638  0.00  0.00    +0.000 A 
ENDBRANCH   3  14
BRANCH   1  21
ATOM     20  C   UNL     1       3.693   1.148  18.707  0.00  0.00    +0.000 C 
ATOM     21  O   UNL     1       4.007   2.346  19.413  0.00  0.00    +0.000 OA
ENDBRANCH   1  21
BRANCH   6  22
ATOM     22  C   UNL     1       2.589   4.460  20.380  0.00  0.00    +0.000 C 
ATOM     23  N   UNL     1       2.101   4.364  21.427  0.00  0.00    +0.000 NA
ENDBRANCH   6  22
TORSDOF 4
ENDMDL
MODEL 9
REMARK VINA RESULT:      -6.7      2.694      6.565
REMARK  Name = 
REMARK  5 active torsions:
REMARK  status: ('A' for Active; 'I' for Inactive)
REMARK    1  A    between atoms: C_1  and  O_2
REMARK    2  A    between atoms: O_2  and  C_3
REMARK    3  A    between atoms: C_5  and  C_6
REMARK    4  A    between atoms: C_13  and  C_14
REMARK    5  A    between atoms: C_21  and  C_22
REMARK                            x       y       z     vdW  Elec       q    Type
REMARK                         _______ _______ _______ _____ _____    ______ ____
ROOT
ATOM      1  C   UNL     1       3.930   3.525  18.570  0.00  0.00    +0.000 A 
ATOM      2  N   UNL     1       4.635   3.518  17.421  0.00  0.00    +0.000 NA
ATOM      3  C   UNL     1       4.664   4.642  16.677  0.00  0.00    +0.000 A 
ATOM      4  C   UNL     1       3.938   5.773  17.051  0.00  0.00    +0.000 A 
ATOM      5  C   UNL     1       3.202   5.804  18.257  0.00  0.00    +0.000 A 
ATOM      6  C   UNL     1       3.218   4.629  19.037  0.00  0.00    +0.000 A 
ENDROOT
BRANCH   5   7
ATOM      7  C   UNL     1       2.531   7.074  18.665  0.00  0.00    +0.000 A 
ATOM      8  C   UNL     1       2.227   8.101  17.752  0.00  0.00    +0.000 A 
ATOM      9  C   UNL     1       1.523   9.249  18.143  0.00  0.00    +0.000 A 
ATOM     10  C   UNL     1       1.155   9.418  19.472  0.00  0.00    +0.000 A 
ATOM     11 CL   UNL     1       0.284  10.820  19.953  0.00  0.00    +0.000 Cl
ATOM     12  C   UNL     1       1.489   8.453  20.412  0.00  0.00    +0.000 A 
ATOM     13  C   UNL     1       2.158   7.290  20.008  0.00  0.00    +0.000 A 
ENDBRANCH   5   7
BRANCH   3  14
ATOM     14  C   UNL     1       5.588   4.613  15.523  0.00  0.00    +0.000 A 
ATOM     15  C   UNL     1       5.308   3.904  14.343  0.00  0.00    +0.000 A 
ATOM     16  C   UNL     1       6.181   3.940  13.250  0.00  0.00    +0.000 A 
ATOM     17  C   UNL     1       7.358   4.680  13.315  0.00  0.00    +0.000 A 
ATOM     18  C   UNL     1       7.669   5.380  14.475  0.00  0.00    +0.000 A 
ATOM     19  C   UNL     1       6.795   5.343  15.564  0.00  0.00    +0.000 A 
ENDBRANCH   3  14
BRANCH   1  21
ATOM     20  C   UNL     1       3.691   1.185  18.627  0.00  0.00    +0.000 C 
ATOM     21  O   UNL     1       3.952   2.385  19.352  0.00  0.00    +0.000 OA
ENDBRANCH   1  21
BRANCH   6  22
ATOM     22  C   UNL     1       2.589   4.533  20.321  0.00  0.00    +0.000 C 
ATOM     23  N   UNL     1       2.059   4.457  21.350  0.00  0.00    +0.000 NA
ENDBRANCH   6  22
TORSDOF 4
ENDMDL
