MODEL 1
REMARK VINA RESULT:      -6.8      0.000      0.000
REMARK  Name = 
REMARK  4 active torsions:
REMARK  status: ('A' for Active; 'I' for Inactive)
REMARK    1  A    between atoms: C_1  and  C_2
REMARK    2  A    between atoms: C_2  and  C_3
REMARK    3  A    between atoms: C_2  and  C_4
REMARK    4  A    between atoms: C_11  and  N_12
REMARK                            x       y       z     vdW  Elec       q    Type
REMARK                         _______ _______ _______ _____ _____    ______ ____
ROOT
ATOM      1  C   UNL     1       2.184   4.463  19.753  0.00  0.00    +0.000 A 
ATOM      2  C   UNL     1       1.615   5.408  20.527  0.00  0.00    +0.000 A 
ATOM      3  C   UNL     1       1.841   6.855  20.345  0.00  0.00    +0.000 A 
ATOM      4  O   UNL     1       1.308   7.676  21.084  0.00  0.00    +0.000 OA
ATOM      5  N   UNL     1       2.651   7.220  19.312  0.00  0.00    +0.000 N 
ATOM      6  C   UNL     1       3.289   6.304  18.472  0.00  0.00    +0.000 A 
ATOM      7  C   UNL     1       4.097   6.803  17.444  0.00  0.00    +0.000 A 
ATOM      8  C   UNL     1       4.789   5.935  16.601  0.00  0.00    +0.000 A 
ATOM      9  C   UNL     1       4.596   4.563  16.767  0.00  0.00    +0.000 A 
ATOM     10  C   UNL     1       3.789   4.061  17.802  0.00  0.00    +0.000 A 
ATOM     11  C   UNL     1       3.104   4.920  18.669  0.00  0.00    +0.000 A 
ATOM     12  H   UNL     1       2.785   8.214  19.187  0.00  0.00    +0.000 HD
ENDROOT
BRANCH   1  14
ATOM     13  C   UNL     1       1.457   2.700  21.401  0.00  0.00    +0.000 C 
ATOM     14  C   UNL     1       1.864   2.982  19.951  0.00  0.00    +0.000 C 
ATOM     15  C   UNL     1       0.772   2.447  19.007  0.00  0.00    +0.000 C 
ENDBRANCH   1  14
BRANCH   8  16
ATOM     16  N   UNL     1       5.458   6.430  15.477  0.00  0.00    +0.000 N 
ATOM     17  H   UNL     1       5.136   7.338  15.163  0.00  0.00    +0.000 HD
ATOM     18  H   UNL     1       6.471   6.378  15.533  0.00  0.00    +0.000 HD
ENDBRANCH   8  16
TORSDOF 2
ENDMDL
MODEL 2
REMARK VINA RESULT:      -6.8      2.553      3.852
REMARK  Name = 
REMARK  4 active torsions:
REMARK  status: ('A' for Active; 'I' for Inactive)
REMARK    1  A    between atoms: C_1  and  C_2
REMARK    2  A    between atoms: C_2  and  C_3
REMARK    3  A    between atoms: C_2  and  C_4
REMARK    4  A    between atoms: C_11  and  N_12
REMARK                            x       y       z     vdW  Elec       q    Type
REMARK                         _______ _______ _______ _____ _____    ______ ____
ROOT
ATOM      1  C   UNL     1       2.776   6.270  18.177  0.00  0.00    +0.000 A 
ATOM      2  C   UNL     1       1.830   5.315  18.277  0.00  0.00    +0.000 A 
ATOM      3  C   UNL     1       2.004   3.940  17.773  0.00  0.00    +0.000 A 
ATOM      4  O   UNL     1       1.108   3.109  17.877  0.00  0.00    +0.000 OA
ATOM      5  N   UNL     1       3.209   3.646  17.207  0.00  0.00    +0.000 N 
ATOM      6  C   UNL     1       4.236   4.581  17.054  0.00  0.00    +0.000 A 
ATOM      7  C   UNL     1       5.430   4.157  16.457  0.00  0.00    +0.000 A 
ATOM      8  C   UNL     1       6.473   5.055  16.243  0.00  0.00    +0.000 A 
ATOM      9  C   UNL     1       6.320   6.364  16.704  0.00  0.00    +0.000 A 
ATOM     10  C   UNL     1       5.121   6.791  17.298  0.00  0.00    +0.000 A 
ATOM     11  C   UNL     1       4.056   5.905  17.501  0.00  0.00    +0.000 A 
ATOM     12  H   UNL     1       3.322   2.697  16.881  0.00  0.00    +0.000 HD
ENDROOT
BRANCH   1  14
ATOM     13  C   UNL     1       1.789   8.559  17.802  0.00  0.00    +0.000 C 
ATOM     14  C   UNL     1       2.560   7.660  18.774  0.00  0.00    +0.000 C 
ATOM     15  C   UNL     1       1.840   7.652  20.134  0.00  0.00    +0.000 C 
ENDBRANCH   1  14
BRANCH   8  16
ATOM     16  N   UNL     1       7.718   4.596  15.803  0.00  0.00    +0.000 N 
ATOM     17  H   UNL     1       8.494   4.835  16.411  0.00  0.00    +0.000 HD
ATOM     18  H   UNL     1       7.733   3.618  15.526  0.00  0.00    +0.000 HD
ENDBRANCH   8  16
TORSDOF 2
ENDMDL
MODEL 3
REMARK VINA RESULT:      -6.7      2.706      3.315
REMARK  Name = 
REMARK  4 active torsions:
REMARK  status: ('A' for Active; 'I' for Inactive)
REMARK    1  A    between atoms: C_1  and  C_2
REMARK    2  A    between atoms: C_2  and  C_3
REMARK    3  A    between atoms: C_2  and  C_4
REMARK    4  A    between atoms: C_11  and  N_12
REMARK                            x       y       z     vdW  Elec       q    Type
REMARK                         _______ _______ _______ _____ _____    ______ ____
ROOT
ATOM      1  C   UNL     1       2.841   3.663  19.163  0.00  0.00    +0.000 A 
ATOM      2  C   UNL     1       3.365   2.618  19.834  0.00  0.00    +0.000 A 
ATOM      3  C   UNL     1       4.815   2.372  19.957  0.00  0.00    +0.000 A 
ATOM      4  O   UNL     1       5.242   1.399  20.569  0.00  0.00    +0.000 OA
ATOM      5  N   UNL     1       5.639   3.286  19.372  0.00  0.00    +0.000 N 
ATOM      6  C   UNL     1       5.177   4.388  18.648  0.00  0.00    +0.000 A 
ATOM      7  C   UNL     1       6.124   5.258  18.094  0.00  0.00    +0.000 A 
ATOM      8  C   UNL     1       5.721   6.351  17.330  0.00  0.00    +0.000 A 
ATOM      9  C   UNL     1       4.353   6.591  17.194  0.00  0.00    +0.000 A 
ATOM     10  C   UNL     1       3.402   5.716  17.745  0.00  0.00    +0.000 A 
ATOM     11  C   UNL     1       3.792   4.602  18.499  0.00  0.00    +0.000 A 
ATOM     12  H   UNL     1       6.629   3.117  19.476  0.00  0.00    +0.000 HD
ENDROOT
BRANCH   1  14
ATOM     13  C   UNL     1       0.584   2.603  18.788  0.00  0.00    +0.000 C 
ATOM     14  C   UNL     1       1.332   3.898  19.123  0.00  0.00    +0.000 C 
ATOM     15  C   UNL     1       0.757   4.491  20.422  0.00  0.00    +0.000 C 
ENDBRANCH   1  14
BRANCH   8  16
ATOM     16  N   UNL     1       6.656   7.307  16.921  0.00  0.00    +0.000 N 
ATOM     17  H   UNL     1       7.374   7.513  17.607  0.00  0.00    +0.000 HD
ATOM     18  H   UNL     1       7.042   7.149  15.994  0.00  0.00    +0.000 HD
ENDBRANCH   8  16
TORSDOF 2
ENDMDL
MODEL 4
REMARK VINA RESULT:      -6.6      1.695      2.163
REMARK  Name = 
REMARK  4 active torsions:
REMARK  status: ('A' for Active; 'I' for Inactive)
REMARK    1  A    between atoms: C_1  and  C_2
REMARK    2  A    between atoms: C_2  and  C_3
REMARK    3  A    between atoms: C_2  and  C_4
REMARK    4  A    between atoms: C_11  and  N_12
REMARK                            x       y       z     vdW  Elec       q    Type
REMARK                         _______ _______ _______ _____ _____    ______ ____
ROOT
ATOM      1  C   UNL     1       2.918   4.229  17.857  0.00  0.00    +0.000 A 
ATOM      2  C   UNL     1       2.323   5.278  18.459  0.00  0.00    +0.000 A 
ATOM      3  C   UNL     1       2.812   6.666  18.349  0.00  0.00    +0.000 A 
ATOM      4  O   UNL     1       2.241   7.585  18.926  0.00  0.00    +0.000 OA
ATOM      5  N   UNL     1       3.910   6.865  17.568  0.00  0.00    +0.000 N 
ATOM      6  C   UNL     1       4.593   5.832  16.921  0.00  0.00    +0.000 A 
ATOM      7  C   UNL     1       5.709   6.164  16.144  0.00  0.00    +0.000 A 
ATOM      8  C   UNL     1       6.451   5.170  15.509  0.00  0.00    +0.000 A 
ATOM      9  C   UNL     1       6.009   3.850  15.612  0.00  0.00    +0.000 A 
ATOM     10  C   UNL     1       4.892   3.516  16.395  0.00  0.00    +0.000 A 
ATOM     11  C   UNL     1       4.148   4.501  17.056  0.00  0.00    +0.000 A 
ATOM     12  H   UNL     1       4.226   7.821  17.487  0.00  0.00    +0.000 HD
ENDROOT
BRANCH   1  14
ATOM     13  C   UNL     1       3.265   1.891  18.734  0.00  0.00    +0.000 C 
ATOM     14  C   UNL     1       2.329   2.823  17.957  0.00  0.00    +0.000 C 
ATOM     15  C   UNL     1       0.928   2.776  18.593  0.00  0.00    +0.000 C 
ENDBRANCH   1  14
BRANCH   8  16
ATOM     16  N   UNL     1       7.459   5.516  14.603  0.00  0.00    +0.000 N 
ATOM     17  H   UNL     1       8.398   5.284  14.910  0.00  0.00    +0.000 HD
ATOM     18  H   UNL     1       7.284   5.224  13.646  0.00  0.00    +0.000 HD
ENDBRANCH   8  16
TORSDOF 2
ENDMDL
MODEL 5
REMARK VINA RESULT:      -6.6      3.124      3.987
REMARK  Name = 
REMARK  4 active torsions:
REMARK  status: ('A' for Active; 'I' for Inactive)
REMARK    1  A    between atoms: C_1  and  C_2
REMARK    2  A    between atoms: C_2  and  C_3
REMARK    3  A    between atoms: C_2  and  C_4
REMARK    4  A    between atoms: C_11  and  N_12
REMARK                            x       y       z     vdW  Elec       q    Type
REMARK                         _______ _______ _______ _____ _____    ______ ____
ROOT
ATOM      1  C   UNL     1       4.549   3.970  17.445  0.00  0.00    +0.000 A 
ATOM      2  C   UNL     1       5.024   4.326  18.655  0.00  0.00    +0.000 A 
ATOM      3  C   UNL     1       6.330   4.982  18.857  0.00  0.00    +0.000 A 
ATOM      4  O   UNL     1       6.724   5.275  19.981  0.00  0.00    +0.000 OA
ATOM      5  N   UNL     1       7.057   5.252  17.736  0.00  0.00    +0.000 N 
ATOM      6  C   UNL     1       6.642   4.905  16.448  0.00  0.00    +0.000 A 
ATOM      7  C   UNL     1       7.477   5.238  15.374  0.00  0.00    +0.000 A 
ATOM      8  C   UNL     1       7.132   4.882  14.072  0.00  0.00    +0.000 A 
ATOM      9  C   UNL     1       5.905   4.250  13.864  0.00  0.00    +0.000 A 
ATOM     10  C   UNL     1       5.070   3.911  14.942  0.00  0.00    +0.000 A 
ATOM     11  C   UNL     1       5.411   4.245  16.258  0.00  0.00    +0.000 A 
ATOM     12  H   UNL     1       7.941   5.716  17.886  0.00  0.00    +0.000 HD
ENDROOT
BRANCH   1  14
ATOM     13  C   UNL     1       3.081   2.003  18.019  0.00  0.00    +0.000 C 
ATOM     14  C   UNL     1       3.161   3.350  17.293  0.00  0.00    +0.000 C 
ATOM     15  C   UNL     1       2.015   4.255  17.781  0.00  0.00    +0.000 C 
ENDBRANCH   1  14
BRANCH   8  16
ATOM     16  N   UNL     1       7.880   5.359  12.991  0.00  0.00    +0.000 N 
ATOM     17  H   UNL     1       7.621   4.965  12.094  0.00  0.00    +0.000 HD
ATOM     18  H   UNL     1       7.972   6.371  12.956  0.00  0.00    +0.000 HD
ENDBRANCH   8  16
TORSDOF 2
ENDMDL
MODEL 6
REMARK VINA RESULT:      -6.6      2.219      4.659
REMARK  Name = 
REMARK  4 active torsions:
REMARK  status: ('A' for Active; 'I' for Inactive)
REMARK    1  A    between atoms: C_1  and  C_2
REMARK    2  A    between atoms: C_2  and  C_3
REMARK    3  A    between atoms: C_2  and  C_4
REMARK    4  A    between atoms: C_11  and  N_12
REMARK                            x       y       z     vdW  Elec       q    Type
REMARK                         _______ _______ _______ _____ _____    ______ ____
ROOT
ATOM      1  C   UNL     1       4.796   5.684  17.182  0.00  0.00    +0.000 A 
ATOM      2  C   UNL     1       4.411   6.967  17.339  0.00  0.00    +0.000 A 
ATOM      3  C   UNL     1       3.079   7.364  17.831  0.00  0.00    +0.000 A 
ATOM      4  O   UNL     1       2.773   8.546  17.946  0.00  0.00    +0.000 OA
ATOM      5  N   UNL     1       2.225   6.354  18.161  0.00  0.00    +0.000 N 
ATOM      6  C   UNL     1       2.541   5.000  18.017  0.00  0.00    +0.000 A 
ATOM      7  C   UNL     1       1.579   4.055  18.392  0.00  0.00    +0.000 A 
ATOM      8  C   UNL     1       1.824   2.692  18.233  0.00  0.00    +0.000 A 
ATOM      9  C   UNL     1       3.076   2.300  17.757  0.00  0.00    +0.000 A 
ATOM     10  C   UNL     1       4.040   3.248  17.375  0.00  0.00    +0.000 A 
ATOM     11  C   UNL     1       3.801   4.621  17.511  0.00  0.00    +0.000 A 
ATOM     12  H   UNL     1       1.322   6.638  18.513  0.00  0.00    +0.000 HD
ENDROOT
BRANCH   1  14
ATOM     13  C   UNL     1       6.271   5.167  15.204  0.00  0.00    +0.000 C 
ATOM     14  C   UNL     1       6.211   5.335  16.726  0.00  0.00    +0.000 C 
ATOM     15  C   UNL     1       7.279   6.354  17.164  0.00  0.00    +0.000 C 
ENDBRANCH   1  14
BRANCH   8  16
ATOM     16  N   UNL     1       0.935   1.751  18.761  0.00  0.00    +0.000 N 
ATOM     17  H   UNL     1       0.303   2.118  19.464  0.00  0.00    +0.000 HD
ATOM     18  H   UNL     1       0.453   1.189  18.065  0.00  0.00    +0.000 HD
ENDBRANCH   8  16
TORSDOF 2
ENDMDL
MODEL 7
REMARK VINA RESULT:      -6.6      2.063      4.650
REMARK  Name = 
REMARK  4 active torsions:
REMARK  status: ('A' for Active; 'I' for Inactive)
REMARK    1  A    between atoms: C_1  and  C_2
REMARK    2  A    between atoms: C_2  and  C_3
REMARK    3  A    between atoms: C_2  and  C_4
REMARK    4  A    between atoms: C_11  and  N_12
REMARK                            x       y       z     vdW  Elec       q    Type
REMARK                         _______ _______ _______ _____ _____    ______ ____
ROOT
ATOM      1  C   UNL     1       4.547   5.177  17.530  0.00  0.00    +0.000 A 
ATOM      2  C   UNL     1       4.191   6.450  17.266  0.00  0.00    +0.000 A 
ATOM      3  C   UNL     1       3.187   7.195  18.049  0.00  0.00    +0.000 A 
ATOM      4  O   UNL     1       2.888   8.349  17.760  0.00  0.00    +0.000 OA
ATOM      5  N   UNL     1       2.629   6.539  19.105  0.00  0.00    +0.000 N 
ATOM      6  C   UNL     1       2.933   5.217  19.438  0.00  0.00    +0.000 A 
ATOM      7  C   UNL     1       2.294   4.653  20.549  0.00  0.00    +0.000 A 
ATOM      8  C   UNL     1       2.530   3.326  20.904  0.00  0.00    +0.000 A 
ATOM      9  C   UNL     1       3.469   2.604  20.167  0.00  0.00    +0.000 A 
ATOM     10  C   UNL     1       4.106   3.167  19.049  0.00  0.00    +0.000 A 
ATOM     11  C   UNL     1       3.865   4.493  18.668  0.00  0.00    +0.000 A 
ATOM     12  H   UNL     1       1.955   7.065  19.644  0.00  0.00    +0.000 HD
ENDROOT
BRANCH   1  14
ATOM     13  C   UNL     1       5.569   4.882  15.245  0.00  0.00    +0.000 C 
ATOM     14  C   UNL     1       5.639   4.479  16.721  0.00  0.00    +0.000 C 
ATOM     15  C   UNL     1       7.064   4.730  17.246  0.00  0.00    +0.000 C 
ENDBRANCH   1  14
BRANCH   8  16
ATOM     16  N   UNL     1       2.022   2.818  22.104  0.00  0.00    +0.000 N 
ATOM     17  H   UNL     1       1.951   3.500  22.852  0.00  0.00    +0.000 HD
ATOM     18  H   UNL     1       1.175   2.266  22.004  0.00  0.00    +0.000 HD
ENDBRANCH   8  16
TORSDOF 2
ENDMDL
MODEL 8
REMARK VINA RESULT:      -6.5      1.047      1.153
REMARK  Name = 
REMARK  4 active torsions:
REMARK  status: ('A' for Active; 'I' for Inactive)
REMARK    1  A    between atoms: C_1  and  C_2
REMARK    2  A    between atoms: C_2  and  C_3
REMARK    3  A    between atoms: C_2  and  C_4
REMARK    4  A    between atoms: C_11  and  N_12
REMARK                            x       y       z     vdW  Elec       q    Type
REMARK                         _______ _______ _______ _____ _____    ______ ____
ROOT
ATOM      1  C   UNL     1       2.643   4.560  18.980  0.00  0.00    +0.000 A 
ATOM      2  C   UNL     1       2.108   5.669  19.529  0.00  0.00    +0.000 A 
ATOM      3  C   UNL     1       2.471   7.039  19.118  0.00  0.00    +0.000 A 
ATOM      4  O   UNL     1       1.964   8.017  19.657  0.00  0.00    +0.000 OA
ATOM      5  N   UNL     1       3.379   7.151  18.109  0.00  0.00    +0.000 N 
ATOM      6  C   UNL     1       3.990   6.054  17.496  0.00  0.00    +0.000 A 
ATOM      7  C   UNL     1       4.907   6.299  16.467  0.00  0.00    +0.000 A 
ATOM      8  C   UNL     1       5.575   5.245  15.847  0.00  0.00    +0.000 A 
ATOM      9  C   UNL     1       5.252   3.943  16.232  0.00  0.00    +0.000 A 
ATOM     10  C   UNL     1       4.335   3.696  17.268  0.00  0.00    +0.000 A 
ATOM     11  C   UNL     1       3.670   4.746  17.914  0.00  0.00    +0.000 A 
ATOM     12  H   UNL     1       3.608   8.093  17.825  0.00  0.00    +0.000 HD
ENDROOT
BRANCH   1  14
ATOM     13  C   UNL     1       1.877   3.126  20.906  0.00  0.00    +0.000 C 
ATOM     14  C   UNL     1       2.180   3.167  19.405  0.00  0.00    +0.000 C 
ATOM     15  C   UNL     1       0.956   2.651  18.628  0.00  0.00    +0.000 C 
ENDBRANCH   1  14
BRANCH   8  16
ATOM     16  N   UNL     1       6.361   5.479  14.714  0.00  0.00    +0.000 N 
ATOM     17  H   UNL     1       7.334   5.682  14.912  0.00  0.00    +0.000 HD
ATOM     18  H   UNL     1       6.254   4.787  13.977  0.00  0.00    +0.000 HD
ENDBRANCH   8  16
TORSDOF 2
ENDMDL
MODEL 9
REMARK VINA RESULT:      -6.4      2.706      5.051
REMARK  Name = 
REMARK  4 active torsions:
REMARK  status: ('A' for Active; 'I' for Inactive)
REMARK    1  A    between atoms: C_1  and  C_2
REMARK    2  A    between atoms: C_2  and  C_3
REMARK    3  A    between atoms: C_2  and  C_4
REMARK    4  A    between atoms: C_11  and  N_12
REMARK                            x       y       z     vdW  Elec       q    Type
REMARK                         _______ _______ _______ _____ _____    ______ ____
ROOT
ATOM      1  C   UNL     1       5.055   4.758  17.113  0.00  0.00    +0.000 A 
ATOM      2  C   UNL     1       6.146   5.097  17.828  0.00  0.00    +0.000 A 
ATOM      3  C   UNL     1       6.178   5.126  19.303  0.00  0.00    +0.000 A 
ATOM      4  O   UNL     1       7.193   5.453  19.907  0.00  0.00    +0.000 OA
ATOM      5  N   UNL     1       5.034   4.757  19.944  0.00  0.00    +0.000 N 
ATOM      6  C   UNL     1       3.857   4.404  19.278  0.00  0.00    +0.000 A 
ATOM      7  C   UNL     1       2.746   4.042  20.050  0.00  0.00    +0.000 A 
ATOM      8  C   UNL     1       1.535   3.719  19.440  0.00  0.00    +0.000 A 
ATOM      9  C   UNL     1       1.485   3.699  18.046  0.00  0.00    +0.000 A 
ATOM     10  C   UNL     1       2.597   4.067  17.271  0.00  0.00    +0.000 A 
ATOM     11  C   UNL     1       3.815   4.413  17.870  0.00  0.00    +0.000 A 
ATOM     12  H   UNL     1       5.073   4.764  20.954  0.00  0.00    +0.000 HD
ENDROOT
BRANCH   1  14
ATOM     13  C   UNL     1       5.324   6.077  14.982  0.00  0.00    +0.000 C 
ATOM     14  C   UNL     1       5.101   4.688  15.588  0.00  0.00    +0.000 C 
ATOM     15  C   UNL     1       6.166   3.721  15.039  0.00  0.00    +0.000 C 
ENDBRANCH   1  14
BRANCH   8  16
ATOM     16  N   UNL     1       0.482   3.199  20.199  0.00  0.00    +0.000 N 
ATOM     17  H   UNL     1       0.527   3.420  21.188  0.00  0.00    +0.000 HD
ATOM     18  H   UNL     1      -0.441   3.364  19.809  0.00  0.00    +0.000 HD
ENDBRANCH   8  16
TORSDOF 2
ENDMDL
