MODEL 1
REMARK VINA RESULT:      -7.4      0.000      0.000
REMARK  Name = 
REMARK  6 active torsions:
REMARK  status: ('A' for Active; 'I' for Inactive)
REMARK    1  A    between atoms: C_2  and  C_3
REMARK    2  A    between atoms: C_3  and  S_4
REMARK    3  A    between atoms: S_4  and  C_5
REMARK    4  A    between atoms: N_14  and  C_15
REMARK    5  A    between atoms: C_20  and  C_21
REMARK    6  A    between atoms: C_21  and  O_23
REMARK                            x       y       z     vdW  Elec       q    Type
REMARK                         _______ _______ _______ _____ _____    ______ ____
ROOT
ATOM      1  O   UNL     1       6.358   4.971  19.884  0.00  0.00    +0.000 OA
ATOM      2  C   UNL     1       5.929   4.590  18.791  0.00  0.00    +0.000 C 
ATOM      3  N   UNL     1       4.680   4.005  18.605  0.00  0.00    +0.000 N 
ATOM      4  H   UNL     1       4.466   3.594  17.691  0.00  0.00    +0.000 HD
ENDROOT
BRANCH   3   5
ATOM      5  C   UNL     1       3.657   3.865  19.594  0.00  0.00    +0.000 A 
ATOM      6  C   UNL     1       2.656   4.836  19.750  0.00  0.00    +0.000 A 
ATOM      7  C   UNL     1       1.632   4.694  20.690  0.00  0.00    +0.000 A 
ATOM      8  C   UNL     1       1.556   3.552  21.472  0.00  0.00    +0.000 A 
ATOM      9  C   UNL     1       2.524   2.561  21.333  0.00  0.00    +0.000 A 
ATOM     10  C   UNL     1       3.595   2.725  20.430  0.00  0.00    +0.000 A 
BRANCH  10  11
ATOM     11  C   UNL     1       4.660   1.691  20.373  0.00  0.00    +0.000 C 
ATOM     12  O   UNL     1       5.433   1.495  21.297  0.00  0.00    +0.000 OA
BRANCH  11  13
ATOM     13  O   UNL     1       4.664   0.948  19.242  0.00  0.00    +0.000 OA
ATOM     14  H   UNL     1       3.857   0.425  19.074  0.00  0.00    +0.000 HD
ENDBRANCH  11  13
ENDBRANCH  10  11
ENDBRANCH   3   5
BRANCH   2  15
ATOM     15  C   UNL     1       6.764   4.772  17.521  0.00  0.00    +0.000 C 
BRANCH  15  16
ATOM     16  S   UNL     1       5.700   5.456  16.198  0.00  0.00    +0.000 S 
BRANCH  16  17
ATOM     17  C   UNL     1       6.682   5.244  14.791  0.00  0.00    +0.000 A 
ATOM     18  N   UNL     1       7.869   5.767  14.584  0.00  0.00    +0.000 NA
ATOM     19  N   UNL     1       8.301   5.350  13.342  0.00  0.00    +0.000 NA
ATOM     20  C   UNL     1       7.367   4.580  12.826  0.00  0.00    +0.000 A 
ATOM     21  C   UNL     1       7.273   3.871  11.596  0.00  0.00    +0.000 A 
ATOM     22  C   UNL     1       6.166   3.153  11.321  0.00  0.00    +0.000 A 
ATOM     23  C   UNL     1       5.052   3.088  12.256  0.00  0.00    +0.000 A 
ATOM     24  C   UNL     1       5.141   3.747  13.424  0.00  0.00    +0.000 A 
ATOM     25  N   UNL     1       6.295   4.487  13.706  0.00  0.00    +0.000 N 
ENDBRANCH  16  17
ENDBRANCH  15  16
ENDBRANCH   2  15
TORSDOF 6
ENDMDL
MODEL 2
REMARK VINA RESULT:      -7.3      2.800      7.306
REMARK  Name = 
REMARK  6 active torsions:
REMARK  status: ('A' for Active; 'I' for Inactive)
REMARK    1  A    between atoms: C_2  and  C_3
REMARK    2  A    between atoms: C_3  and  S_4
REMARK    3  A    between atoms: S_4  and  C_5
REMARK    4  A    between atoms: N_14  and  C_15
REMARK    5  A    between atoms: C_20  and  C_21
REMARK    6  A    between atoms: C_21  and  O_23
REMARK                            x       y       z     vdW  Elec       q    Type
REMARK                         _______ _______ _______ _____ _____    ______ ____
ROOT
ATOM      1  O   UNL     1       7.791   4.321  16.509  0.00  0.00    +0.000 OA
ATOM      2  C   UNL     1       7.203   5.372  16.237  0.00  0.00    +0.000 C 
ATOM      3  N   UNL     1       6.633   5.647  14.998  0.00  0.00    +0.000 N 
ATOM      4  H   UNL     1       6.291   6.597  14.819  0.00  0.00    +0.000 HD
ENDROOT
BRANCH   3   5
ATOM      5  C   UNL     1       6.520   4.739  13.899  0.00  0.00    +0.000 A 
ATOM      6  C   UNL     1       5.592   3.686  13.916  0.00  0.00    +0.000 A 
ATOM      7  C   UNL     1       5.449   2.812  12.835  0.00  0.00    +0.000 A 
ATOM      8  C   UNL     1       6.201   2.995  11.685  0.00  0.00    +0.000 A 
ATOM      9  C   UNL     1       7.121   4.040  11.628  0.00  0.00    +0.000 A 
ATOM     10  C   UNL     1       7.315   4.888  12.738  0.00  0.00    +0.000 A 
BRANCH  10  11
ATOM     11  C   UNL     1       8.368   5.934  12.676  0.00  0.00    +0.000 C 
ATOM     12  O   UNL     1       9.257   6.018  13.508  0.00  0.00    +0.000 OA
BRANCH  11  13
ATOM     13  O   UNL     1       8.296   6.743  11.593  0.00  0.00    +0.000 OA
ATOM     14  H   UNL     1       7.782   7.564  11.709  0.00  0.00    +0.000 HD
ENDBRANCH  11  13
ENDBRANCH  10  11
ENDBRANCH   3   5
BRANCH   2  15
ATOM     15  C   UNL     1       7.033   6.465  17.294  0.00  0.00    +0.000 C 
BRANCH  15  16
ATOM     16  S   UNL     1       5.261   6.607  17.730  0.00  0.00    +0.000 S 
BRANCH  16  17
ATOM     17  C   UNL     1       4.946   5.089  18.494  0.00  0.00    +0.000 A 
ATOM     18  N   UNL     1       5.794   4.388  19.213  0.00  0.00    +0.000 NA
ATOM     19  N   UNL     1       5.143   3.247  19.635  0.00  0.00    +0.000 NA
ATOM     20  C   UNL     1       3.915   3.284  19.165  0.00  0.00    +0.000 A 
ATOM     21  C   UNL     1       2.808   2.399  19.290  0.00  0.00    +0.000 A 
ATOM     22  C   UNL     1       1.644   2.693  18.678  0.00  0.00    +0.000 A 
ATOM     23  C   UNL     1       1.490   3.901  17.881  0.00  0.00    +0.000 A 
ATOM     24  C   UNL     1       2.529   4.747  17.771  0.00  0.00    +0.000 A 
ATOM     25  N   UNL     1       3.734   4.439  18.412  0.00  0.00    +0.000 N 
ENDBRANCH  16  17
ENDBRANCH  15  16
ENDBRANCH   2  15
TORSDOF 6
ENDMDL
MODEL 3
REMARK VINA RESULT:      -7.3      6.190      8.167
REMARK  Name = 
REMARK  6 active torsions:
REMARK  status: ('A' for Active; 'I' for Inactive)
REMARK    1  A    between atoms: C_2  and  C_3
REMARK    2  A    between atoms: C_3  and  S_4
REMARK    3  A    between atoms: S_4  and  C_5
REMARK    4  A    between atoms: N_14  and  C_15
REMARK    5  A    between atoms: C_20  and  C_21
REMARK    6  A    between atoms: C_21  and  O_23
REMARK                            x       y       z     vdW  Elec       q    Type
REMARK                         _______ _______ _______ _____ _____    ______ ____
ROOT
ATOM      1  O   UNL     1       7.968   6.913  18.583  0.00  0.00    +0.000 OA
ATOM      2  C   UNL     1       7.518   7.728  17.772  0.00  0.00    +0.000 C 
ATOM      3  N   UNL     1       6.389   7.506  16.991  0.00  0.00    +0.000 N 
ATOM      4  H   UNL     1       6.171   8.178  16.247  0.00  0.00    +0.000 HD
ENDROOT
BRANCH   3   5
ATOM      5  C   UNL     1       5.507   6.384  17.080  0.00  0.00    +0.000 A 
ATOM      6  C   UNL     1       4.232   6.504  17.654  0.00  0.00    +0.000 A 
ATOM      7  C   UNL     1       3.347   5.423  17.717  0.00  0.00    +0.000 A 
ATOM      8  C   UNL     1       3.699   4.201  17.165  0.00  0.00    +0.000 A 
ATOM      9  C   UNL     1       4.950   4.052  16.573  0.00  0.00    +0.000 A 
ATOM     10  C   UNL     1       5.871   5.119  16.560  0.00  0.00    +0.000 A 
BRANCH  10  11
ATOM     11  C   UNL     1       7.230   4.898  16.004  0.00  0.00    +0.000 C 
ATOM     12  O   UNL     1       7.569   5.326  14.912  0.00  0.00    +0.000 OA
BRANCH  11  13
ATOM     13  O   UNL     1       8.077   4.240  16.829  0.00  0.00    +0.000 OA
ATOM     14  H   UNL     1       8.585   3.511  16.425  0.00  0.00    +0.000 HD
ENDBRANCH  11  13
ENDBRANCH  10  11
ENDBRANCH   3   5
BRANCH   2  15
ATOM     15  C   UNL     1       8.183   9.094  17.592  0.00  0.00    +0.000 C 
BRANCH  15  16
ATOM     16  S   UNL     1       9.020   9.563  19.151  0.00  0.00    +0.000 S 
BRANCH  16  17
ATOM     17  C   UNL     1       9.780  11.056  18.726  0.00  0.00    +0.000 A 
ATOM     18  N   UNL     1      10.311  11.357  17.562  0.00  0.00    +0.000 NA
ATOM     19  N   UNL     1      10.808  12.641  17.646  0.00  0.00    +0.000 NA
ATOM     20  C   UNL     1      10.563  13.091  18.858  0.00  0.00    +0.000 A 
ATOM     21  C   UNL     1      10.832  14.334  19.496  0.00  0.00    +0.000 A 
ATOM     22  C   UNL     1      10.468  14.517  20.782  0.00  0.00    +0.000 A 
ATOM     23  C   UNL     1       9.808  13.466  21.541  0.00  0.00    +0.000 A 
ATOM     24  C   UNL     1       9.542  12.294  20.938  0.00  0.00    +0.000 A 
ATOM     25  N   UNL     1       9.917  12.110  19.603  0.00  0.00    +0.000 N 
ENDBRANCH  16  17
ENDBRANCH  15  16
ENDBRANCH   2  15
TORSDOF 6
ENDMDL
MODEL 4
REMARK VINA RESULT:      -7.3      3.161      6.908
REMARK  Name = 
REMARK  6 active torsions:
REMARK  status: ('A' for Active; 'I' for Inactive)
REMARK    1  A    between atoms: C_2  and  C_3
REMARK    2  A    between atoms: C_3  and  S_4
REMARK    3  A    between atoms: S_4  and  C_5
REMARK    4  A    between atoms: N_14  and  C_15
REMARK    5  A    between atoms: C_20  and  C_21
REMARK    6  A    between atoms: C_21  and  O_23
REMARK                            x       y       z     vdW  Elec       q    Type
REMARK                         _______ _______ _______ _____ _____    ______ ____
ROOT
ATOM      1  O   UNL     1       5.058   2.771  19.898  0.00  0.00    +0.000 OA
ATOM      2  C   UNL     1       4.679   2.780  18.723  0.00  0.00    +0.000 C 
ATOM      3  N   UNL     1       5.048   3.745  17.792  0.00  0.00    +0.000 N 
ATOM      4  H   UNL     1       4.575   3.751  16.883  0.00  0.00    +0.000 HD
ENDROOT
BRANCH   3   5
ATOM      5  C   UNL     1       6.004   4.790  17.993  0.00  0.00    +0.000 A 
ATOM      6  C   UNL     1       6.703   4.915  19.204  0.00  0.00    +0.000 A 
ATOM      7  C   UNL     1       7.663   5.911  19.401  0.00  0.00    +0.000 A 
ATOM      8  C   UNL     1       7.984   6.784  18.373  0.00  0.00    +0.000 A 
ATOM      9  C   UNL     1       7.321   6.678  17.152  0.00  0.00    +0.000 A 
ATOM     10  C   UNL     1       6.307   5.715  16.967  0.00  0.00    +0.000 A 
BRANCH  10  11
ATOM     11  C   UNL     1       5.557   5.690  15.685  0.00  0.00    +0.000 C 
ATOM     12  O   UNL     1       5.364   4.660  15.059  0.00  0.00    +0.000 OA
BRANCH  11  13
ATOM     13  O   UNL     1       5.057   6.887  15.301  0.00  0.00    +0.000 OA
ATOM     14  H   UNL     1       4.723   7.459  16.018  0.00  0.00    +0.000 HD
ENDBRANCH  11  13
ENDBRANCH  10  11
ENDBRANCH   3   5
BRANCH   2  15
ATOM     15  C   UNL     1       3.768   1.671  18.192  0.00  0.00    +0.000 C 
BRANCH  15  16
ATOM     16  S   UNL     1       2.147   2.392  17.741  0.00  0.00    +0.000 S 
BRANCH  16  17
ATOM     17  C   UNL     1       1.813   3.419  19.090  0.00  0.00    +0.000 A 
ATOM     18  N   UNL     1       1.357   3.041  20.263  0.00  0.00    +0.000 NA
ATOM     19  N   UNL     1       1.231   4.168  21.048  0.00  0.00    +0.000 NA
ATOM     20  C   UNL     1       1.617   5.204  20.334  0.00  0.00    +0.000 A 
ATOM     21  C   UNL     1       1.713   6.593  20.625  0.00  0.00    +0.000 A 
ATOM     22  C   UNL     1       2.143   7.448  19.675  0.00  0.00    +0.000 A 
ATOM     23  C   UNL     1       2.509   6.982  18.345  0.00  0.00    +0.000 A 
ATOM     24  C   UNL     1       2.432   5.668  18.070  0.00  0.00    +0.000 A 
ATOM     25  N   UNL     1       1.989   4.785  19.061  0.00  0.00    +0.000 N 
ENDBRANCH  16  17
ENDBRANCH  15  16
ENDBRANCH   2  15
TORSDOF 6
ENDMDL
MODEL 5
REMARK VINA RESULT:      -7.2      3.950      5.836
REMARK  Name = 
REMARK  6 active torsions:
REMARK  status: ('A' for Active; 'I' for Inactive)
REMARK    1  A    between atoms: C_2  and  C_3
REMARK    2  A    between atoms: C_3  and  S_4
REMARK    3  A    between atoms: S_4  and  C_5
REMARK    4  A    between atoms: N_14  and  C_15
REMARK    5  A    between atoms: C_20  and  C_21
REMARK    6  A    between atoms: C_21  and  O_23
REMARK                            x       y       z     vdW  Elec       q    Type
REMARK                         _______ _______ _______ _____ _____    ______ ____
ROOT
ATOM      1  O   UNL     1       2.047   5.511  18.404  0.00  0.00    +0.000 OA
ATOM      2  C   UNL     1       2.312   5.695  19.596  0.00  0.00    +0.000 C 
ATOM      3  N   UNL     1       2.301   6.942  20.212  0.00  0.00    +0.000 N 
ATOM      4  H   UNL     1       2.670   7.018  21.166  0.00  0.00    +0.000 HD
ENDROOT
BRANCH   3   5
ATOM      5  C   UNL     1       1.871   8.172  19.623  0.00  0.00    +0.000 A 
ATOM      6  C   UNL     1       2.307   8.561  18.347  0.00  0.00    +0.000 A 
ATOM      7  C   UNL     1       1.867   9.744  17.746  0.00  0.00    +0.000 A 
ATOM      8  C   UNL     1       0.940  10.550  18.389  0.00  0.00    +0.000 A 
ATOM      9  C   UNL     1       0.474  10.186  19.650  0.00  0.00    +0.000 A 
ATOM     10  C   UNL     1       0.960   9.027  20.289  0.00  0.00    +0.000 A 
BRANCH  10  11
ATOM     11  C   UNL     1       0.511   8.718  21.670  0.00  0.00    +0.000 C 
ATOM     12  O   UNL     1      -0.415   7.957  21.904  0.00  0.00    +0.000 OA
BRANCH  11  13
ATOM     13  O   UNL     1       1.248   9.298  22.646  0.00  0.00    +0.000 OA
ATOM     14  H   UNL     1       1.968   8.754  23.017  0.00  0.00    +0.000 HD
ENDBRANCH  11  13
ENDBRANCH  10  11
ENDBRANCH   3   5
BRANCH   2  15
ATOM     15  C   UNL     1       2.652   4.515  20.508  0.00  0.00    +0.000 C 
BRANCH  15  16
ATOM     16  S   UNL     1       3.533   3.240  19.534  0.00  0.00    +0.000 S 
BRANCH  16  17
ATOM     17  C   UNL     1       4.980   4.062  19.073  0.00  0.00    +0.000 A 
ATOM     18  N   UNL     1       5.865   4.598  19.884  0.00  0.00    +0.000 NA
ATOM     19  N   UNL     1       6.864   5.152  19.110  0.00  0.00    +0.000 NA
ATOM     20  C   UNL     1       6.564   4.935  17.847  0.00  0.00    +0.000 A 
ATOM     21  C   UNL     1       7.225   5.262  16.630  0.00  0.00    +0.000 A 
ATOM     22  C   UNL     1       6.668   4.916  15.452  0.00  0.00    +0.000 A 
ATOM     23  C   UNL     1       5.393   4.215  15.393  0.00  0.00    +0.000 A 
ATOM     24  C   UNL     1       4.771   3.893  16.541  0.00  0.00    +0.000 A 
ATOM     25  N   UNL     1       5.356   4.251  17.760  0.00  0.00    +0.000 N 
ENDBRANCH  16  17
ENDBRANCH  15  16
ENDBRANCH   2  15
TORSDOF 6
ENDMDL
MODEL 6
REMARK VINA RESULT:      -7.2      3.952      6.199
REMARK  Name = 
REMARK  6 active torsions:
REMARK  status: ('A' for Active; 'I' for Inactive)
REMARK    1  A    between atoms: C_2  and  C_3
REMARK    2  A    between atoms: C_3  and  S_4
REMARK    3  A    between atoms: S_4  and  C_5
REMARK    4  A    between atoms: N_14  and  C_15
REMARK    5  A    between atoms: C_20  and  C_21
REMARK    6  A    between atoms: C_21  and  O_23
REMARK                            x       y       z     vdW  Elec       q    Type
REMARK                         _______ _______ _______ _____ _____    ______ ____
ROOT
ATOM      1  O   UNL     1       1.012   4.483  19.261  0.00  0.00    +0.000 OA
ATOM      2  C   UNL     1       1.659   4.761  20.274  0.00  0.00    +0.000 C 
ATOM      3  N   UNL     1       2.303   5.977  20.479  0.00  0.00    +0.000 N 
ATOM      4  H   UNL     1       2.931   6.067  21.284  0.00  0.00    +0.000 HD
ENDROOT
BRANCH   3   5
ATOM      5  C   UNL     1       2.223   7.128  19.634  0.00  0.00    +0.000 A 
ATOM      6  C   UNL     1       2.807   7.137  18.358  0.00  0.00    +0.000 A 
ATOM      7  C   UNL     1       2.707   8.242  17.509  0.00  0.00    +0.000 A 
ATOM      8  C   UNL     1       1.979   9.356  17.897  0.00  0.00    +0.000 A 
ATOM      9  C   UNL     1       1.372   9.375  19.151  0.00  0.00    +0.000 A 
ATOM     10  C   UNL     1       1.521   8.288  20.037  0.00  0.00    +0.000 A 
BRANCH  10  11
ATOM     11  C   UNL     1       0.939   8.379  21.400  0.00  0.00    +0.000 C 
ATOM     12  O   UNL     1      -0.225   8.098  21.636  0.00  0.00    +0.000 OA
BRANCH  11  13
ATOM     13  O   UNL     1       1.817   8.740  22.365  0.00  0.00    +0.000 OA
ATOM     14  H   UNL     1       2.754   8.777  22.096  0.00  0.00    +0.000 HD
ENDBRANCH  11  13
ENDBRANCH  10  11
ENDBRANCH   3   5
BRANCH   2  15
ATOM     15  C   UNL     1       1.773   3.757  21.424  0.00  0.00    +0.000 C 
BRANCH  15  16
ATOM     16  S   UNL     1       3.272   2.735  21.181  0.00  0.00    +0.000 S 
BRANCH  16  17
ATOM     17  C   UNL     1       3.427   2.712  19.460  0.00  0.00    +0.000 A 
ATOM     18  N   UNL     1       2.760   1.943  18.628  0.00  0.00    +0.000 NA
ATOM     19  N   UNL     1       3.183   2.241  17.350  0.00  0.00    +0.000 NA
ATOM     20  C   UNL     1       4.095   3.186  17.435  0.00  0.00    +0.000 A 
ATOM     21  C   UNL     1       4.856   3.882  16.455  0.00  0.00    +0.000 A 
ATOM     22  C   UNL     1       5.746   4.818  16.840  0.00  0.00    +0.000 A 
ATOM     23  C   UNL     1       5.955   5.134  18.246  0.00  0.00    +0.000 A 
ATOM     24  C   UNL     1       5.229   4.487  19.175  0.00  0.00    +0.000 A 
ATOM     25  N   UNL     1       4.303   3.519  18.769  0.00  0.00    +0.000 N 
ENDBRANCH  16  17
ENDBRANCH  15  16
ENDBRANCH   2  15
TORSDOF 6
ENDMDL
MODEL 7
REMARK VINA RESULT:      -7.1      4.602      6.288
REMARK  Name = 
REMARK  6 active torsions:
REMARK  status: ('A' for Active; 'I' for Inactive)
REMARK    1  A    between atoms: C_2  and  C_3
REMARK    2  A    between atoms: C_3  and  S_4
REMARK    3  A    between atoms: S_4  and  C_5
REMARK    4  A    between atoms: N_14  and  C_15
REMARK    5  A    between atoms: C_20  and  C_21
REMARK    6  A    between atoms: C_21  and  O_23
REMARK                            x       y       z     vdW  Elec       q    Type
REMARK                         _______ _______ _______ _____ _____    ______ ____
ROOT
ATOM      1  O   UNL     1       1.446   6.136  20.796  0.00  0.00    +0.000 OA
ATOM      2  C   UNL     1       1.998   6.926  20.024  0.00  0.00    +0.000 C 
ATOM      3  N   UNL     1       1.735   8.292  19.988  0.00  0.00    +0.000 N 
ATOM      4  H   UNL     1       2.135   8.845  19.224  0.00  0.00    +0.000 HD
ENDROOT
BRANCH   3   5
ATOM      5  C   UNL     1       0.900   9.015  20.897  0.00  0.00    +0.000 A 
ATOM      6  C   UNL     1       0.996   8.824  22.284  0.00  0.00    +0.000 A 
ATOM      7  C   UNL     1       0.210   9.549  23.183  0.00  0.00    +0.000 A 
ATOM      8  C   UNL     1      -0.664  10.521  22.721  0.00  0.00    +0.000 A 
ATOM      9  C   UNL     1      -0.773  10.748  21.351  0.00  0.00    +0.000 A 
ATOM     10  C   UNL     1      -0.029   9.977  20.434  0.00  0.00    +0.000 A 
BRANCH  10  11
ATOM     11  C   UNL     1      -0.237  10.182  18.977  0.00  0.00    +0.000 C 
ATOM     12  O   UNL     1       0.690  10.245  18.185  0.00  0.00    +0.000 OA
BRANCH  11  13
ATOM     13  O   UNL     1      -1.534  10.233  18.595  0.00  0.00    +0.000 OA
ATOM     14  H   UNL     1      -2.155  10.612  19.246  0.00  0.00    +0.000 HD
ENDBRANCH  11  13
ENDBRANCH  10  11
ENDBRANCH   3   5
BRANCH   2  15
ATOM     15  C   UNL     1       3.066   6.438  19.044  0.00  0.00    +0.000 C 
BRANCH  15  16
ATOM     16  S   UNL     1       3.778   4.870  19.665  0.00  0.00    +0.000 S 
BRANCH  16  17
ATOM     17  C   UNL     1       5.359   4.881  18.968  0.00  0.00    +0.000 A 
ATOM     18  N   UNL     1       6.492   5.062  19.609  0.00  0.00    +0.000 NA
ATOM     19  N   UNL     1       7.513   4.996  18.684  0.00  0.00    +0.000 NA
ATOM     20  C   UNL     1       6.976   4.773  17.503  0.00  0.00    +0.000 A 
ATOM     21  C   UNL     1       7.536   4.601  16.207  0.00  0.00    +0.000 A 
ATOM     22  C   UNL     1       6.725   4.390  15.150  0.00  0.00    +0.000 A 
ATOM     23  C   UNL     1       5.279   4.339  15.303  0.00  0.00    +0.000 A 
ATOM     24  C   UNL     1       4.746   4.488  16.528  0.00  0.00    +0.000 A 
ATOM     25  N   UNL     1       5.592   4.703  17.621  0.00  0.00    +0.000 N 
ENDBRANCH  16  17
ENDBRANCH  15  16
ENDBRANCH   2  15
TORSDOF 6
ENDMDL
MODEL 8
REMARK VINA RESULT:      -7.0      1.632      2.320
REMARK  Name = 
REMARK  6 active torsions:
REMARK  status: ('A' for Active; 'I' for Inactive)
REMARK    1  A    between atoms: C_2  and  C_3
REMARK    2  A    between atoms: C_3  and  S_4
REMARK    3  A    between atoms: S_4  and  C_5
REMARK    4  A    between atoms: N_14  and  C_15
REMARK    5  A    between atoms: C_20  and  C_21
REMARK    6  A    between atoms: C_21  and  O_23
REMARK                            x       y       z     vdW  Elec       q    Type
REMARK                         _______ _______ _______ _____ _____    ______ ____
ROOT
ATOM      1  O   UNL     1       5.941   4.529  19.427  0.00  0.00    +0.000 OA
ATOM      2  C   UNL     1       5.198   5.259  18.765  0.00  0.00    +0.000 C 
ATOM      3  N   UNL     1       3.811   5.152  18.751  0.00  0.00    +0.000 N 
ATOM      4  H   UNL     1       3.287   5.706  18.066  0.00  0.00    +0.000 HD
ENDROOT
BRANCH   3   5
ATOM      5  C   UNL     1       3.022   4.290  19.574  0.00  0.00    +0.000 A 
ATOM      6  C   UNL     1       2.631   4.673  20.866  0.00  0.00    +0.000 A 
ATOM      7  C   UNL     1       1.832   3.854  21.668  0.00  0.00    +0.000 A 
ATOM      8  C   UNL     1       1.364   2.644  21.181  0.00  0.00    +0.000 A 
ATOM      9  C   UNL     1       1.719   2.239  19.897  0.00  0.00    +0.000 A 
ATOM     10  C   UNL     1       2.576   3.032  19.105  0.00  0.00    +0.000 A 
BRANCH  10  11
ATOM     11  C   UNL     1       3.009   2.527  17.777  0.00  0.00    +0.000 C 
ATOM     12  O   UNL     1       3.650   1.497  17.644  0.00  0.00    +0.000 OA
BRANCH  11  13
ATOM     13  O   UNL     1       2.584   3.268  16.727  0.00  0.00    +0.000 OA
ATOM     14  H   UNL     1       1.617   3.344  16.623  0.00  0.00    +0.000 HD
ENDBRANCH  11  13
ENDBRANCH  10  11
ENDBRANCH   3   5
BRANCH   2  15
ATOM     15  C   UNL     1       5.778   6.387  17.908  0.00  0.00    +0.000 C 
BRANCH  15  16
ATOM     16  S   UNL     1       7.224   5.753  16.982  0.00  0.00    +0.000 S 
BRANCH  16  17
ATOM     17  C   UNL     1       6.486   4.726  15.805  0.00  0.00    +0.000 A 
ATOM     18  N   UNL     1       5.529   3.852  16.024  0.00  0.00    +0.000 NA
ATOM     19  N   UNL     1       5.230   3.246  14.821  0.00  0.00    +0.000 NA
ATOM     20  C   UNL     1       6.010   3.770  13.899  0.00  0.00    +0.000 A 
ATOM     21  C   UNL     1       6.134   3.545  12.500  0.00  0.00    +0.000 A 
ATOM     22  C   UNL     1       7.049   4.235  11.789  0.00  0.00    +0.000 A 
ATOM     23  C   UNL     1       7.925   5.208  12.424  0.00  0.00    +0.000 A 
ATOM     24  C   UNL     1       7.804   5.433  13.744  0.00  0.00    +0.000 A 
ATOM     25  N   UNL     1       6.850   4.717  14.476  0.00  0.00    +0.000 N 
ENDBRANCH  16  17
ENDBRANCH  15  16
ENDBRANCH   2  15
TORSDOF 6
ENDMDL
MODEL 9
REMARK VINA RESULT:      -7.0      1.669      2.172
REMARK  Name = 
REMARK  6 active torsions:
REMARK  status: ('A' for Active; 'I' for Inactive)
REMARK    1  A    between atoms: C_2  and  C_3
REMARK    2  A    between atoms: C_3  and  S_4
REMARK    3  A    between atoms: S_4  and  C_5
REMARK    4  A    between atoms: N_14  and  C_15
REMARK    5  A    between atoms: C_20  and  C_21
REMARK    6  A    between atoms: C_21  and  O_23
REMARK                            x       y       z     vdW  Elec       q    Type
REMARK                         _______ _______ _______ _____ _____    ______ ____
ROOT
ATOM      1  O   UNL     1       5.264   5.404  19.671  0.00  0.00    +0.000 OA
ATOM      2  C   UNL     1       5.349   4.546  18.787  0.00  0.00    +0.000 C 
ATOM      3  N   UNL     1       4.534   3.421  18.713  0.00  0.00    +0.000 N 
ATOM      4  H   UNL     1       4.769   2.694  18.030  0.00  0.00    +0.000 HD
ENDROOT
BRANCH   3   5
ATOM      5  C   UNL     1       3.408   3.137  19.548  0.00  0.00    +0.000 A 
ATOM      6  C   UNL     1       3.571   2.773  20.893  0.00  0.00    +0.000 A 
ATOM      7  C   UNL     1       2.478   2.526  21.728  0.00  0.00    +0.000 A 
ATOM      8  C   UNL     1       1.186   2.681  21.249  0.00  0.00    +0.000 A 
ATOM      9  C   UNL     1       0.987   3.058  19.923  0.00  0.00    +0.000 A 
ATOM     10  C   UNL     1       2.085   3.248  19.058  0.00  0.00    +0.000 A 
BRANCH  10  11
ATOM     11  C   UNL     1       1.835   3.558  17.628  0.00  0.00    +0.000 C 
ATOM     12  O   UNL     1       2.378   2.948  16.720  0.00  0.00    +0.000 OA
BRANCH  11  13
ATOM     13  O   UNL     1       0.916   4.528  17.413  0.00  0.00    +0.000 OA
ATOM     14  H   UNL     1       0.359   4.418  16.619  0.00  0.00    +0.000 HD
ENDBRANCH  11  13
ENDBRANCH  10  11
ENDBRANCH   3   5
BRANCH   2  15
ATOM     15  C   UNL     1       6.375   4.688  17.661  0.00  0.00    +0.000 C 
BRANCH  15  16
ATOM     16  S   UNL     1       5.711   5.821  16.385  0.00  0.00    +0.000 S 
BRANCH  16  17
ATOM     17  C   UNL     1       6.685   5.437  15.010  0.00  0.00    +0.000 A 
ATOM     18  N   UNL     1       7.915   5.841  14.789  0.00  0.00    +0.000 NA
ATOM     19  N   UNL     1       8.322   5.311  13.582  0.00  0.00    +0.000 NA
ATOM     20  C   UNL     1       7.329   4.594  13.101  0.00  0.00    +0.000 A 
ATOM     21  C   UNL     1       7.186   3.819  11.916  0.00  0.00    +0.000 A 
ATOM     22  C   UNL     1       6.023   3.183  11.669  0.00  0.00    +0.000 A 
ATOM     23  C   UNL     1       4.899   3.274  12.588  0.00  0.00    +0.000 A 
ATOM     24  C   UNL     1       5.034   3.995  13.715  0.00  0.00    +0.000 A 
ATOM     25  N   UNL     1       6.244   4.649  13.969  0.00  0.00    +0.000 N 
ENDBRANCH  16  17
ENDBRANCH  15  16
ENDBRANCH   2  15
TORSDOF 6
ENDMDL
