MODEL 1
REMARK VINA RESULT:      -6.6      0.000      0.000
REMARK  Name = 
REMARK  7 active torsions:
REMARK  status: ('A' for Active; 'I' for Inactive)
REMARK    1  A    between atoms: C_1  and  N_2
REMARK    2  A    between atoms: N_2  and  C_3
REMARK    3  A    between atoms: C_4  and  C_6
REMARK    4  A    between atoms: C_6  and  N_7
REMARK    5  A    between atoms: C_11  and  C_13
REMARK    6  A    between atoms: C_13  and  C_14
REMARK    7  A    between atoms: C_17  and  C_18
REMARK                            x       y       z     vdW  Elec       q    Type
REMARK                         _______ _______ _______ _____ _____    ______ ____
ROOT
ATOM      1  N   UNL     1       2.611   4.575  18.455  0.00  0.00    +0.000 NA
ATOM      2  C   UNL     1       1.549   4.518  19.493  0.00  0.00    +0.000 C 
ATOM      3  C   UNL     1       1.756   5.467  20.691  0.00  0.00    +0.000 C 
ATOM      4  N   UNL     1       2.020   6.840  20.248  0.00  0.00    +0.000 N 
ATOM      5  C   UNL     1       1.282   7.884  20.778  0.00  0.00    +0.000 C 
ATOM      6  O   UNL     1       0.356   7.693  21.574  0.00  0.00    +0.000 OA
ATOM      7  C   UNL     1       3.063   6.962  19.224  0.00  0.00    +0.000 C 
ATOM      8  C   UNL     1       2.806   5.988  18.054  0.00  0.00    +0.000 C 
ENDROOT
BRANCH   1   9
ATOM      9  C   UNL     1       3.888   3.977  18.915  0.00  0.00    +0.000 C 
BRANCH   9  13
ATOM     10  C   UNL     1       7.103   4.726  16.951  0.00  0.00    +0.000 C 
ATOM     11  N   UNL     1       6.160   4.633  18.051  0.00  0.00    +0.000 N 
ATOM     12  C   UNL     1       6.454   5.348  19.281  0.00  0.00    +0.000 C 
ATOM     13  C   UNL     1       4.955   3.976  17.812  0.00  0.00    +0.000 C 
ATOM     14  O   UNL     1       4.731   3.404  16.740  0.00  0.00    +0.000 OA
ENDBRANCH   9  13
ENDBRANCH   1   9
BRANCH   5  15
ATOM     15  C   UNL     1       1.623   9.307  20.369  0.00  0.00    +0.000 C 
BRANCH  15  16
ATOM     16  C   UNL     1       0.401  10.109  20.078  0.00  0.00    +0.000 A 
ATOM     17  C   UNL     1      -0.092  11.163  20.823  0.00  0.00    +0.000 A 
ATOM     18  S   UNL     1      -1.477  11.825  20.069  0.00  0.00    +0.000 S 
ATOM     19  C   UNL     1      -1.338  10.672  18.789  0.00  0.00    +0.000 A 
ATOM     20  N   UNL     1      -0.330   9.823  18.932  0.00  0.00    +0.000 NA
BRANCH  19  21
ATOM     21  C   UNL     1      -2.305  10.685  17.672  0.00  0.00    +0.000 A 
ATOM     22  N   UNL     1      -3.406  11.459  17.792  0.00  0.00    +0.000 NA
ATOM     23  C   UNL     1      -4.240  11.473  16.736  0.00  0.00    +0.000 A 
ATOM     24  C   UNL     1      -4.025  10.747  15.588  0.00  0.00    +0.000 A 
ATOM     25  C   UNL     1      -2.878   9.987  15.571  0.00  0.00    +0.000 A 
ATOM     26  N   UNL     1      -2.001   9.938  16.590  0.00  0.00    +0.000 NA
ENDBRANCH  19  21
ENDBRANCH  15  16
ENDBRANCH   5  15
TORSDOF 5
ENDMDL
MODEL 2
REMARK VINA RESULT:      -6.6      0.776      1.288
REMARK  Name = 
REMARK  7 active torsions:
REMARK  status: ('A' for Active; 'I' for Inactive)
REMARK    1  A    between atoms: C_1  and  N_2
REMARK    2  A    between atoms: N_2  and  C_3
REMARK    3  A    between atoms: C_4  and  C_6
REMARK    4  A    between atoms: C_6  and  N_7
REMARK    5  A    between atoms: C_11  and  C_13
REMARK    6  A    between atoms: C_13  and  C_14
REMARK    7  A    between atoms: C_17  and  C_18
REMARK                            x       y       z     vdW  Elec       q    Type
REMARK                         _______ _______ _______ _____ _____    ______ ____
ROOT
ATOM      1  N   UNL     1       2.430   4.238  18.892  0.00  0.00    +0.000 NA
ATOM      2  C   UNL     1       1.596   4.536  20.085  0.00  0.00    +0.000 C 
ATOM      3  C   UNL     1       1.980   5.821  20.846  0.00  0.00    +0.000 C 
ATOM      4  N   UNL     1       2.076   6.971  19.942  0.00  0.00    +0.000 N 
ATOM      5  C   UNL     1       1.399   8.140  20.245  0.00  0.00    +0.000 C 
ATOM      6  O   UNL     1       0.658   8.230  21.229  0.00  0.00    +0.000 OA
ATOM      7  C   UNL     1       2.891   6.741  18.744  0.00  0.00    +0.000 C 
ATOM      8  C   UNL     1       2.465   5.441  18.027  0.00  0.00    +0.000 C 
ENDROOT
BRANCH   1   9
ATOM      9  C   UNL     1       3.802   3.808  19.251  0.00  0.00    +0.000 C 
BRANCH   9  13
ATOM     10  C   UNL     1       6.702   4.536  16.839  0.00  0.00    +0.000 C 
ATOM     11  N   UNL     1       5.904   4.503  18.052  0.00  0.00    +0.000 N 
ATOM     12  C   UNL     1       6.291   5.358  19.161  0.00  0.00    +0.000 C 
ATOM     13  C   UNL     1       4.729   3.755  18.030  0.00  0.00    +0.000 C 
ATOM     14  O   UNL     1       4.421   3.061  17.054  0.00  0.00    +0.000 OA
ENDBRANCH   9  13
ENDBRANCH   1   9
BRANCH   5  15
ATOM     15  C   UNL     1       1.576   9.347  19.340  0.00  0.00    +0.000 C 
BRANCH  15  16
ATOM     16  C   UNL     1       0.467  10.331  19.504  0.00  0.00    +0.000 A 
ATOM     17  C   UNL     1       0.448  11.420  20.353  0.00  0.00    +0.000 A 
ATOM     18  S   UNL     1      -1.002  12.304  20.150  0.00  0.00    +0.000 S 
ATOM     19  C   UNL     1      -1.520  11.187  18.937  0.00  0.00    +0.000 A 
ATOM     20  N   UNL     1      -0.669  10.194  18.717  0.00  0.00    +0.000 NA
BRANCH  19  21
ATOM     21  C   UNL     1      -2.818  11.380  18.259  0.00  0.00    +0.000 A 
ATOM     22  N   UNL     1      -2.929  10.984  16.972  0.00  0.00    +0.000 NA
ATOM     23  C   UNL     1      -4.140  11.142  16.405  0.00  0.00    +0.000 A 
ATOM     24  C   UNL     1      -5.222  11.681  17.060  0.00  0.00    +0.000 A 
ATOM     25  C   UNL     1      -4.999  12.059  18.364  0.00  0.00    +0.000 A 
ATOM     26  N   UNL     1      -3.817  11.919  18.990  0.00  0.00    +0.000 NA
ENDBRANCH  19  21
ENDBRANCH  15  16
ENDBRANCH   5  15
TORSDOF 5
ENDMDL
MODEL 3
REMARK VINA RESULT:      -6.5      1.190      1.386
REMARK  Name = 
REMARK  7 active torsions:
REMARK  status: ('A' for Active; 'I' for Inactive)
REMARK    1  A    between atoms: C_1  and  N_2
REMARK    2  A    between atoms: N_2  and  C_3
REMARK    3  A    between atoms: C_4  and  C_6
REMARK    4  A    between atoms: C_6  and  N_7
REMARK    5  A    between atoms: C_11  and  C_13
REMARK    6  A    between atoms: C_13  and  C_14
REMARK    7  A    between atoms: C_17  and  C_18
REMARK                            x       y       z     vdW  Elec       q    Type
REMARK                         _______ _______ _______ _____ _____    ______ ____
ROOT
ATOM      1  N   UNL     1       2.352   4.339  19.107  0.00  0.00    +0.000 NA
ATOM      2  C   UNL     1       1.648   4.925  20.277  0.00  0.00    +0.000 C 
ATOM      3  C   UNL     1       2.131   6.329  20.692  0.00  0.00    +0.000 C 
ATOM      4  N   UNL     1       2.158   7.248  19.549  0.00  0.00    +0.000 N 
ATOM      5  C   UNL     1       1.537   8.482  19.647  0.00  0.00    +0.000 C 
ATOM      6  O   UNL     1       0.901   8.816  20.652  0.00  0.00    +0.000 OA
ATOM      7  C   UNL     1       2.843   6.727  18.362  0.00  0.00    +0.000 C 
ATOM      8  C   UNL     1       2.322   5.320  17.996  0.00  0.00    +0.000 C 
ENDROOT
BRANCH   1   9
ATOM      9  C   UNL     1       3.745   3.942  19.422  0.00  0.00    +0.000 C 
BRANCH   9  13
ATOM     10  C   UNL     1       6.465   4.317  16.735  0.00  0.00    +0.000 C 
ATOM     11  N   UNL     1       5.756   4.452  17.995  0.00  0.00    +0.000 N 
ATOM     12  C   UNL     1       6.221   5.443  18.950  0.00  0.00    +0.000 C 
ATOM     13  C   UNL     1       4.583   3.719  18.156  0.00  0.00    +0.000 C 
ATOM     14  O   UNL     1       4.206   2.906  17.305  0.00  0.00    +0.000 OA
ENDBRANCH   9  13
ENDBRANCH   1   9
BRANCH   5  15
ATOM     15  C   UNL     1       1.645   9.452  18.483  0.00  0.00    +0.000 C 
BRANCH  15  16
ATOM     16  C   UNL     1       0.655  10.562  18.593  0.00  0.00    +0.000 A 
ATOM     17  C   UNL     1       0.915  11.866  18.970  0.00  0.00    +0.000 A 
ATOM     18  S   UNL     1      -0.512  12.803  18.884  0.00  0.00    +0.000 S 
ATOM     19  C   UNL     1      -1.396  11.419  18.346  0.00  0.00    +0.000 A 
ATOM     20  N   UNL     1      -0.670  10.313  18.261  0.00  0.00    +0.000 NA
BRANCH  19  21
ATOM     21  C   UNL     1      -2.837  11.533  18.039  0.00  0.00    +0.000 A 
ATOM     22  N   UNL     1      -3.670  11.920  19.029  0.00  0.00    +0.000 NA
ATOM     23  C   UNL     1      -4.968  12.050  18.695  0.00  0.00    +0.000 A 
ATOM     24  C   UNL     1      -5.457  11.803  17.434  0.00  0.00    +0.000 A 
ATOM     25  C   UNL     1      -4.525  11.407  16.502  0.00  0.00    +0.000 A 
ATOM     26  N   UNL     1      -3.215  11.268  16.770  0.00  0.00    +0.000 NA
ENDBRANCH  19  21
ENDBRANCH  15  16
ENDBRANCH   5  15
TORSDOF 5
ENDMDL
MODEL 4
REMARK VINA RESULT:      -6.1      3.363      8.618
REMARK  Name = 
REMARK  7 active torsions:
REMARK  status: ('A' for Active; 'I' for Inactive)
REMARK    1  A    between atoms: C_1  and  N_2
REMARK    2  A    between atoms: N_2  and  C_3
REMARK    3  A    between atoms: C_4  and  C_6
REMARK    4  A    between atoms: C_6  and  N_7
REMARK    5  A    between atoms: C_11  and  C_13
REMARK    6  A    between atoms: C_13  and  C_14
REMARK    7  A    between atoms: C_17  and  C_18
REMARK                            x       y       z     vdW  Elec       q    Type
REMARK                         _______ _______ _______ _____ _____    ______ ____
ROOT
ATOM      1  N   UNL     1       2.218   8.638  18.723  0.00  0.00    +0.000 NA
ATOM      2  C   UNL     1       2.277   8.083  20.100  0.00  0.00    +0.000 C 
ATOM      3  C   UNL     1       1.694   6.665  20.258  0.00  0.00    +0.000 C 
ATOM      4  N   UNL     1       2.255   5.740  19.268  0.00  0.00    +0.000 N 
ATOM      5  C   UNL     1       2.784   4.530  19.684  0.00  0.00    +0.000 C 
ATOM      6  O   UNL     1       2.858   4.224  20.878  0.00  0.00    +0.000 OA
ATOM      7  C   UNL     1       2.223   6.230  17.886  0.00  0.00    +0.000 C 
ATOM      8  C   UNL     1       2.815   7.653  17.790  0.00  0.00    +0.000 C 
ENDROOT
BRANCH   1   9
ATOM      9  C   UNL     1       0.838   8.985  18.309  0.00  0.00    +0.000 C 
BRANCH   9  13
ATOM     10  C   UNL     1      -1.020  12.345  18.427  0.00  0.00    +0.000 C 
ATOM     11  N   UNL     1      -0.767  10.925  18.266  0.00  0.00    +0.000 N 
ATOM     12  C   UNL     1      -1.791  10.103  17.643  0.00  0.00    +0.000 C 
ATOM     13  C   UNL     1       0.503  10.456  18.592  0.00  0.00    +0.000 C 
ATOM     14  O   UNL     1       1.357  11.195  19.095  0.00  0.00    +0.000 OA
ENDBRANCH   9  13
ENDBRANCH   1   9
BRANCH   5  15
ATOM     15  C   UNL     1       3.288   3.550  18.637  0.00  0.00    +0.000 C 
BRANCH  15  16
ATOM     16  C   UNL     1       4.561   4.010  18.013  0.00  0.00    +0.000 A 
ATOM     17  C   UNL     1       5.690   4.456  18.673  0.00  0.00    +0.000 A 
ATOM     18  S   UNL     1       6.930   4.811  17.550  0.00  0.00    +0.000 S 
ATOM     19  C   UNL     1       5.893   4.347  16.248  0.00  0.00    +0.000 A 
ATOM     20  N   UNL     1       4.679   3.974  16.630  0.00  0.00    +0.000 NA
BRANCH  19  21
ATOM     21  C   UNL     1       6.382   4.402  14.855  0.00  0.00    +0.000 A 
ATOM     22  N   UNL     1       7.431   5.208  14.580  0.00  0.00    +0.000 NA
ATOM     23  C   UNL     1       7.870   5.197  13.307  0.00  0.00    +0.000 A 
ATOM     24  C   UNL     1       7.305   4.431  12.315  0.00  0.00    +0.000 A 
ATOM     25  C   UNL     1       6.239   3.651  12.700  0.00  0.00    +0.000 A 
ATOM     26  N   UNL     1       5.759   3.611  13.956  0.00  0.00    +0.000 NA
ENDBRANCH  19  21
ENDBRANCH  15  16
ENDBRANCH   5  15
TORSDOF 5
ENDMDL
MODEL 5
REMARK VINA RESULT:      -6.0      5.861      9.027
REMARK  Name = 
REMARK  7 active torsions:
REMARK  status: ('A' for Active; 'I' for Inactive)
REMARK    1  A    between atoms: C_1  and  N_2
REMARK    2  A    between atoms: N_2  and  C_3
REMARK    3  A    between atoms: C_4  and  C_6
REMARK    4  A    between atoms: C_6  and  N_7
REMARK    5  A    between atoms: C_11  and  C_13
REMARK    6  A    between atoms: C_13  and  C_14
REMARK    7  A    between atoms: C_17  and  C_18
REMARK                            x       y       z     vdW  Elec       q    Type
REMARK                         _______ _______ _______ _____ _____    ______ ____
ROOT
ATOM      1  N   UNL     1       4.138   3.164  18.006  0.00  0.00    +0.000 NA
ATOM      2  C   UNL     1       4.671   3.501  16.661  0.00  0.00    +0.000 C 
ATOM      3  C   UNL     1       5.001   4.992  16.445  0.00  0.00    +0.000 C 
ATOM      4  N   UNL     1       5.850   5.515  17.521  0.00  0.00    +0.000 N 
ATOM      5  C   UNL     1       7.011   6.200  17.205  0.00  0.00    +0.000 C 
ATOM      6  O   UNL     1       7.394   6.336  16.039  0.00  0.00    +0.000 OA
ATOM      7  C   UNL     1       5.374   5.216  18.876  0.00  0.00    +0.000 C 
ATOM      8  C   UNL     1       5.056   3.713  19.031  0.00  0.00    +0.000 C 
ENDROOT
BRANCH   1   9
ATOM      9  C   UNL     1       2.758   3.665  18.213  0.00  0.00    +0.000 C 
BRANCH   9  13
ATOM     10  C   UNL     1       1.197   2.826  21.621  0.00  0.00    +0.000 C 
ATOM     11  N   UNL     1       1.770   3.590  20.528  0.00  0.00    +0.000 N 
ATOM     12  C   UNL     1       2.171   4.964  20.776  0.00  0.00    +0.000 C 
ATOM     13  C   UNL     1       2.033   2.915  19.338  0.00  0.00    +0.000 C 
ATOM     14  O   UNL     1       1.701   1.736  19.176  0.00  0.00    +0.000 OA
ENDBRANCH   9  13
ENDBRANCH   1   9
BRANCH   5  15
ATOM     15  C   UNL     1       7.835   6.805  18.329  0.00  0.00    +0.000 C 
BRANCH  15  16
ATOM     16  C   UNL     1       8.030   8.272  18.148  0.00  0.00    +0.000 A 
ATOM     17  C   UNL     1       7.235   9.125  17.406  0.00  0.00    +0.000 A 
ATOM     18  S   UNL     1       7.802  10.732  17.544  0.00  0.00    +0.000 S 
ATOM     19  C   UNL     1       9.073  10.201  18.589  0.00  0.00    +0.000 A 
ATOM     20  N   UNL     1       9.088   8.892  18.799  0.00  0.00    +0.000 NA
BRANCH  19  21
ATOM     21  C   UNL     1      10.029  11.178  19.148  0.00  0.00    +0.000 A 
ATOM     22  N   UNL     1      11.029  11.617  18.354  0.00  0.00    +0.000 NA
ATOM     23  C   UNL     1      11.853  12.537  18.890  0.00  0.00    +0.000 A 
ATOM     24  C   UNL     1      11.723  13.018  20.172  0.00  0.00    +0.000 A 
ATOM     25  C   UNL     1      10.676  12.500  20.898  0.00  0.00    +0.000 A 
ATOM     26  N   UNL     1       9.814  11.588  20.417  0.00  0.00    +0.000 NA
ENDBRANCH  19  21
ENDBRANCH  15  16
ENDBRANCH   5  15
TORSDOF 5
ENDMDL
MODEL 6
REMARK VINA RESULT:      -6.0      3.567      8.525
REMARK  Name = 
REMARK  7 active torsions:
REMARK  status: ('A' for Active; 'I' for Inactive)
REMARK    1  A    between atoms: C_1  and  N_2
REMARK    2  A    between atoms: N_2  and  C_3
REMARK    3  A    between atoms: C_4  and  C_6
REMARK    4  A    between atoms: C_6  and  N_7
REMARK    5  A    between atoms: C_11  and  C_13
REMARK    6  A    between atoms: C_13  and  C_14
REMARK    7  A    between atoms: C_17  and  C_18
REMARK                            x       y       z     vdW  Elec       q    Type
REMARK                         _______ _______ _______ _____ _____    ______ ____
ROOT
ATOM      1  N   UNL     1       2.484   7.841  19.191  0.00  0.00    +0.000 NA
ATOM      2  C   UNL     1       2.349   7.011  20.416  0.00  0.00    +0.000 C 
ATOM      3  C   UNL     1       1.729   5.617  20.193  0.00  0.00    +0.000 C 
ATOM      4  N   UNL     1       2.405   4.894  19.111  0.00  0.00    +0.000 N 
ATOM      5  C   UNL     1       2.856   3.603  19.325  0.00  0.00    +0.000 C 
ATOM      6  O   UNL     1       2.763   3.053  20.427  0.00  0.00    +0.000 OA
ATOM      7  C   UNL     1       2.567   5.662  17.871  0.00  0.00    +0.000 C 
ATOM      8  C   UNL     1       3.187   7.047  18.156  0.00  0.00    +0.000 C 
ENDROOT
BRANCH   1   9
ATOM      9  C   UNL     1       1.178   8.326  18.686  0.00  0.00    +0.000 C 
BRANCH   9  13
ATOM     10  C   UNL     1       0.364  12.064  19.030  0.00  0.00    +0.000 C 
ATOM     11  N   UNL     1       0.456  10.649  19.338  0.00  0.00    +0.000 N 
ATOM     12  C   UNL     1      -0.318  10.128  20.452  0.00  0.00    +0.000 C 
ATOM     13  C   UNL     1       1.174   9.843  18.457  0.00  0.00    +0.000 C 
ATOM     14  O   UNL     1       1.796  10.322  17.502  0.00  0.00    +0.000 OA
ENDBRANCH   9  13
ENDBRANCH   1   9
BRANCH   5  15
ATOM     15  C   UNL     1       3.481   2.842  18.169  0.00  0.00    +0.000 C 
BRANCH  15  16
ATOM     16  C   UNL     1       4.675   3.547  17.621  0.00  0.00    +0.000 A 
ATOM     17  C   UNL     1       5.686   4.146  18.348  0.00  0.00    +0.000 A 
ATOM     18  S   UNL     1       6.882   4.769  17.297  0.00  0.00    +0.000 S 
ATOM     19  C   UNL     1       5.986   4.201  15.931  0.00  0.00    +0.000 A 
ATOM     20  N   UNL     1       4.844   3.604  16.244  0.00  0.00    +0.000 NA
BRANCH  19  21
ATOM     21  C   UNL     1       6.506   4.412  14.565  0.00  0.00    +0.000 A 
ATOM     22  N   UNL     1       7.498   5.313  14.393  0.00  0.00    +0.000 NA
ATOM     23  C   UNL     1       7.969   5.445  13.139  0.00  0.00    +0.000 A 
ATOM     24  C   UNL     1       7.488   4.730  12.067  0.00  0.00    +0.000 A 
ATOM     25  C   UNL     1       6.474   3.844  12.350  0.00  0.00    +0.000 A 
ATOM     26  N   UNL     1       5.966   3.660  13.582  0.00  0.00    +0.000 NA
ENDBRANCH  19  21
ENDBRANCH  15  16
ENDBRANCH   5  15
TORSDOF 5
ENDMDL
MODEL 7
REMARK VINA RESULT:      -5.9      4.581      9.119
REMARK  Name = 
REMARK  7 active torsions:
REMARK  status: ('A' for Active; 'I' for Inactive)
REMARK    1  A    between atoms: C_1  and  N_2
REMARK    2  A    between atoms: N_2  and  C_3
REMARK    3  A    between atoms: C_4  and  C_6
REMARK    4  A    between atoms: C_6  and  N_7
REMARK    5  A    between atoms: C_11  and  C_13
REMARK    6  A    between atoms: C_13  and  C_14
REMARK    7  A    between atoms: C_17  and  C_18
REMARK                            x       y       z     vdW  Elec       q    Type
REMARK                         _______ _______ _______ _____ _____    ______ ____
ROOT
ATOM      1  N   UNL     1       2.947  14.936  19.412  0.00  0.00    +0.000 NA
ATOM      2  C   UNL     1       3.149  14.272  20.726  0.00  0.00    +0.000 C 
ATOM      3  C   UNL     1       1.895  13.596  21.315  0.00  0.00    +0.000 C 
ATOM      4  N   UNL     1       1.257  12.704  20.341  0.00  0.00    +0.000 N 
ATOM      5  C   UNL     1       0.953  11.402  20.700  0.00  0.00    +0.000 C 
ATOM      6  O   UNL     1       1.258  10.939  21.803  0.00  0.00    +0.000 OA
ATOM      7  C   UNL     1       1.027  13.305  19.022  0.00  0.00    +0.000 C 
ATOM      8  C   UNL     1       2.314  13.968  18.485  0.00  0.00    +0.000 C 
ENDROOT
BRANCH   1   9
ATOM      9  C   UNL     1       2.135  16.171  19.519  0.00  0.00    +0.000 C 
BRANCH   9  13
ATOM     10  C   UNL     1       1.148  18.301  16.479  0.00  0.00    +0.000 C 
ATOM     11  N   UNL     1       1.057  17.594  17.743  0.00  0.00    +0.000 N 
ATOM     12  C   UNL     1      -0.256  17.384  18.328  0.00  0.00    +0.000 C 
ATOM     13  C   UNL     1       2.226  17.034  18.254  0.00  0.00    +0.000 C 
ATOM     14  O   UNL     1       3.321  17.212  17.709  0.00  0.00    +0.000 OA
ENDBRANCH   9  13
ENDBRANCH   1   9
BRANCH   5  15
ATOM     15  C   UNL     1       0.219  10.519  19.705  0.00  0.00    +0.000 C 
BRANCH  15  16
ATOM     16  C   UNL     1       1.108   9.464  19.138  0.00  0.00    +0.000 A 
ATOM     17  C   UNL     1       1.875   9.559  17.993  0.00  0.00    +0.000 A 
ATOM     18  S   UNL     1       2.788   8.130  17.772  0.00  0.00    +0.000 S 
ATOM     19  C   UNL     1       2.113   7.467  19.219  0.00  0.00    +0.000 A 
ATOM     20  N   UNL     1       1.234   8.260  19.817  0.00  0.00    +0.000 NA
BRANCH  19  21
ATOM     21  C   UNL     1       2.518   6.123  19.678  0.00  0.00    +0.000 A 
ATOM     22  N   UNL     1       1.738   5.498  20.586  0.00  0.00    +0.000 NA
ATOM     23  C   UNL     1       2.122   4.259  20.946  0.00  0.00    +0.000 A 
ATOM     24  C   UNL     1       3.243   3.636  20.450  0.00  0.00    +0.000 A 
ATOM     25  C   UNL     1       3.972   4.363  19.536  0.00  0.00    +0.000 A 
ATOM     26  N   UNL     1       3.635   5.600  19.129  0.00  0.00    +0.000 NA
ENDBRANCH  19  21
ENDBRANCH  15  16
ENDBRANCH   5  15
TORSDOF 5
ENDMDL
MODEL 8
REMARK VINA RESULT:      -5.8      2.192      3.042
REMARK  Name = 
REMARK  7 active torsions:
REMARK  status: ('A' for Active; 'I' for Inactive)
REMARK    1  A    between atoms: C_1  and  N_2
REMARK    2  A    between atoms: N_2  and  C_3
REMARK    3  A    between atoms: C_4  and  C_6
REMARK    4  A    between atoms: C_6  and  N_7
REMARK    5  A    between atoms: C_11  and  C_13
REMARK    6  A    between atoms: C_13  and  C_14
REMARK    7  A    between atoms: C_17  and  C_18
REMARK                            x       y       z     vdW  Elec       q    Type
REMARK                         _______ _______ _______ _____ _____    ______ ____
ROOT
ATOM      1  N   UNL     1       2.470   6.562  18.327  0.00  0.00    +0.000 NA
ATOM      2  C   UNL     1       1.789   6.550  19.648  0.00  0.00    +0.000 C 
ATOM      3  C   UNL     1       1.844   7.884  20.421  0.00  0.00    +0.000 C 
ATOM      4  N   UNL     1       1.406   9.007  19.586  0.00  0.00    +0.000 N 
ATOM      5  C   UNL     1       0.439   9.877  20.060  0.00  0.00    +0.000 C 
ATOM      6  O   UNL     1      -0.121   9.704  21.147  0.00  0.00    +0.000 OA
ATOM      7  C   UNL     1       2.046   9.074  18.268  0.00  0.00    +0.000 C 
ATOM      8  C   UNL     1       1.964   7.713  17.543  0.00  0.00    +0.000 C 
ENDROOT
BRANCH   1   9
ATOM      9  C   UNL     1       3.946   6.616  18.449  0.00  0.00    +0.000 C 
BRANCH   9  13
ATOM     10  C   UNL     1       5.674   4.032  16.192  0.00  0.00    +0.000 C 
ATOM     11  N   UNL     1       4.899   4.599  17.281  0.00  0.00    +0.000 N 
ATOM     12  C   UNL     1       4.554   3.747  18.406  0.00  0.00    +0.000 C 
ATOM     13  C   UNL     1       4.650   5.969  17.249  0.00  0.00    +0.000 C 
ATOM     14  O   UNL     1       4.985   6.666  16.284  0.00  0.00    +0.000 OA
ENDBRANCH   9  13
ENDBRANCH   1   9
BRANCH   5  15
ATOM     15  C   UNL     1       0.056  11.080  19.215  0.00  0.00    +0.000 C 
BRANCH  15  16
ATOM     16  C   UNL     1      -1.252  10.883  18.527  0.00  0.00    +0.000 A 
ATOM     17  C   UNL     1      -1.520   9.996  17.502  0.00  0.00    +0.000 A 
ATOM     18  S   UNL     1      -3.174  10.067  17.075  0.00  0.00    +0.000 S 
ATOM     19  C   UNL     1      -3.441  11.274  18.285  0.00  0.00    +0.000 A 
ATOM     20  N   UNL     1      -2.348  11.622  18.950  0.00  0.00    +0.000 NA
BRANCH  19  21
ATOM     21  C   UNL     1      -4.793  11.830  18.491  0.00  0.00    +0.000 A 
ATOM     22  N   UNL     1      -5.744  11.550  17.572  0.00  0.00    +0.000 NA
ATOM     23  C   UNL     1      -6.972  12.043  17.819  0.00  0.00    +0.000 A 
ATOM     24  C   UNL     1      -7.278  12.800  18.925  0.00  0.00    +0.000 A 
ATOM     25  C   UNL     1      -6.237  13.033  19.794  0.00  0.00    +0.000 A 
ATOM     26  N   UNL     1      -4.991  12.560  19.609  0.00  0.00    +0.000 NA
ENDBRANCH  19  21
ENDBRANCH  15  16
ENDBRANCH   5  15
TORSDOF 5
ENDMDL
MODEL 9
REMARK VINA RESULT:      -5.8      3.610      8.990
REMARK  Name = 
REMARK  7 active torsions:
REMARK  status: ('A' for Active; 'I' for Inactive)
REMARK    1  A    between atoms: C_1  and  N_2
REMARK    2  A    between atoms: N_2  and  C_3
REMARK    3  A    between atoms: C_4  and  C_6
REMARK    4  A    between atoms: C_6  and  N_7
REMARK    5  A    between atoms: C_11  and  C_13
REMARK    6  A    between atoms: C_13  and  C_14
REMARK    7  A    between atoms: C_17  and  C_18
REMARK                            x       y       z     vdW  Elec       q    Type
REMARK                         _______ _______ _______ _____ _____    ______ ____
ROOT
ATOM      1  N   UNL     1      -0.358   9.850  20.887  0.00  0.00    +0.000 NA
ATOM      2  C   UNL     1      -0.001  10.107  19.468  0.00  0.00    +0.000 C 
ATOM      3  C   UNL     1       1.450   9.753  19.086  0.00  0.00    +0.000 C 
ATOM      4  N   UNL     1       1.797   8.390  19.502  0.00  0.00    +0.000 N 
ATOM      5  C   UNL     1       2.357   7.516  18.586  0.00  0.00    +0.000 C 
ATOM      6  O   UNL     1       2.520   7.825  17.402  0.00  0.00    +0.000 OA
ATOM      7  C   UNL     1       1.471   8.075  20.897  0.00  0.00    +0.000 C 
ATOM      8  C   UNL     1       0.010   8.454  21.223  0.00  0.00    +0.000 C 
ENDROOT
BRANCH   1   9
ATOM      9  C   UNL     1       0.290  10.804  21.819  0.00  0.00    +0.000 C 
BRANCH   9  13
ATOM     10  C   UNL     1      -1.923  13.934  22.050  0.00  0.00    +0.000 C 
ATOM     11  N   UNL     1      -1.376  12.620  22.333  0.00  0.00    +0.000 N 
ATOM     12  C   UNL     1      -2.124  11.729  23.204  0.00  0.00    +0.000 C 
ATOM     13  C   UNL     1      -0.233  12.234  21.637  0.00  0.00    +0.000 C 
ATOM     14  O   UNL     1       0.359  13.014  20.882  0.00  0.00    +0.000 OA
ENDBRANCH   9  13
ENDBRANCH   1   9
BRANCH   5  15
ATOM     15  C   UNL     1       2.785   6.135  19.055  0.00  0.00    +0.000 C 
BRANCH  15  16
ATOM     16  C   UNL     1       4.124   5.758  18.521  0.00  0.00    +0.000 A 
ATOM     17  C   UNL     1       5.274   5.539  19.255  0.00  0.00    +0.000 A 
ATOM     18  S   UNL     1       6.552   5.058  18.225  0.00  0.00    +0.000 S 
ATOM     19  C   UNL     1       5.499   5.166  16.858  0.00  0.00    +0.000 A 
ATOM     20  N   UNL     1       4.269   5.565  17.154  0.00  0.00    +0.000 NA
BRANCH  19  21
ATOM     21  C   UNL     1       6.002   4.839  15.509  0.00  0.00    +0.000 A 
ATOM     22  N   UNL     1       5.264   4.011  14.737  0.00  0.00    +0.000 NA
ATOM     23  C   UNL     1       5.738   3.772  13.501  0.00  0.00    +0.000 A 
ATOM     24  C   UNL     1       6.907   4.311  13.017  0.00  0.00    +0.000 A 
ATOM     25  C   UNL     1       7.585   5.135  13.886  0.00  0.00    +0.000 A 
ATOM     26  N   UNL     1       7.159   5.421  15.129  0.00  0.00    +0.000 NA
ENDBRANCH  19  21
ENDBRANCH  15  16
ENDBRANCH   5  15
TORSDOF 5
ENDMDL
