MODEL 1
REMARK VINA RESULT:      -6.8      0.000      0.000
REMARK  Name = 
REMARK  6 active torsions:
REMARK  status: ('A' for Active; 'I' for Inactive)
REMARK    1  A    between atoms: C_1  and  C_2
REMARK    2  A    between atoms: C_6  and  C_7
REMARK    3  A    between atoms: C_8  and  N_9
REMARK    4  A    between atoms: N_9  and  C_10
REMARK    5  A    between atoms: C_11  and  C_12
REMARK    6  A    between atoms: C_22  and  C_23
REMARK                            x       y       z     vdW  Elec       q    Type
REMARK                         _______ _______ _______ _____ _____    ______ ____
ROOT
ATOM      1  C   UNL     1       2.973   7.029  19.030  0.00  0.00    +0.000 A 
ATOM      2  C   UNL     1       3.499   7.242  17.760  0.00  0.00    +0.000 A 
ATOM      3  N   UNL     1       2.859   8.270  17.114  0.00  0.00    +0.000 NA
ATOM      4  C   UNL     1       1.992   8.740  17.983  0.00  0.00    +0.000 A 
ATOM      5  C   UNL     1       1.031   9.776  17.835  0.00  0.00    +0.000 A 
ATOM      6  C   UNL     1       0.269  10.144  18.879  0.00  0.00    +0.000 A 
ATOM      7  C   UNL     1       0.419   9.515  20.175  0.00  0.00    +0.000 A 
ATOM      8  C   UNL     1       1.292   8.498  20.343  0.00  0.00    +0.000 A 
ATOM      9  C   UNL     1       1.450   7.858  21.686  0.00  0.00    +0.000 C 
ATOM     10  N   UNL     1       2.069   8.087  19.221  0.00  0.00    +0.000 N 
ENDROOT
BRANCH   2  11
ATOM     11  C   UNL     1       4.516   6.466  17.035  0.00  0.00    +0.000 A 
ATOM     12  C   UNL     1       4.228   5.184  16.474  0.00  0.00    +0.000 A 
ATOM     13  C   UNL     1       5.360   4.560  15.994  0.00  0.00    +0.000 A 
ATOM     14  S   UNL     1       6.751   5.544  16.151  0.00  0.00    +0.000 S 
ATOM     15  C   UNL     1       5.842   6.804  16.868  0.00  0.00    +0.000 A 
ENDBRANCH   2  11
BRANCH   1  16
ATOM     16  N   UNL     1       3.173   6.071  19.977  0.00  0.00    +0.000 N 
ATOM     17  H   UNL     1       3.561   6.388  20.860  0.00  0.00    +0.000 HD
BRANCH  16  25
ATOM     18  C   UNL     1       5.871   4.589  19.568  0.00  0.00    +0.000 C 
ATOM     19  C   UNL     1       4.508   3.956  19.687  0.00  0.00    +0.000 A 
ATOM     20  C   UNL     1       4.486   2.552  19.530  0.00  0.00    +0.000 A 
ATOM     21  C   UNL     1       3.299   1.831  19.536  0.00  0.00    +0.000 A 
ATOM     22  C   UNL     1       2.099   2.499  19.712  0.00  0.00    +0.000 A 
ATOM     23  C   UNL     1       2.072   3.894  19.877  0.00  0.00    +0.000 A 
ATOM     24  C   UNL     1       0.726   4.529  20.122  0.00  0.00    +0.000 C 
ATOM     25  C   UNL     1       3.282   4.656  19.842  0.00  0.00    +0.000 A 
ENDBRANCH  16  25
ENDBRANCH   1  16
TORSDOF 3
ENDMDL
MODEL 2
REMARK VINA RESULT:      -6.7      0.170      1.799
REMARK  Name = 
REMARK  6 active torsions:
REMARK  status: ('A' for Active; 'I' for Inactive)
REMARK    1  A    between atoms: C_1  and  C_2
REMARK    2  A    between atoms: C_6  and  C_7
REMARK    3  A    between atoms: C_8  and  N_9
REMARK    4  A    between atoms: N_9  and  C_10
REMARK    5  A    between atoms: C_11  and  C_12
REMARK    6  A    between atoms: C_22  and  C_23
REMARK                            x       y       z     vdW  Elec       q    Type
REMARK                         _______ _______ _______ _____ _____    ______ ____
ROOT
ATOM      1  C   UNL     1       3.102   6.918  18.959  0.00  0.00    +0.000 A 
ATOM      2  C   UNL     1       3.609   7.132  17.681  0.00  0.00    +0.000 A 
ATOM      3  N   UNL     1       2.950   8.150  17.039  0.00  0.00    +0.000 NA
ATOM      4  C   UNL     1       2.088   8.613  17.917  0.00  0.00    +0.000 A 
ATOM      5  C   UNL     1       1.114   9.638  17.777  0.00  0.00    +0.000 A 
ATOM      6  C   UNL     1       0.360  10.002  18.828  0.00  0.00    +0.000 A 
ATOM      7  C   UNL     1       0.534   9.379  20.125  0.00  0.00    +0.000 A 
ATOM      8  C   UNL     1       1.421   8.374  20.286  0.00  0.00    +0.000 A 
ATOM      9  C   UNL     1       1.602   7.741  21.630  0.00  0.00    +0.000 C 
ATOM     10  N   UNL     1       2.188   7.967  19.157  0.00  0.00    +0.000 N 
ENDROOT
BRANCH   2  11
ATOM     11  C   UNL     1       4.627   6.365  16.947  0.00  0.00    +0.000 A 
ATOM     12  C   UNL     1       4.335   5.096  16.359  0.00  0.00    +0.000 A 
ATOM     13  C   UNL     1       5.466   4.475  15.874  0.00  0.00    +0.000 A 
ATOM     14  S   UNL     1       6.861   5.448  16.057  0.00  0.00    +0.000 S 
ATOM     15  C   UNL     1       5.955   6.699  16.794  0.00  0.00    +0.000 A 
ENDBRANCH   2  11
BRANCH   1  16
ATOM     16  N   UNL     1       3.325   5.967  19.907  0.00  0.00    +0.000 N 
ATOM     17  H   UNL     1       3.883   6.253  20.706  0.00  0.00    +0.000 HD
BRANCH  16  25
ATOM     18  C   UNL     1       0.644   4.410  20.080  0.00  0.00    +0.000 C 
ATOM     19  C   UNL     1       2.014   3.818  19.865  0.00  0.00    +0.000 A 
ATOM     20  C   UNL     1       2.051   2.407  19.801  0.00  0.00    +0.000 A 
ATOM     21  C   UNL     1       3.246   1.709  19.684  0.00  0.00    +0.000 A 
ATOM     22  C   UNL     1       4.438   2.409  19.615  0.00  0.00    +0.000 A 
ATOM     23  C   UNL     1       4.450   3.813  19.669  0.00  0.00    +0.000 A 
ATOM     24  C   UNL     1       5.789   4.494  19.526  0.00  0.00    +0.000 C 
ATOM     25  C   UNL     1       3.232   4.547  19.821  0.00  0.00    +0.000 A 
ENDBRANCH  16  25
ENDBRANCH   1  16
TORSDOF 3
ENDMDL
MODEL 3
REMARK VINA RESULT:      -6.6      7.289      9.523
REMARK  Name = 
REMARK  6 active torsions:
REMARK  status: ('A' for Active; 'I' for Inactive)
REMARK    1  A    between atoms: C_1  and  C_2
REMARK    2  A    between atoms: C_6  and  C_7
REMARK    3  A    between atoms: C_8  and  N_9
REMARK    4  A    between atoms: N_9  and  C_10
REMARK    5  A    between atoms: C_11  and  C_12
REMARK    6  A    between atoms: C_22  and  C_23
REMARK                            x       y       z     vdW  Elec       q    Type
REMARK                         _______ _______ _______ _____ _____    ______ ____
ROOT
ATOM      1  C   UNL     1      -4.134  12.587  19.810  0.00  0.00    +0.000 A 
ATOM      2  C   UNL     1      -4.636  11.702  18.861  0.00  0.00    +0.000 A 
ATOM      3  N   UNL     1      -5.923  11.324  19.154  0.00  0.00    +0.000 NA
ATOM      4  C   UNL     1      -6.249  12.007  20.230  0.00  0.00    +0.000 A 
ATOM      5  C   UNL     1      -7.446  11.976  20.994  0.00  0.00    +0.000 A 
ATOM      6  C   UNL     1      -7.601  12.805  22.040  0.00  0.00    +0.000 A 
ATOM      7  C   UNL     1      -6.571  13.759  22.399  0.00  0.00    +0.000 A 
ATOM      8  C   UNL     1      -5.403  13.789  21.721  0.00  0.00    +0.000 A 
ATOM      9  C   UNL     1      -4.346  14.782  22.090  0.00  0.00    +0.000 C 
ATOM     10  N   UNL     1      -5.230  12.879  20.638  0.00  0.00    +0.000 N 
ENDROOT
BRANCH   2  11
ATOM     11  C   UNL     1      -3.951  11.078  17.720  0.00  0.00    +0.000 A 
ATOM     12  C   UNL     1      -2.934  10.090  17.900  0.00  0.00    +0.000 A 
ATOM     13  C   UNL     1      -2.307   9.768  16.716  0.00  0.00    +0.000 A 
ATOM     14  S   UNL     1      -2.989  10.594  15.382  0.00  0.00    +0.000 S 
ATOM     15  C   UNL     1      -4.120  11.391  16.389  0.00  0.00    +0.000 A 
ENDBRANCH   2  11
BRANCH   1  16
ATOM     16  N   UNL     1      -2.902  13.126  20.027  0.00  0.00    +0.000 N 
ATOM     17  H   UNL     1      -2.733  14.038  19.614  0.00  0.00    +0.000 HD
BRANCH  16  25
ATOM     18  C   UNL     1      -2.425  11.895  22.838  0.00  0.00    +0.000 C 
ATOM     19  C   UNL     1      -1.455  11.901  21.684  0.00  0.00    +0.000 A 
ATOM     20  C   UNL     1      -0.190  11.337  21.965  0.00  0.00    +0.000 A 
ATOM     21  C   UNL     1       0.837  11.337  21.031  0.00  0.00    +0.000 A 
ATOM     22  C   UNL     1       0.620  11.894  19.782  0.00  0.00    +0.000 A 
ATOM     23  C   UNL     1      -0.623  12.462  19.455  0.00  0.00    +0.000 A 
ATOM     24  C   UNL     1      -0.788  12.992  18.052  0.00  0.00    +0.000 C 
ATOM     25  C   UNL     1      -1.682  12.499  20.416  0.00  0.00    +0.000 A 
ENDBRANCH  16  25
ENDBRANCH   1  16
TORSDOF 3
ENDMDL
MODEL 4
REMARK VINA RESULT:      -6.6      7.598     10.908
REMARK  Name = 
REMARK  6 active torsions:
REMARK  status: ('A' for Active; 'I' for Inactive)
REMARK    1  A    between atoms: C_1  and  C_2
REMARK    2  A    between atoms: C_6  and  C_7
REMARK    3  A    between atoms: C_8  and  N_9
REMARK    4  A    between atoms: N_9  and  C_10
REMARK    5  A    between atoms: C_11  and  C_12
REMARK    6  A    between atoms: C_22  and  C_23
REMARK                            x       y       z     vdW  Elec       q    Type
REMARK                         _______ _______ _______ _____ _____    ______ ____
ROOT
ATOM      1  C   UNL     1      -3.774  12.371  19.393  0.00  0.00    +0.000 A 
ATOM      2  C   UNL     1      -2.595  12.255  20.123  0.00  0.00    +0.000 A 
ATOM      3  N   UNL     1      -1.704  11.408  19.514  0.00  0.00    +0.000 NA
ATOM      4  C   UNL     1      -2.281  11.048  18.389  0.00  0.00    +0.000 A 
ATOM      5  C   UNL     1      -1.831  10.146  17.388  0.00  0.00    +0.000 A 
ATOM      6  C   UNL     1      -2.557   9.957  16.273  0.00  0.00    +0.000 A 
ATOM      7  C   UNL     1      -3.795  10.677  16.055  0.00  0.00    +0.000 A 
ATOM      8  C   UNL     1      -4.276  11.511  17.002  0.00  0.00    +0.000 A 
ATOM      9  C   UNL     1      -5.550  12.258  16.767  0.00  0.00    +0.000 C 
ATOM     10  N   UNL     1      -3.520  11.676  18.199  0.00  0.00    +0.000 N 
ENDROOT
BRANCH   2  11
ATOM     11  C   UNL     1      -2.264  12.810  21.445  0.00  0.00    +0.000 A 
ATOM     12  C   UNL     1      -2.789  12.250  22.650  0.00  0.00    +0.000 A 
ATOM     13  C   UNL     1      -2.495  13.022  23.753  0.00  0.00    +0.000 A 
ATOM     14  S   UNL     1      -1.530  14.376  23.350  0.00  0.00    +0.000 S 
ATOM     15  C   UNL     1      -1.510  13.935  21.697  0.00  0.00    +0.000 A 
ENDBRANCH   2  11
BRANCH   1  16
ATOM     16  N   UNL     1      -4.973  12.968  19.640  0.00  0.00    +0.000 N 
ATOM     17  H   UNL     1      -5.091  13.905  19.266  0.00  0.00    +0.000 HD
BRANCH  16  25
ATOM     18  C   UNL     1      -6.796  10.456  19.551  0.00  0.00    +0.000 C 
ATOM     19  C   UNL     1      -6.779  11.516  20.624  0.00  0.00    +0.000 A 
ATOM     20  C   UNL     1      -7.743  11.349  21.643  0.00  0.00    +0.000 A 
ATOM     21  C   UNL     1      -7.905  12.282  22.659  0.00  0.00    +0.000 A 
ATOM     22  C   UNL     1      -7.093  13.403  22.689  0.00  0.00    +0.000 A 
ATOM     23  C   UNL     1      -6.116  13.608  21.699  0.00  0.00    +0.000 A 
ATOM     24  C   UNL     1      -5.239  14.826  21.845  0.00  0.00    +0.000 C 
ATOM     25  C   UNL     1      -5.957  12.674  20.627  0.00  0.00    +0.000 A 
ENDBRANCH  16  25
ENDBRANCH   1  16
TORSDOF 3
ENDMDL
MODEL 5
REMARK VINA RESULT:      -6.4      7.268      9.500
REMARK  Name = 
REMARK  6 active torsions:
REMARK  status: ('A' for Active; 'I' for Inactive)
REMARK    1  A    between atoms: C_1  and  C_2
REMARK    2  A    between atoms: C_6  and  C_7
REMARK    3  A    between atoms: C_8  and  N_9
REMARK    4  A    between atoms: N_9  and  C_10
REMARK    5  A    between atoms: C_11  and  C_12
REMARK    6  A    between atoms: C_22  and  C_23
REMARK                            x       y       z     vdW  Elec       q    Type
REMARK                         _______ _______ _______ _____ _____    ______ ____
ROOT
ATOM      1  C   UNL     1      -4.191  12.639  19.909  0.00  0.00    +0.000 A 
ATOM      2  C   UNL     1      -4.660  11.751  18.946  0.00  0.00    +0.000 A 
ATOM      3  N   UNL     1      -5.949  11.359  19.206  0.00  0.00    +0.000 NA
ATOM      4  C   UNL     1      -6.310  12.037  20.274  0.00  0.00    +0.000 A 
ATOM      5  C   UNL     1      -7.525  11.991  21.008  0.00  0.00    +0.000 A 
ATOM      6  C   UNL     1      -7.715  12.817  22.051  0.00  0.00    +0.000 A 
ATOM      7  C   UNL     1      -6.704  13.781  22.437  0.00  0.00    +0.000 A 
ATOM      8  C   UNL     1      -5.520  13.824  21.789  0.00  0.00    +0.000 A 
ATOM      9  C   UNL     1      -4.483  14.828  22.186  0.00  0.00    +0.000 C 
ATOM     10  N   UNL     1      -5.311  12.918  20.709  0.00  0.00    +0.000 N 
ENDROOT
BRANCH   2  11
ATOM     11  C   UNL     1      -3.940  11.136  17.821  0.00  0.00    +0.000 A 
ATOM     12  C   UNL     1      -2.945  10.130  18.023  0.00  0.00    +0.000 A 
ATOM     13  C   UNL     1      -2.277   9.819  16.858  0.00  0.00    +0.000 A 
ATOM     14  S   UNL     1      -2.895  10.678  15.514  0.00  0.00    +0.000 S 
ATOM     15  C   UNL     1      -4.053  11.475  16.490  0.00  0.00    +0.000 A 
ENDBRANCH   2  11
BRANCH   1  16
ATOM     16  N   UNL     1      -2.970  13.190  20.157  0.00  0.00    +0.000 N 
ATOM     17  H   UNL     1      -2.857  14.164  19.892  0.00  0.00    +0.000 HD
BRANCH  16  25
ATOM     18  C   UNL     1      -0.715  13.049  18.027  0.00  0.00    +0.000 C 
ATOM     19  C   UNL     1      -0.654  12.517  19.437  0.00  0.00    +0.000 A 
ATOM     20  C   UNL     1       0.541  11.839  19.767  0.00  0.00    +0.000 A 
ATOM     21  C   UNL     1       0.719  11.225  21.000  0.00  0.00    +0.000 A 
ATOM     22  C   UNL     1      -0.293  11.286  21.942  0.00  0.00    +0.000 A 
ATOM     23  C   UNL     1      -1.497  11.954  21.661  0.00  0.00    +0.000 A 
ATOM     24  C   UNL     1      -2.519  12.021  22.768  0.00  0.00    +0.000 C 
ATOM     25  C   UNL     1      -1.711  12.564  20.385  0.00  0.00    +0.000 A 
ENDBRANCH  16  25
ENDBRANCH   1  16
TORSDOF 3
ENDMDL
MODEL 6
REMARK VINA RESULT:      -6.3      7.669     11.059
REMARK  Name = 
REMARK  6 active torsions:
REMARK  status: ('A' for Active; 'I' for Inactive)
REMARK    1  A    between atoms: C_1  and  C_2
REMARK    2  A    between atoms: C_6  and  C_7
REMARK    3  A    between atoms: C_8  and  N_9
REMARK    4  A    between atoms: N_9  and  C_10
REMARK    5  A    between atoms: C_11  and  C_12
REMARK    6  A    between atoms: C_22  and  C_23
REMARK                            x       y       z     vdW  Elec       q    Type
REMARK                         _______ _______ _______ _____ _____    ______ ____
ROOT
ATOM      1  C   UNL     1      -3.860  12.487  19.464  0.00  0.00    +0.000 A 
ATOM      2  C   UNL     1      -2.696  12.367  20.217  0.00  0.00    +0.000 A 
ATOM      3  N   UNL     1      -1.813  11.485  19.645  0.00  0.00    +0.000 NA
ATOM      4  C   UNL     1      -2.380  11.106  18.521  0.00  0.00    +0.000 A 
ATOM      5  C   UNL     1      -1.934  10.167  17.552  0.00  0.00    +0.000 A 
ATOM      6  C   UNL     1      -2.646   9.963  16.431  0.00  0.00    +0.000 A 
ATOM      7  C   UNL     1      -3.865  10.702  16.174  0.00  0.00    +0.000 A 
ATOM      8  C   UNL     1      -4.342  11.572  17.090  0.00  0.00    +0.000 A 
ATOM      9  C   UNL     1      -5.597  12.339  16.815  0.00  0.00    +0.000 C 
ATOM     10  N   UNL     1      -3.602  11.754  18.294  0.00  0.00    +0.000 N 
ENDROOT
BRANCH   2  11
ATOM     11  C   UNL     1      -2.374  12.951  21.527  0.00  0.00    +0.000 A 
ATOM     12  C   UNL     1      -2.909  12.420  22.741  0.00  0.00    +0.000 A 
ATOM     13  C   UNL     1      -2.622  13.217  23.828  0.00  0.00    +0.000 A 
ATOM     14  S   UNL     1      -1.649  14.558  23.402  0.00  0.00    +0.000 S 
ATOM     15  C   UNL     1      -1.617  14.079  21.760  0.00  0.00    +0.000 A 
ENDBRANCH   2  11
BRANCH   1  16
ATOM     16  N   UNL     1      -5.049  13.115  19.675  0.00  0.00    +0.000 N 
ATOM     17  H   UNL     1      -5.237  13.926  19.093  0.00  0.00    +0.000 HD
BRANCH  16  25
ATOM     18  C   UNL     1      -5.137  15.318  21.862  0.00  0.00    +0.000 C 
ATOM     19  C   UNL     1      -6.002  14.085  21.795  0.00  0.00    +0.000 A 
ATOM     20  C   UNL     1      -6.886  13.915  22.884  0.00  0.00    +0.000 A 
ATOM     21  C   UNL     1      -7.692  12.791  23.007  0.00  0.00    +0.000 A 
ATOM     22  C   UNL     1      -7.643  11.810  22.031  0.00  0.00    +0.000 A 
ATOM     23  C   UNL     1      -6.783  11.937  20.927  0.00  0.00    +0.000 A 
ATOM     24  C   UNL     1      -6.839  10.848  19.885  0.00  0.00    +0.000 C 
ATOM     25  C   UNL     1      -5.922  13.073  20.801  0.00  0.00    +0.000 A 
ENDBRANCH  16  25
ENDBRANCH   1  16
TORSDOF 3
ENDMDL
MODEL 7
REMARK VINA RESULT:      -6.2      2.053      5.443
REMARK  Name = 
REMARK  6 active torsions:
REMARK  status: ('A' for Active; 'I' for Inactive)
REMARK    1  A    between atoms: C_1  and  C_2
REMARK    2  A    between atoms: C_6  and  C_7
REMARK    3  A    between atoms: C_8  and  N_9
REMARK    4  A    between atoms: N_9  and  C_10
REMARK    5  A    between atoms: C_11  and  C_12
REMARK    6  A    between atoms: C_22  and  C_23
REMARK                            x       y       z     vdW  Elec       q    Type
REMARK                         _______ _______ _______ _____ _____    ______ ____
ROOT
ATOM      1  C   UNL     1       3.447   5.590  19.536  0.00  0.00    +0.000 A 
ATOM      2  C   UNL     1       2.331   6.393  19.751  0.00  0.00    +0.000 A 
ATOM      3  N   UNL     1       1.310   5.691  20.342  0.00  0.00    +0.000 NA
ATOM      4  C   UNL     1       1.795   4.488  20.556  0.00  0.00    +0.000 A 
ATOM      5  C   UNL     1       1.161   3.339  21.102  0.00  0.00    +0.000 A 
ATOM      6  C   UNL     1       1.860   2.207  21.289  0.00  0.00    +0.000 A 
ATOM      7  C   UNL     1       3.270   2.135  20.963  0.00  0.00    +0.000 A 
ATOM      8  C   UNL     1       3.896   3.193  20.405  0.00  0.00    +0.000 A 
ATOM      9  C   UNL     1       5.355   3.115  20.079  0.00  0.00    +0.000 C 
ATOM     10  N   UNL     1       3.139   4.377  20.173  0.00  0.00    +0.000 N 
ENDROOT
BRANCH   2  11
ATOM     11  C   UNL     1       2.095   7.785  19.339  0.00  0.00    +0.000 A 
ATOM     12  C   UNL     1       1.393   8.709  20.172  0.00  0.00    +0.000 A 
ATOM     13  C   UNL     1       1.133   9.898  19.526  0.00  0.00    +0.000 A 
ATOM     14  S   UNL     1       1.797   9.930  17.949  0.00  0.00    +0.000 S 
ATOM     15  C   UNL     1       2.426   8.349  18.126  0.00  0.00    +0.000 A 
ENDBRANCH   2  11
BRANCH   1  16
ATOM     16  N   UNL     1       4.625   5.783  18.880  0.00  0.00    +0.000 N 
ATOM     17  H   UNL     1       5.171   6.590  19.168  0.00  0.00    +0.000 HD
BRANCH  16  25
ATOM     18  C   UNL     1       2.895   3.959  17.058  0.00  0.00    +0.000 C 
ATOM     19  C   UNL     1       4.281   4.471  16.759  0.00  0.00    +0.000 A 
ATOM     20  C   UNL     1       4.842   4.004  15.549  0.00  0.00    +0.000 A 
ATOM     21  C   UNL     1       6.140   4.322  15.171  0.00  0.00    +0.000 A 
ATOM     22  C   UNL     1       6.908   5.130  15.992  0.00  0.00    +0.000 A 
ATOM     23  C   UNL     1       6.391   5.622  17.202  0.00  0.00    +0.000 A 
ATOM     24  C   UNL     1       7.278   6.543  18.003  0.00  0.00    +0.000 C 
ATOM     25  C   UNL     1       5.068   5.278  17.623  0.00  0.00    +0.000 A 
ENDBRANCH  16  25
ENDBRANCH   1  16
TORSDOF 3
ENDMDL
MODEL 8
REMARK VINA RESULT:      -6.2      7.217     10.530
REMARK  Name = 
REMARK  6 active torsions:
REMARK  status: ('A' for Active; 'I' for Inactive)
REMARK    1  A    between atoms: C_1  and  C_2
REMARK    2  A    between atoms: C_6  and  C_7
REMARK    3  A    between atoms: C_8  and  N_9
REMARK    4  A    between atoms: N_9  and  C_10
REMARK    5  A    between atoms: C_11  and  C_12
REMARK    6  A    between atoms: C_22  and  C_23
REMARK                            x       y       z     vdW  Elec       q    Type
REMARK                         _______ _______ _______ _____ _____    ______ ____
ROOT
ATOM      1  C   UNL     1      -2.896  11.978  19.476  0.00  0.00    +0.000 A 
ATOM      2  C   UNL     1      -4.190  12.458  19.655  0.00  0.00    +0.000 A 
ATOM      3  N   UNL     1      -4.966  12.246  18.543  0.00  0.00    +0.000 NA
ATOM      4  C   UNL     1      -4.196  11.588  17.704  0.00  0.00    +0.000 A 
ATOM      5  C   UNL     1      -4.468  11.149  16.380  0.00  0.00    +0.000 A 
ATOM      6  C   UNL     1      -3.552  10.434  15.705  0.00  0.00    +0.000 A 
ATOM      7  C   UNL     1      -2.285  10.076  16.310  0.00  0.00    +0.000 A 
ATOM      8  C   UNL     1      -1.976  10.511  17.551  0.00  0.00    +0.000 A 
ATOM      9  C   UNL     1      -0.670  10.131  18.175  0.00  0.00    +0.000 C 
ATOM     10  N   UNL     1      -2.936  11.302  18.246  0.00  0.00    +0.000 N 
ENDROOT
BRANCH   2  11
ATOM     11  C   UNL     1      -4.750  13.218  20.782  0.00  0.00    +0.000 A 
ATOM     12  C   UNL     1      -4.496  14.614  20.949  0.00  0.00    +0.000 A 
ATOM     13  C   UNL     1      -4.967  15.088  22.155  0.00  0.00    +0.000 A 
ATOM     14  S   UNL     1      -5.779  13.875  23.048  0.00  0.00    +0.000 S 
ATOM     15  C   UNL     1      -5.493  12.712  21.826  0.00  0.00    +0.000 A 
ENDBRANCH   2  11
BRANCH   1  16
ATOM     16  N   UNL     1      -1.755  12.068  20.214  0.00  0.00    +0.000 N 
ATOM     17  H   UNL     1      -1.210  11.215  20.301  0.00  0.00    +0.000 HD
BRANCH  16  25
ATOM     18  C   UNL     1      -2.275  11.742  23.258  0.00  0.00    +0.000 C 
ATOM     19  C   UNL     1      -1.564  12.889  22.587  0.00  0.00    +0.000 A 
ATOM     20  C   UNL     1      -1.162  13.931  23.452  0.00  0.00    +0.000 A 
ATOM     21  C   UNL     1      -0.565  15.091  22.977  0.00  0.00    +0.000 A 
ATOM     22  C   UNL     1      -0.342  15.232  21.618  0.00  0.00    +0.000 A 
ATOM     23  C   UNL     1      -0.720  14.220  20.719  0.00  0.00    +0.000 A 
ATOM     24  C   UNL     1      -0.385  14.435  19.264  0.00  0.00    +0.000 C 
ATOM     25  C   UNL     1      -1.366  13.033  21.187  0.00  0.00    +0.000 A 
ENDBRANCH  16  25
ENDBRANCH   1  16
TORSDOF 3
ENDMDL
MODEL 9
REMARK VINA RESULT:      -6.1      7.203     10.446
REMARK  Name = 
REMARK  6 active torsions:
REMARK  status: ('A' for Active; 'I' for Inactive)
REMARK    1  A    between atoms: C_1  and  C_2
REMARK    2  A    between atoms: C_6  and  C_7
REMARK    3  A    between atoms: C_8  and  N_9
REMARK    4  A    between atoms: N_9  and  C_10
REMARK    5  A    between atoms: C_11  and  C_12
REMARK    6  A    between atoms: C_22  and  C_23
REMARK                            x       y       z     vdW  Elec       q    Type
REMARK                         _______ _______ _______ _____ _____    ______ ____
ROOT
ATOM      1  C   UNL     1      -2.953  11.918  19.445  0.00  0.00    +0.000 A 
ATOM      2  C   UNL     1      -4.248  12.407  19.585  0.00  0.00    +0.000 A 
ATOM      3  N   UNL     1      -4.985  12.221  18.442  0.00  0.00    +0.000 NA
ATOM      4  C   UNL     1      -4.191  11.569  17.621  0.00  0.00    +0.000 A 
ATOM      5  C   UNL     1      -4.418  11.154  16.281  0.00  0.00    +0.000 A 
ATOM      6  C   UNL     1      -3.485  10.441  15.628  0.00  0.00    +0.000 A 
ATOM      7  C   UNL     1      -2.244  10.062  16.273  0.00  0.00    +0.000 A 
ATOM      8  C   UNL     1      -1.977  10.473  17.531  0.00  0.00    +0.000 A 
ATOM      9  C   UNL     1      -0.698  10.071  18.196  0.00  0.00    +0.000 C 
ATOM     10  N   UNL     1      -2.954  11.262  18.203  0.00  0.00    +0.000 N 
ENDROOT
BRANCH   2  11
ATOM     11  C   UNL     1      -4.842  13.155  20.703  0.00  0.00    +0.000 A 
ATOM     12  C   UNL     1      -4.554  14.537  20.923  0.00  0.00    +0.000 A 
ATOM     13  C   UNL     1      -5.072  14.993  22.116  0.00  0.00    +0.000 A 
ATOM     14  S   UNL     1      -5.966  13.784  22.931  0.00  0.00    +0.000 S 
ATOM     15  C   UNL     1      -5.654  12.645  21.693  0.00  0.00    +0.000 A 
ENDBRANCH   2  11
BRANCH   1  16
ATOM     16  N   UNL     1      -1.839  11.985  20.226  0.00  0.00    +0.000 N 
ATOM     17  H   UNL     1      -1.498  11.103  20.596  0.00  0.00    +0.000 HD
BRANCH  16  25
ATOM     18  C   UNL     1      -0.265  14.263  18.821  0.00  0.00    +0.000 C 
ATOM     19  C   UNL     1      -0.575  14.161  20.292  0.00  0.00    +0.000 A 
ATOM     20  C   UNL     1      -0.026  15.190  21.090  0.00  0.00    +0.000 A 
ATOM     21  C   UNL     1      -0.157  15.196  22.473  0.00  0.00    +0.000 A 
ATOM     22  C   UNL     1      -0.855  14.174  23.093  0.00  0.00    +0.000 A 
ATOM     23  C   UNL     1      -1.422  13.131  22.340  0.00  0.00    +0.000 A 
ATOM     24  C   UNL     1      -2.214  12.093  23.095  0.00  0.00    +0.000 C 
ATOM     25  C   UNL     1      -1.270  13.092  20.919  0.00  0.00    +0.000 A 
ENDBRANCH  16  25
ENDBRANCH   1  16
TORSDOF 3
ENDMDL
