MODEL 1
REMARK VINA RESULT:      -6.3      0.000      0.000
REMARK  Name = 
REMARK  4 active torsions:
REMARK  status: ('A' for Active; 'I' for Inactive)
REMARK    1  A    between atoms: C_1  and  O_2
REMARK    2  A    between atoms: O_2  and  C_3
REMARK    3  A    between atoms: C_6  and  S_7
REMARK    4  A    between atoms: S_7  and  C_10
REMARK                            x       y       z     vdW  Elec       q    Type
REMARK                         _______ _______ _______ _____ _____    ______ ____
ROOT
ATOM      1  C   UNL     1       6.227   5.788  16.767  0.00  0.00    +0.000 A 
ATOM      2  C   UNL     1       5.342   6.328  17.706  0.00  0.00    +0.000 A 
ATOM      3  C   UNL     1       4.165   5.656  18.049  0.00  0.00    +0.000 A 
ATOM      4  C   UNL     1       3.868   4.444  17.422  0.00  0.00    +0.000 A 
ATOM      5  C   UNL     1       4.739   3.900  16.475  0.00  0.00    +0.000 A 
ATOM      6  C   UNL     1       5.919   4.575  16.148  0.00  0.00    +0.000 A 
ENDROOT
BRANCH   4   7
ATOM      7  S   UNL     1       2.384   3.565  17.876  0.00  0.00    +0.000 S 
ATOM      8  O   UNL     1       1.280   4.337  17.323  0.00  0.00    +0.000 OA
ATOM      9  O   UNL     1       2.594   2.202  17.409  0.00  0.00    +0.000 OA
BRANCH   7  10
ATOM     10  C   UNL     1       2.254   3.547  19.646  0.00  0.00    +0.000 C 
ATOM     11  C   UNL     1       0.967   4.134  20.237  0.00  0.00    +0.000 C 
ATOM     12  N   UNL     1       0.916   2.983  21.165  0.00  0.00    +0.000 NA
ATOM     13  C   UNL     1       1.762   2.213  20.226  0.00  0.00    +0.000 C 
ATOM     14  H   UNL     1      -0.016   2.590  21.308  0.00  0.00    +0.000 HD
ENDBRANCH   7  10
ENDBRANCH   4   7
BRANCH   1  16
ATOM     15  C   UNL     1       7.617   7.583  17.452  0.00  0.00    +0.000 C 
ATOM     16  O   UNL     1       7.339   6.545  16.519  0.00  0.00    +0.000 OA
ENDBRANCH   1  16
TORSDOF 3
ENDMDL
MODEL 2
REMARK VINA RESULT:      -6.3      2.096      2.815
REMARK  Name = 
REMARK  4 active torsions:
REMARK  status: ('A' for Active; 'I' for Inactive)
REMARK    1  A    between atoms: C_1  and  O_2
REMARK    2  A    between atoms: O_2  and  C_3
REMARK    3  A    between atoms: C_6  and  S_7
REMARK    4  A    between atoms: S_7  and  C_10
REMARK                            x       y       z     vdW  Elec       q    Type
REMARK                         _______ _______ _______ _____ _____    ______ ____
ROOT
ATOM      1  C   UNL     1       6.935   5.002  15.745  0.00  0.00    +0.000 A 
ATOM      2  C   UNL     1       5.686   4.457  15.429  0.00  0.00    +0.000 A 
ATOM      3  C   UNL     1       4.815   4.034  16.436  0.00  0.00    +0.000 A 
ATOM      4  C   UNL     1       5.215   4.139  17.769  0.00  0.00    +0.000 A 
ATOM      5  C   UNL     1       6.464   4.671  18.097  0.00  0.00    +0.000 A 
ATOM      6  C   UNL     1       7.324   5.102  17.081  0.00  0.00    +0.000 A 
ENDROOT
BRANCH   4   7
ATOM      7  S   UNL     1       4.097   3.630  19.062  0.00  0.00    +0.000 S 
ATOM      8  O   UNL     1       4.841   2.686  19.884  0.00  0.00    +0.000 OA
ATOM      9  O   UNL     1       3.626   4.869  19.664  0.00  0.00    +0.000 OA
BRANCH   7  10
ATOM     10  C   UNL     1       2.716   2.795  18.321  0.00  0.00    +0.000 C 
ATOM     11  C   UNL     1       1.810   2.008  19.274  0.00  0.00    +0.000 C 
ATOM     12  N   UNL     1       0.641   2.571  18.564  0.00  0.00    +0.000 NA
ATOM     13  C   UNL     1       1.489   3.690  18.096  0.00  0.00    +0.000 C 
ATOM     14  H   UNL     1      -0.131   2.855  19.170  0.00  0.00    +0.000 HD
ENDBRANCH   7  10
ENDBRANCH   4   7
BRANCH   1  16
ATOM     15  C   UNL     1       7.278   4.874  13.402  0.00  0.00    +0.000 C 
ATOM     16  O   UNL     1       7.693   5.373  14.668  0.00  0.00    +0.000 OA
ENDBRANCH   1  16
TORSDOF 3
ENDMDL
MODEL 3
REMARK VINA RESULT:      -6.3      1.586      1.919
REMARK  Name = 
REMARK  4 active torsions:
REMARK  status: ('A' for Active; 'I' for Inactive)
REMARK    1  A    between atoms: C_1  and  O_2
REMARK    2  A    between atoms: O_2  and  C_3
REMARK    3  A    between atoms: C_6  and  S_7
REMARK    4  A    between atoms: S_7  and  C_10
REMARK                            x       y       z     vdW  Elec       q    Type
REMARK                         _______ _______ _______ _____ _____    ______ ____
ROOT
ATOM      1  C   UNL     1       6.745   6.795  17.309  0.00  0.00    +0.000 A 
ATOM      2  C   UNL     1       7.206   5.956  18.329  0.00  0.00    +0.000 A 
ATOM      3  C   UNL     1       6.399   4.933  18.833  0.00  0.00    +0.000 A 
ATOM      4  C   UNL     1       5.110   4.770  18.322  0.00  0.00    +0.000 A 
ATOM      5  C   UNL     1       4.635   5.608  17.311  0.00  0.00    +0.000 A 
ATOM      6  C   UNL     1       5.455   6.622  16.806  0.00  0.00    +0.000 A 
ENDROOT
BRANCH   4   7
ATOM      7  S   UNL     1       4.085   3.447  18.939  0.00  0.00    +0.000 S 
ATOM      8  O   UNL     1       3.631   2.715  17.766  0.00  0.00    +0.000 OA
ATOM      9  O   UNL     1       4.907   2.760  19.924  0.00  0.00    +0.000 OA
BRANCH   7  10
ATOM     10  C   UNL     1       2.681   4.156  19.763  0.00  0.00    +0.000 C 
ATOM     11  C   UNL     1       1.304   3.733  19.239  0.00  0.00    +0.000 C 
ATOM     12  N   UNL     1       0.861   3.581  20.643  0.00  0.00    +0.000 NA
ATOM     13  C   UNL     1       2.275   3.425  21.052  0.00  0.00    +0.000 C 
ATOM     14  H   UNL     1       0.280   2.759  20.822  0.00  0.00    +0.000 HD
ENDBRANCH   7  10
ENDBRANCH   4   7
BRANCH   1  16
ATOM     15  C   UNL     1       7.945   8.764  17.864  0.00  0.00    +0.000 C 
ATOM     16  O   UNL     1       7.631   7.758  16.907  0.00  0.00    +0.000 OA
ENDBRANCH   1  16
TORSDOF 3
ENDMDL
MODEL 4
REMARK VINA RESULT:      -6.2      2.229      2.817
REMARK  Name = 
REMARK  4 active torsions:
REMARK  status: ('A' for Active; 'I' for Inactive)
REMARK    1  A    between atoms: C_1  and  O_2
REMARK    2  A    between atoms: O_2  and  C_3
REMARK    3  A    between atoms: C_6  and  S_7
REMARK    4  A    between atoms: S_7  and  C_10
REMARK                            x       y       z     vdW  Elec       q    Type
REMARK                         _______ _______ _______ _____ _____    ______ ____
ROOT
ATOM      1  C   UNL     1       6.879   5.053  15.514  0.00  0.00    +0.000 A 
ATOM      2  C   UNL     1       7.445   4.864  16.779  0.00  0.00    +0.000 A 
ATOM      3  C   UNL     1       6.644   4.554  17.881  0.00  0.00    +0.000 A 
ATOM      4  C   UNL     1       5.262   4.456  17.711  0.00  0.00    +0.000 A 
ATOM      5  C   UNL     1       4.684   4.652  16.455  0.00  0.00    +0.000 A 
ATOM      6  C   UNL     1       5.496   4.951  15.356  0.00  0.00    +0.000 A 
ENDROOT
BRANCH   4   7
ATOM      7  S   UNL     1       4.237   4.030  19.107  0.00  0.00    +0.000 S 
ATOM      8  O   UNL     1       4.953   2.985  19.823  0.00  0.00    +0.000 OA
ATOM      9  O   UNL     1       3.974   5.294  19.782  0.00  0.00    +0.000 OA
BRANCH   7  10
ATOM     10  C   UNL     1       2.700   3.377  18.504  0.00  0.00    +0.000 C 
ATOM     11  C   UNL     1       2.742   1.948  17.952  0.00  0.00    +0.000 C 
ATOM     12  N   UNL     1       1.485   1.672  18.682  0.00  0.00    +0.000 NA
ATOM     13  C   UNL     1       1.793   2.793  19.597  0.00  0.00    +0.000 C 
ATOM     14  H   UNL     1       1.447   0.758  19.137  0.00  0.00    +0.000 HD
ENDBRANCH   7  10
ENDBRANCH   4   7
BRANCH   1  16
ATOM     15  C   UNL     1       7.416   4.937  13.207  0.00  0.00    +0.000 C 
ATOM     16  O   UNL     1       7.770   5.355  14.520  0.00  0.00    +0.000 OA
ENDBRANCH   1  16
TORSDOF 3
ENDMDL
MODEL 5
REMARK VINA RESULT:      -6.2      0.949      1.011
REMARK  Name = 
REMARK  4 active torsions:
REMARK  status: ('A' for Active; 'I' for Inactive)
REMARK    1  A    between atoms: C_1  and  O_2
REMARK    2  A    between atoms: O_2  and  C_3
REMARK    3  A    between atoms: C_6  and  S_7
REMARK    4  A    between atoms: S_7  and  C_10
REMARK                            x       y       z     vdW  Elec       q    Type
REMARK                         _______ _______ _______ _____ _____    ______ ____
ROOT
ATOM      1  C   UNL     1       6.644   5.506  17.211  0.00  0.00    +0.000 A 
ATOM      2  C   UNL     1       6.135   5.477  18.513  0.00  0.00    +0.000 A 
ATOM      3  C   UNL     1       5.037   4.675  18.834  0.00  0.00    +0.000 A 
ATOM      4  C   UNL     1       4.434   3.915  17.830  0.00  0.00    +0.000 A 
ATOM      5  C   UNL     1       4.926   3.943  16.524  0.00  0.00    +0.000 A 
ATOM      6  C   UNL     1       6.033   4.741  16.216  0.00  0.00    +0.000 A 
ENDROOT
BRANCH   4   7
ATOM      7  S   UNL     1       3.050   2.865  18.238  0.00  0.00    +0.000 S 
ATOM      8  O   UNL     1       2.135   2.956  17.110  0.00  0.00    +0.000 OA
ATOM      9  O   UNL     1       3.639   1.575  18.566  0.00  0.00    +0.000 OA
BRANCH   7  10
ATOM     10  C   UNL     1       2.256   3.512  19.688  0.00  0.00    +0.000 C 
ATOM     11  C   UNL     1       0.790   3.112  19.892  0.00  0.00    +0.000 C 
ATOM     12  N   UNL     1       1.097   2.873  21.320  0.00  0.00    +0.000 NA
ATOM     13  C   UNL     1       2.523   2.703  20.965  0.00  0.00    +0.000 C 
ATOM     14  H   UNL     1       0.662   2.038  21.717  0.00  0.00    +0.000 HD
ENDBRANCH   7  10
ENDBRANCH   4   7
BRANCH   1  16
ATOM     15  C   UNL     1       7.615   7.635  17.594  0.00  0.00    +0.000 C 
ATOM     16  O   UNL     1       7.718   6.333  17.027  0.00  0.00    +0.000 OA
ENDBRANCH   1  16
TORSDOF 3
ENDMDL
MODEL 6
REMARK VINA RESULT:      -6.1      1.429      1.775
REMARK  Name = 
REMARK  4 active torsions:
REMARK  status: ('A' for Active; 'I' for Inactive)
REMARK    1  A    between atoms: C_1  and  O_2
REMARK    2  A    between atoms: O_2  and  C_3
REMARK    3  A    between atoms: C_6  and  S_7
REMARK    4  A    between atoms: S_7  and  C_10
REMARK                            x       y       z     vdW  Elec       q    Type
REMARK                         _______ _______ _______ _____ _____    ______ ____
ROOT
ATOM      1  C   UNL     1       6.126   6.000  17.047  0.00  0.00    +0.000 A 
ATOM      2  C   UNL     1       6.252   5.688  18.405  0.00  0.00    +0.000 A 
ATOM      3  C   UNL     1       5.500   4.658  18.974  0.00  0.00    +0.000 A 
ATOM      4  C   UNL     1       4.598   3.953  18.176  0.00  0.00    +0.000 A 
ATOM      5  C   UNL     1       4.455   4.262  16.821  0.00  0.00    +0.000 A 
ATOM      6  C   UNL     1       5.221   5.287  16.258  0.00  0.00    +0.000 A 
ENDROOT
BRANCH   4   7
ATOM      7  S   UNL     1       3.656   2.616  18.889  0.00  0.00    +0.000 S 
ATOM      8  O   UNL     1       3.726   1.524  17.929  0.00  0.00    +0.000 OA
ATOM      9  O   UNL     1       4.220   2.424  20.217  0.00  0.00    +0.000 OA
BRANCH   7  10
ATOM     10  C   UNL     1       1.968   3.139  19.057  0.00  0.00    +0.000 C 
ATOM     11  C   UNL     1       1.230   2.654  20.310  0.00  0.00    +0.000 C 
ATOM     12  N   UNL     1       0.678   4.018  20.464  0.00  0.00    +0.000 NA
ATOM     13  C   UNL     1       1.802   4.543  19.657  0.00  0.00    +0.000 C 
ATOM     14  H   UNL     1       0.655   4.363  21.425  0.00  0.00    +0.000 HD
ENDBRANCH   7  10
ENDBRANCH   4   7
BRANCH   1  16
ATOM     15  C   UNL     1       7.678   7.702  17.610  0.00  0.00    +0.000 C 
ATOM     16  O   UNL     1       6.915   7.030  16.614  0.00  0.00    +0.000 OA
ENDBRANCH   1  16
TORSDOF 3
ENDMDL
MODEL 7
REMARK VINA RESULT:      -6.1      1.486      1.791
REMARK  Name = 
REMARK  4 active torsions:
REMARK  status: ('A' for Active; 'I' for Inactive)
REMARK    1  A    between atoms: C_1  and  O_2
REMARK    2  A    between atoms: O_2  and  C_3
REMARK    3  A    between atoms: C_6  and  S_7
REMARK    4  A    between atoms: S_7  and  C_10
REMARK                            x       y       z     vdW  Elec       q    Type
REMARK                         _______ _______ _______ _____ _____    ______ ____
ROOT
ATOM      1  C   UNL     1       6.541   6.553  17.313  0.00  0.00    +0.000 A 
ATOM      2  C   UNL     1       5.145   6.622  17.266  0.00  0.00    +0.000 A 
ATOM      3  C   UNL     1       4.360   5.574  17.752  0.00  0.00    +0.000 A 
ATOM      4  C   UNL     1       4.987   4.439  18.269  0.00  0.00    +0.000 A 
ATOM      5  C   UNL     1       6.380   4.353  18.312  0.00  0.00    +0.000 A 
ATOM      6  C   UNL     1       7.157   5.413  17.833  0.00  0.00    +0.000 A 
ENDROOT
BRANCH   4   7
ATOM      7  S   UNL     1       3.992   3.109  18.920  0.00  0.00    +0.000 S 
ATOM      8  O   UNL     1       3.666   2.261  17.782  0.00  0.00    +0.000 OA
ATOM      9  O   UNL     1       4.775   2.552  20.013  0.00  0.00    +0.000 OA
BRANCH   7  10
ATOM     10  C   UNL     1       2.495   3.794  19.584  0.00  0.00    +0.000 C 
ATOM     11  C   UNL     1       1.233   2.937  19.433  0.00  0.00    +0.000 C 
ATOM     12  N   UNL     1       0.890   3.267  20.834  0.00  0.00    +0.000 NA
ATOM     13  C   UNL     1       2.315   3.567  21.093  0.00  0.00    +0.000 C 
ATOM     14  H   UNL     1       0.520   2.487  21.379  0.00  0.00    +0.000 HD
ENDBRANCH   7  10
ENDBRANCH   4   7
BRANCH   1  16
ATOM     15  C   UNL     1       7.874   8.467  17.741  0.00  0.00    +0.000 C 
ATOM     16  O   UNL     1       7.193   7.643  16.802  0.00  0.00    +0.000 OA
ENDBRANCH   1  16
TORSDOF 3
ENDMDL
MODEL 8
REMARK VINA RESULT:      -6.1      2.933      5.749
REMARK  Name = 
REMARK  4 active torsions:
REMARK  status: ('A' for Active; 'I' for Inactive)
REMARK    1  A    between atoms: C_1  and  O_2
REMARK    2  A    between atoms: O_2  and  C_3
REMARK    3  A    between atoms: C_6  and  S_7
REMARK    4  A    between atoms: S_7  and  C_10
REMARK                            x       y       z     vdW  Elec       q    Type
REMARK                         _______ _______ _______ _____ _____    ______ ____
ROOT
ATOM      1  C   UNL     1       2.114   3.570  17.858  0.00  0.00    +0.000 A 
ATOM      2  C   UNL     1       2.205   4.960  17.987  0.00  0.00    +0.000 A 
ATOM      3  C   UNL     1       3.363   5.640  17.602  0.00  0.00    +0.000 A 
ATOM      4  C   UNL     1       4.446   4.911  17.108  0.00  0.00    +0.000 A 
ATOM      5  C   UNL     1       4.371   3.521  16.984  0.00  0.00    +0.000 A 
ATOM      6  C   UNL     1       3.203   2.852  17.361  0.00  0.00    +0.000 A 
ENDROOT
BRANCH   4   7
ATOM      7  S   UNL     1       5.918   5.773  16.587  0.00  0.00    +0.000 S 
ATOM      8  O   UNL     1       6.871   4.741  16.208  0.00  0.00    +0.000 OA
ATOM      9  O   UNL     1       5.464   6.718  15.576  0.00  0.00    +0.000 OA
BRANCH   7  10
ATOM     10  C   UNL     1       6.561   6.683  17.968  0.00  0.00    +0.000 C 
ATOM     11  C   UNL     1       7.650   5.985  18.791  0.00  0.00    +0.000 C 
ATOM     12  N   UNL     1       8.397   7.262  18.811  0.00  0.00    +0.000 NA
ATOM     13  C   UNL     1       7.661   7.690  17.601  0.00  0.00    +0.000 C 
ATOM     14  H   UNL     1       9.405   7.170  18.678  0.00  0.00    +0.000 HD
ENDBRANCH   7  10
ENDBRANCH   4   7
BRANCH   1  16
ATOM     15  C   UNL     1       0.731   2.943  19.680  0.00  0.00    +0.000 C 
ATOM     16  O   UNL     1       0.928   3.027  18.273  0.00  0.00    +0.000 OA
ENDBRANCH   1  16
TORSDOF 3
ENDMDL
MODEL 9
REMARK VINA RESULT:      -6.1      1.731      2.341
REMARK  Name = 
REMARK  4 active torsions:
REMARK  status: ('A' for Active; 'I' for Inactive)
REMARK    1  A    between atoms: C_1  and  O_2
REMARK    2  A    between atoms: O_2  and  C_3
REMARK    3  A    between atoms: C_6  and  S_7
REMARK    4  A    between atoms: S_7  and  C_10
REMARK                            x       y       z     vdW  Elec       q    Type
REMARK                         _______ _______ _______ _____ _____    ______ ____
ROOT
ATOM      1  C   UNL     1       6.092   5.114  16.380  0.00  0.00    +0.000 A 
ATOM      2  C   UNL     1       5.073   4.244  15.975  0.00  0.00    +0.000 A 
ATOM      3  C   UNL     1       4.388   3.463  16.908  0.00  0.00    +0.000 A 
ATOM      4  C   UNL     1       4.748   3.540  18.255  0.00  0.00    +0.000 A 
ATOM      5  C   UNL     1       5.770   4.397  18.670  0.00  0.00    +0.000 A 
ATOM      6  C   UNL     1       6.442   5.183  17.729  0.00  0.00    +0.000 A 
ENDROOT
BRANCH   4   7
ATOM      7  S   UNL     1       3.857   2.568  19.456  0.00  0.00    +0.000 S 
ATOM      8  O   UNL     1       3.176   1.527  18.700  0.00  0.00    +0.000 OA
ATOM      9  O   UNL     1       4.854   2.183  20.445  0.00  0.00    +0.000 OA
BRANCH   7  10
ATOM     10  C   UNL     1       2.649   3.605  20.241  0.00  0.00    +0.000 C 
ATOM     11  C   UNL     1       1.512   4.115  19.348  0.00  0.00    +0.000 C 
ATOM     12  N   UNL     1       0.565   3.796  20.440  0.00  0.00    +0.000 NA
ATOM     13  C   UNL     1       1.548   2.834  20.985  0.00  0.00    +0.000 C 
ATOM     14  H   UNL     1      -0.312   3.372  20.134  0.00  0.00    +0.000 HD
ENDBRANCH   7  10
ENDBRANCH   4   7
BRANCH   1  16
ATOM     15  C   UNL     1       7.115   5.066  14.241  0.00  0.00    +0.000 C 
ATOM     16  O   UNL     1       6.686   5.820  15.369  0.00  0.00    +0.000 OA
ENDBRANCH   1  16
TORSDOF 3
ENDMDL
