MODEL 1
REMARK VINA RESULT:      -7.7      0.000      0.000
REMARK  Name = 
REMARK  12 active torsions:
REMARK  status: ('A' for Active; 'I' for Inactive)
REMARK    1  A    between atoms: C_1  and  C_2
REMARK    2  A    between atoms: C_2  and  O_3
REMARK    3  A    between atoms: O_3  and  C_4
REMARK    4  A    between atoms: C_10  and  C_11
REMARK    5  A    between atoms: C_11  and  C_13
REMARK    6  A    between atoms: C_13  and  N_14
REMARK    7  A    between atoms: C_13  and  C_25
REMARK    8  A    between atoms: C_15  and  O_17
REMARK    9  A    between atoms: O_17  and  C_18
REMARK   10  A    between atoms: C_18  and  C_19
REMARK   11  A    between atoms: C_25  and  C_26
REMARK   12  A    between atoms: C_25  and  C_27
REMARK                            x       y       z     vdW  Elec       q    Type
REMARK                         _______ _______ _______ _____ _____    ______ ____
ROOT
ATOM      1  C   UNL     1       2.801   3.418  19.620  0.00  0.00    +0.000 C 
ENDROOT
BRANCH   1   2
ATOM      2  N   UNL     1       2.919   4.872  19.815  0.00  0.00    +0.000 N 
ATOM      3  C   UNL     1       1.982   5.625  20.465  0.00  0.00    +0.000 C 
ATOM      4  O   UNL     1       0.944   5.187  20.933  0.00  0.00    +0.000 OA
ATOM      5  H   UNL     1       3.782   5.345  19.577  0.00  0.00    +0.000 HD
BRANCH   3   6
ATOM      6  O   UNL     1       2.344   6.932  20.447  0.00  0.00    +0.000 OA
BRANCH   6   7
ATOM      7  C   UNL     1       2.079   7.620  19.214  0.00  0.00    +0.000 C 
BRANCH   7   8
ATOM      8  C   UNL     1       1.203   8.831  19.410  0.00  0.00    +0.000 A 
ATOM      9  C   UNL     1       0.672   9.145  20.671  0.00  0.00    +0.000 A 
ATOM     10  C   UNL     1      -0.141  10.269  20.839  0.00  0.00    +0.000 A 
ATOM     11  C   UNL     1      -0.426  11.095  19.753  0.00  0.00    +0.000 A 
ATOM     12  C   UNL     1       0.109  10.803  18.500  0.00  0.00    +0.000 A 
ATOM     13  C   UNL     1       0.916   9.676  18.329  0.00  0.00    +0.000 A 
ENDBRANCH   7   8
ENDBRANCH   6   7
ENDBRANCH   3   6
ENDBRANCH   1   2
BRANCH   1  14
ATOM     14  C   UNL     1       1.858   3.115  18.405  0.00  0.00    +0.000 C 
ATOM     15  C   UNL     1       0.534   2.459  18.831  0.00  0.00    +0.000 C 
ATOM     16  C   UNL     1       1.522   4.362  17.577  0.00  0.00    +0.000 C 
ENDBRANCH   1  14
BRANCH   1  17
ATOM     17  C   UNL     1       4.220   2.863  19.337  0.00  0.00    +0.000 C 
ATOM     18  O   UNL     1       4.437   1.656  19.495  0.00  0.00    +0.000 OA
BRANCH  17  25
ATOM     19  C   UNL     1       6.701   6.056  16.540  0.00  0.00    +0.000 A 
ATOM     20  C   UNL     1       7.643   7.029  16.927  0.00  0.00    +0.000 A 
ATOM     21  C   UNL     1       8.101   7.139  18.243  0.00  0.00    +0.000 A 
ATOM     22  C   UNL     1       7.659   6.265  19.237  0.00  0.00    +0.000 A 
ATOM     23  C   UNL     1       6.730   5.312  18.828  0.00  0.00    +0.000 A 
ATOM     24  O   UNL     1       6.128   4.378  19.619  0.00  0.00    +0.000 OA
ATOM     25  C   UNL     1       5.218   3.775  18.793  0.00  0.00    +0.000 A 
ATOM     26  N   UNL     1       5.284   4.174  17.531  0.00  0.00    +0.000 NA
ATOM     27  C   UNL     1       6.228   5.180  17.542  0.00  0.00    +0.000 A 
BRANCH  19  28
ATOM     28  O   UNL     1       6.212   5.933  15.259  0.00  0.00    +0.000 OA
BRANCH  28  30
ATOM     29  C   UNL     1       5.969   3.947  13.925  0.00  0.00    +0.000 C 
ATOM     30  C   UNL     1       6.920   5.007  14.422  0.00  0.00    +0.000 C 
ENDBRANCH  28  30
ENDBRANCH  19  28
ENDBRANCH  17  25
ENDBRANCH   1  17
TORSDOF 9
ENDMDL
MODEL 2
REMARK VINA RESULT:      -7.4      2.830      6.990
REMARK  Name = 
REMARK  12 active torsions:
REMARK  status: ('A' for Active; 'I' for Inactive)
REMARK    1  A    between atoms: C_1  and  C_2
REMARK    2  A    between atoms: C_2  and  O_3
REMARK    3  A    between atoms: O_3  and  C_4
REMARK    4  A    between atoms: C_10  and  C_11
REMARK    5  A    between atoms: C_11  and  C_13
REMARK    6  A    between atoms: C_13  and  N_14
REMARK    7  A    between atoms: C_13  and  C_25
REMARK    8  A    between atoms: C_15  and  O_17
REMARK    9  A    between atoms: O_17  and  C_18
REMARK   10  A    between atoms: C_18  and  C_19
REMARK   11  A    between atoms: C_25  and  C_26
REMARK   12  A    between atoms: C_25  and  C_27
REMARK                            x       y       z     vdW  Elec       q    Type
REMARK                         _______ _______ _______ _____ _____    ______ ____
ROOT
ATOM      1  C   UNL     1       6.563   5.483  16.614  0.00  0.00    +0.000 C 
ENDROOT
BRANCH   1   2
ATOM      2  N   UNL     1       7.507   6.603  16.761  0.00  0.00    +0.000 N 
ATOM      3  C   UNL     1       7.175   7.800  17.331  0.00  0.00    +0.000 C 
ATOM      4  O   UNL     1       6.066   8.080  17.758  0.00  0.00    +0.000 OA
ATOM      5  H   UNL     1       8.489   6.467  16.554  0.00  0.00    +0.000 HD
BRANCH   3   6
ATOM      6  O   UNL     1       8.234   8.645  17.286  0.00  0.00    +0.000 OA
BRANCH   6   7
ATOM      7  C   UNL     1       8.678   9.133  18.563  0.00  0.00    +0.000 C 
BRANCH   7   8
ATOM      8  C   UNL     1       9.151  10.564  18.496  0.00  0.00    +0.000 A 
ATOM      9  C   UNL     1       8.518  11.499  17.663  0.00  0.00    +0.000 A 
ATOM     10  C   UNL     1       8.968  12.820  17.609  0.00  0.00    +0.000 A 
ATOM     11  C   UNL     1      10.049  13.224  18.390  0.00  0.00    +0.000 A 
ATOM     12  C   UNL     1      10.675  12.308  19.233  0.00  0.00    +0.000 A 
ATOM     13  C   UNL     1      10.231  10.985  19.284  0.00  0.00    +0.000 A 
ENDBRANCH   7   8
ENDBRANCH   6   7
ENDBRANCH   3   6
ENDBRANCH   1   2
BRANCH   1  14
ATOM     14  C   UNL     1       6.999   4.571  15.416  0.00  0.00    +0.000 C 
ATOM     15  C   UNL     1       5.887   3.606  14.970  0.00  0.00    +0.000 C 
ATOM     16  C   UNL     1       7.455   5.366  14.186  0.00  0.00    +0.000 C 
ENDBRANCH   1  14
BRANCH   1  17
ATOM     17  C   UNL     1       6.588   4.669  17.932  0.00  0.00    +0.000 C 
ATOM     18  O   UNL     1       7.664   4.211  18.336  0.00  0.00    +0.000 OA
BRANCH  17  25
ATOM     19  C   UNL     1       2.322   5.585  20.198  0.00  0.00    +0.000 A 
ATOM     20  C   UNL     1       1.254   4.707  20.467  0.00  0.00    +0.000 A 
ATOM     21  C   UNL     1       1.330   3.338  20.196  0.00  0.00    +0.000 A 
ATOM     22  C   UNL     1       2.489   2.770  19.664  0.00  0.00    +0.000 A 
ATOM     23  C   UNL     1       3.530   3.659  19.410  0.00  0.00    +0.000 A 
ATOM     24  O   UNL     1       4.740   3.351  18.861  0.00  0.00    +0.000 OA
ATOM     25  C   UNL     1       5.353   4.564  18.699  0.00  0.00    +0.000 A 
ATOM     26  N   UNL     1       4.678   5.585  19.205  0.00  0.00    +0.000 NA
ATOM     27  C   UNL     1       3.493   5.026  19.639  0.00  0.00    +0.000 A 
BRANCH  19  28
ATOM     28  O   UNL     1       2.274   6.941  20.431  0.00  0.00    +0.000 OA
BRANCH  28  30
ATOM     29  C   UNL     1       0.858   8.857  20.756  0.00  0.00    +0.000 C 
ATOM     30  C   UNL     1       1.086   7.404  21.090  0.00  0.00    +0.000 C 
ENDBRANCH  28  30
ENDBRANCH  19  28
ENDBRANCH  17  25
ENDBRANCH   1  17
TORSDOF 9
ENDMDL
MODEL 3
REMARK VINA RESULT:      -7.3      1.943      6.924
REMARK  Name = 
REMARK  12 active torsions:
REMARK  status: ('A' for Active; 'I' for Inactive)
REMARK    1  A    between atoms: C_1  and  C_2
REMARK    2  A    between atoms: C_2  and  O_3
REMARK    3  A    between atoms: O_3  and  C_4
REMARK    4  A    between atoms: C_10  and  C_11
REMARK    5  A    between atoms: C_11  and  C_13
REMARK    6  A    between atoms: C_13  and  N_14
REMARK    7  A    between atoms: C_13  and  C_25
REMARK    8  A    between atoms: C_15  and  O_17
REMARK    9  A    between atoms: O_17  and  C_18
REMARK   10  A    between atoms: C_18  and  C_19
REMARK   11  A    between atoms: C_25  and  C_26
REMARK   12  A    between atoms: C_25  and  C_27
REMARK                            x       y       z     vdW  Elec       q    Type
REMARK                         _______ _______ _______ _____ _____    ______ ____
ROOT
ATOM      1  C   UNL     1       4.254   6.269  18.340  0.00  0.00    +0.000 C 
ENDROOT
BRANCH   1   2
ATOM      2  N   UNL     1       4.455   4.824  18.527  0.00  0.00    +0.000 N 
ATOM      3  C   UNL     1       5.467   4.292  19.276  0.00  0.00    +0.000 C 
ATOM      4  O   UNL     1       6.321   4.947  19.850  0.00  0.00    +0.000 OA
ATOM      5  H   UNL     1       3.753   4.169  18.201  0.00  0.00    +0.000 HD
BRANCH   3   6
ATOM      6  O   UNL     1       5.420   2.938  19.226  0.00  0.00    +0.000 OA
BRANCH   6   7
ATOM      7  C   UNL     1       4.603   2.320  20.234  0.00  0.00    +0.000 C 
BRANCH   7   8
ATOM      8  C   UNL     1       3.133   2.589  20.025  0.00  0.00    +0.000 A 
ATOM      9  C   UNL     1       2.414   3.411  20.905  0.00  0.00    +0.000 A 
ATOM     10  C   UNL     1       1.052   3.651  20.701  0.00  0.00    +0.000 A 
ATOM     11  C   UNL     1       0.397   3.077  19.613  0.00  0.00    +0.000 A 
ATOM     12  C   UNL     1       1.104   2.271  18.723  0.00  0.00    +0.000 A 
ATOM     13  C   UNL     1       2.464   2.026  18.929  0.00  0.00    +0.000 A 
ENDBRANCH   7   8
ENDBRANCH   6   7
ENDBRANCH   3   6
ENDBRANCH   1   2
BRANCH   1  14
ATOM     14  C   UNL     1       4.931   6.735  17.006  0.00  0.00    +0.000 C 
ATOM     15  C   UNL     1       6.339   7.315  17.226  0.00  0.00    +0.000 C 
ATOM     16  C   UNL     1       5.040   5.616  15.961  0.00  0.00    +0.000 C 
ENDBRANCH   1  14
BRANCH   1  17
ATOM     17  C   UNL     1       2.728   6.529  18.275  0.00  0.00    +0.000 C 
ATOM     18  O   UNL     1       2.008   5.733  17.660  0.00  0.00    +0.000 OA
BRANCH  17  25
ATOM     19  C   UNL     1       0.429  10.650  19.656  0.00  0.00    +0.000 A 
ATOM     20  C   UNL     1      -0.127  10.978  20.907  0.00  0.00    +0.000 A 
ATOM     21  C   UNL     1       0.013  10.150  22.025  0.00  0.00    +0.000 A 
ATOM     22  C   UNL     1       0.740   8.961  21.955  0.00  0.00    +0.000 A 
ATOM     23  C   UNL     1       1.280   8.660  20.708  0.00  0.00    +0.000 A 
ATOM     24  O   UNL     1       1.995   7.544  20.383  0.00  0.00    +0.000 OA
ATOM     25  C   UNL     1       2.188   7.651  19.032  0.00  0.00    +0.000 A 
ATOM     26  N   UNL     1       1.759   8.791  18.511  0.00  0.00    +0.000 NA
ATOM     27  C   UNL     1       1.147   9.437  19.566  0.00  0.00    +0.000 A 
BRANCH  19  28
ATOM     28  O   UNL     1       0.292  11.430  18.530  0.00  0.00    +0.000 OA
BRANCH  28  30
ATOM     29  C   UNL     1       2.262  12.809  18.558  0.00  0.00    +0.000 C 
ATOM     30  C   UNL     1       0.758  12.781  18.664  0.00  0.00    +0.000 C 
ENDBRANCH  28  30
ENDBRANCH  19  28
ENDBRANCH  17  25
ENDBRANCH   1  17
TORSDOF 9
ENDMDL
MODEL 4
REMARK VINA RESULT:      -7.3      1.333      2.754
REMARK  Name = 
REMARK  12 active torsions:
REMARK  status: ('A' for Active; 'I' for Inactive)
REMARK    1  A    between atoms: C_1  and  C_2
REMARK    2  A    between atoms: C_2  and  O_3
REMARK    3  A    between atoms: O_3  and  C_4
REMARK    4  A    between atoms: C_10  and  C_11
REMARK    5  A    between atoms: C_11  and  C_13
REMARK    6  A    between atoms: C_13  and  N_14
REMARK    7  A    between atoms: C_13  and  C_25
REMARK    8  A    between atoms: C_15  and  O_17
REMARK    9  A    between atoms: O_17  and  C_18
REMARK   10  A    between atoms: C_18  and  C_19
REMARK   11  A    between atoms: C_25  and  C_26
REMARK   12  A    between atoms: C_25  and  C_27
REMARK                            x       y       z     vdW  Elec       q    Type
REMARK                         _______ _______ _______ _____ _____    ______ ____
ROOT
ATOM      1  C   UNL     1       3.110   4.216  19.758  0.00  0.00    +0.000 C 
ENDROOT
BRANCH   1   2
ATOM      2  N   UNL     1       2.691   5.247  18.796  0.00  0.00    +0.000 N 
ATOM      3  C   UNL     1       2.425   6.541  19.143  0.00  0.00    +0.000 C 
ATOM      4  O   UNL     1       2.484   6.979  20.281  0.00  0.00    +0.000 OA
ATOM      5  H   UNL     1       2.712   5.049  17.802  0.00  0.00    +0.000 HD
BRANCH   3   6
ATOM      6  O   UNL     1       2.021   7.241  18.054  0.00  0.00    +0.000 OA
BRANCH   6   7
ATOM      7  C   UNL     1       2.260   8.657  18.118  0.00  0.00    +0.000 C 
BRANCH   7   8
ATOM      8  C   UNL     1       1.023   9.429  18.503  0.00  0.00    +0.000 A 
ATOM      9  C   UNL     1      -0.070   9.532  17.628  0.00  0.00    +0.000 A 
ATOM     10  C   UNL     1      -1.209  10.252  17.997  0.00  0.00    +0.000 A 
ATOM     11  C   UNL     1      -1.272  10.871  19.244  0.00  0.00    +0.000 A 
ATOM     12  C   UNL     1      -0.200  10.763  20.127  0.00  0.00    +0.000 A 
ATOM     13  C   UNL     1       0.942  10.048  19.758  0.00  0.00    +0.000 A 
ENDBRANCH   7   8
ENDBRANCH   6   7
ENDBRANCH   3   6
ENDBRANCH   1   2
BRANCH   1  14
ATOM     14  C   UNL     1       1.997   3.121  19.888  0.00  0.00    +0.000 C 
ATOM     15  C   UNL     1       0.767   3.615  20.670  0.00  0.00    +0.000 C 
ATOM     16  C   UNL     1       1.511   2.589  18.533  0.00  0.00    +0.000 C 
ENDBRANCH   1  14
BRANCH   1  17
ATOM     17  C   UNL     1       4.417   3.577  19.225  0.00  0.00    +0.000 C 
ATOM     18  O   UNL     1       4.934   2.647  19.857  0.00  0.00    +0.000 OA
BRANCH  17  25
ATOM     19  C   UNL     1       7.122   5.569  15.635  0.00  0.00    +0.000 A 
ATOM     20  C   UNL     1       7.218   5.190  14.282  0.00  0.00    +0.000 A 
ATOM     21  C   UNL     1       6.412   4.190  13.730  0.00  0.00    +0.000 A 
ATOM     22  C   UNL     1       5.447   3.535  14.498  0.00  0.00    +0.000 A 
ATOM     23  C   UNL     1       5.372   3.929  15.831  0.00  0.00    +0.000 A 
ATOM     24  O   UNL     1       4.540   3.414  16.782  0.00  0.00    +0.000 OA
ATOM     25  C   UNL     1       4.930   4.031  17.939  0.00  0.00    +0.000 A 
ATOM     26  N   UNL     1       5.850   4.969  17.770  0.00  0.00    +0.000 NA
ATOM     27  C   UNL     1       6.166   4.897  16.428  0.00  0.00    +0.000 A 
BRANCH  19  28
ATOM     28  O   UNL     1       7.915   6.532  16.217  0.00  0.00    +0.000 OA
BRANCH  28  30
ATOM     29  C   UNL     1       8.127   7.873  18.202  0.00  0.00    +0.000 C 
ATOM     30  C   UNL     1       7.224   7.459  17.068  0.00  0.00    +0.000 C 
ENDBRANCH  28  30
ENDBRANCH  19  28
ENDBRANCH  17  25
ENDBRANCH   1  17
TORSDOF 9
ENDMDL
MODEL 5
REMARK VINA RESULT:      -7.3      0.817      1.414
REMARK  Name = 
REMARK  12 active torsions:
REMARK  status: ('A' for Active; 'I' for Inactive)
REMARK    1  A    between atoms: C_1  and  C_2
REMARK    2  A    between atoms: C_2  and  O_3
REMARK    3  A    between atoms: O_3  and  C_4
REMARK    4  A    between atoms: C_10  and  C_11
REMARK    5  A    between atoms: C_11  and  C_13
REMARK    6  A    between atoms: C_13  and  N_14
REMARK    7  A    between atoms: C_13  and  C_25
REMARK    8  A    between atoms: C_15  and  O_17
REMARK    9  A    between atoms: O_17  and  C_18
REMARK   10  A    between atoms: C_18  and  C_19
REMARK   11  A    between atoms: C_25  and  C_26
REMARK   12  A    between atoms: C_25  and  C_27
REMARK                            x       y       z     vdW  Elec       q    Type
REMARK                         _______ _______ _______ _____ _____    ______ ____
ROOT
ATOM      1  C   UNL     1       2.712   2.860  19.349  0.00  0.00    +0.000 C 
ENDROOT
BRANCH   1   2
ATOM      2  N   UNL     1       2.898   4.257  19.774  0.00  0.00    +0.000 N 
ATOM      3  C   UNL     1       2.236   4.820  20.829  0.00  0.00    +0.000 C 
ATOM      4  O   UNL     1       1.409   4.242  21.516  0.00  0.00    +0.000 OA
ATOM      5  H   UNL     1       3.637   4.816  19.364  0.00  0.00    +0.000 HD
BRANCH   3   6
ATOM      6  O   UNL     1       2.580   6.126  20.949  0.00  0.00    +0.000 OA
BRANCH   6   7
ATOM      7  C   UNL     1       1.477   7.046  20.980  0.00  0.00    +0.000 C 
BRANCH   7   8
ATOM      8  C   UNL     1       1.570   8.090  19.895  0.00  0.00    +0.000 A 
ATOM      9  C   UNL     1       2.267   7.837  18.704  0.00  0.00    +0.000 A 
ATOM     10  C   UNL     1       2.348   8.813  17.708  0.00  0.00    +0.000 A 
ATOM     11  C   UNL     1       1.729  10.049  17.887  0.00  0.00    +0.000 A 
ATOM     12  C   UNL     1       1.020  10.305  19.059  0.00  0.00    +0.000 A 
ATOM     13  C   UNL     1       0.943   9.333  20.059  0.00  0.00    +0.000 A 
ENDBRANCH   7   8
ENDBRANCH   6   7
ENDBRANCH   3   6
ENDBRANCH   1   2
BRANCH   1  14
ATOM     14  C   UNL     1       1.607   2.781  18.241  0.00  0.00    +0.000 C 
ATOM     15  C   UNL     1       0.253   2.297  18.787  0.00  0.00    +0.000 C 
ATOM     16  C   UNL     1       1.375   4.117  17.523  0.00  0.00    +0.000 C 
ENDBRANCH   1  14
BRANCH   1  17
ATOM     17  C   UNL     1       4.063   2.356  18.782  0.00  0.00    +0.000 C 
ATOM     18  O   UNL     1       4.225   1.143  18.602  0.00  0.00    +0.000 OA
BRANCH  17  25
ATOM     19  C   UNL     1       6.576   5.874  16.440  0.00  0.00    +0.000 A 
ATOM     20  C   UNL     1       7.454   6.839  16.971  0.00  0.00    +0.000 A 
ATOM     21  C   UNL     1       7.828   6.846  18.317  0.00  0.00    +0.000 A 
ATOM     22  C   UNL     1       7.363   5.870  19.201  0.00  0.00    +0.000 A 
ATOM     23  C   UNL     1       6.499   4.927  18.651  0.00  0.00    +0.000 A 
ATOM     24  O   UNL     1       5.889   3.904  19.317  0.00  0.00    +0.000 OA
ATOM     25  C   UNL     1       5.054   3.348  18.385  0.00  0.00    +0.000 A 
ATOM     26  N   UNL     1       5.180   3.861  17.170  0.00  0.00    +0.000 NA
ATOM     27  C   UNL     1       6.081   4.894  17.329  0.00  0.00    +0.000 A 
BRANCH  19  28
ATOM     28  O   UNL     1       6.170   5.851  15.125  0.00  0.00    +0.000 OA
BRANCH  28  30
ATOM     29  C   UNL     1       7.705   5.269  13.368  0.00  0.00    +0.000 C 
ATOM     30  C   UNL     1       6.680   4.757  14.349  0.00  0.00    +0.000 C 
ENDBRANCH  28  30
ENDBRANCH  19  28
ENDBRANCH  17  25
ENDBRANCH   1  17
TORSDOF 9
ENDMDL
MODEL 6
REMARK VINA RESULT:      -7.3      2.043      8.388
REMARK  Name = 
REMARK  12 active torsions:
REMARK  status: ('A' for Active; 'I' for Inactive)
REMARK    1  A    between atoms: C_1  and  C_2
REMARK    2  A    between atoms: C_2  and  O_3
REMARK    3  A    between atoms: O_3  and  C_4
REMARK    4  A    between atoms: C_10  and  C_11
REMARK    5  A    between atoms: C_11  and  C_13
REMARK    6  A    between atoms: C_13  and  N_14
REMARK    7  A    between atoms: C_13  and  C_25
REMARK    8  A    between atoms: C_15  and  O_17
REMARK    9  A    between atoms: O_17  and  C_18
REMARK   10  A    between atoms: C_18  and  C_19
REMARK   11  A    between atoms: C_25  and  C_26
REMARK   12  A    between atoms: C_25  and  C_27
REMARK                            x       y       z     vdW  Elec       q    Type
REMARK                         _______ _______ _______ _____ _____    ______ ____
ROOT
ATOM      1  C   UNL     1       6.615   5.719  17.151  0.00  0.00    +0.000 C 
ENDROOT
BRANCH   1   2
ATOM      2  N   UNL     1       7.277   5.782  15.838  0.00  0.00    +0.000 N 
ATOM      3  C   UNL     1       7.210   4.781  14.910  0.00  0.00    +0.000 C 
ATOM      4  O   UNL     1       6.618   3.725  15.071  0.00  0.00    +0.000 OA
ATOM      5  H   UNL     1       7.706   6.646  15.529  0.00  0.00    +0.000 HD
BRANCH   3   6
ATOM      6  O   UNL     1       7.952   5.105  13.823  0.00  0.00    +0.000 OA
BRANCH   6   7
ATOM      7  C   UNL     1       7.214   5.221  12.596  0.00  0.00    +0.000 C 
BRANCH   7   8
ATOM      8  C   UNL     1       6.765   3.882  12.068  0.00  0.00    +0.000 A 
ATOM      9  C   UNL     1       7.695   2.930  11.622  0.00  0.00    +0.000 A 
ATOM     10  C   UNL     1       7.266   1.693  11.133  0.00  0.00    +0.000 A 
ATOM     11  C   UNL     1       5.906   1.391  11.091  0.00  0.00    +0.000 A 
ATOM     12  C   UNL     1       4.974   2.322  11.546  0.00  0.00    +0.000 A 
ATOM     13  C   UNL     1       5.401   3.561  12.030  0.00  0.00    +0.000 A 
ENDBRANCH   7   8
ENDBRANCH   6   7
ENDBRANCH   3   6
ENDBRANCH   1   2
BRANCH   1  14
ATOM     14  C   UNL     1       7.218   6.806  18.106  0.00  0.00    +0.000 C 
ATOM     15  C   UNL     1       8.235   6.221  19.102  0.00  0.00    +0.000 C 
ATOM     16  C   UNL     1       7.901   7.957  17.357  0.00  0.00    +0.000 C 
ENDBRANCH   1  14
BRANCH   1  17
ATOM     17  C   UNL     1       5.105   5.991  16.932  0.00  0.00    +0.000 C 
ATOM     18  O   UNL     1       4.752   6.680  15.967  0.00  0.00    +0.000 OA
BRANCH  17  25
ATOM     19  C   UNL     1       1.671   5.008  20.309  0.00  0.00    +0.000 A 
ATOM     20  C   UNL     1       0.752   3.942  20.356  0.00  0.00    +0.000 A 
ATOM     21  C   UNL     1       0.779   2.894  19.431  0.00  0.00    +0.000 A 
ATOM     22  C   UNL     1       1.746   2.845  18.424  0.00  0.00    +0.000 A 
ATOM     23  C   UNL     1       2.643   3.910  18.402  0.00  0.00    +0.000 A 
ATOM     24  O   UNL     1       3.646   4.103  17.498  0.00  0.00    +0.000 OA
ATOM     25  C   UNL     1       4.153   5.334  17.818  0.00  0.00    +0.000 A 
ATOM     26  N   UNL     1       3.630   5.869  18.911  0.00  0.00    +0.000 NA
ATOM     27  C   UNL     1       2.639   4.982  19.282  0.00  0.00    +0.000 A 
BRANCH  19  28
ATOM     28  O   UNL     1       1.658   6.066  21.190  0.00  0.00    +0.000 OA
BRANCH  28  30
ATOM     29  C   UNL     1       1.387   8.411  21.651  0.00  0.00    +0.000 C 
ATOM     30  C   UNL     1       1.181   7.306  20.646  0.00  0.00    +0.000 C 
ENDBRANCH  28  30
ENDBRANCH  19  28
ENDBRANCH  17  25
ENDBRANCH   1  17
TORSDOF 9
ENDMDL
MODEL 7
REMARK VINA RESULT:      -7.3      1.872      8.023
REMARK  Name = 
REMARK  12 active torsions:
REMARK  status: ('A' for Active; 'I' for Inactive)
REMARK    1  A    between atoms: C_1  and  C_2
REMARK    2  A    between atoms: C_2  and  O_3
REMARK    3  A    between atoms: O_3  and  C_4
REMARK    4  A    between atoms: C_10  and  C_11
REMARK    5  A    between atoms: C_11  and  C_13
REMARK    6  A    between atoms: C_13  and  N_14
REMARK    7  A    between atoms: C_13  and  C_25
REMARK    8  A    between atoms: C_15  and  O_17
REMARK    9  A    between atoms: O_17  and  C_18
REMARK   10  A    between atoms: C_18  and  C_19
REMARK   11  A    between atoms: C_25  and  C_26
REMARK   12  A    between atoms: C_25  and  C_27
REMARK                            x       y       z     vdW  Elec       q    Type
REMARK                         _______ _______ _______ _____ _____    ______ ____
ROOT
ATOM      1  C   UNL     1       5.925   4.793  18.076  0.00  0.00    +0.000 C 
ENDROOT
BRANCH   1   2
ATOM      2  N   UNL     1       5.807   5.083  16.638  0.00  0.00    +0.000 N 
ATOM      3  C   UNL     1       6.810   4.861  15.737  0.00  0.00    +0.000 C 
ATOM      4  O   UNL     1       7.913   4.423  16.023  0.00  0.00    +0.000 OA
ATOM      5  H   UNL     1       4.908   5.342  16.247  0.00  0.00    +0.000 HD
BRANCH   3   6
ATOM      6  O   UNL     1       6.423   5.265  14.502  0.00  0.00    +0.000 OA
BRANCH   6   7
ATOM      7  C   UNL     1       7.208   4.742  13.418  0.00  0.00    +0.000 C 
BRANCH   7   8
ATOM      8  C   UNL     1       6.429   3.774  12.562  0.00  0.00    +0.000 A 
ATOM      9  C   UNL     1       5.042   3.909  12.394  0.00  0.00    +0.000 A 
ATOM     10  C   UNL     1       4.332   3.005  11.600  0.00  0.00    +0.000 A 
ATOM     11  C   UNL     1       4.999   1.960  10.961  0.00  0.00    +0.000 A 
ATOM     12  C   UNL     1       6.378   1.826  11.108  0.00  0.00    +0.000 A 
ATOM     13  C   UNL     1       7.089   2.726  11.906  0.00  0.00    +0.000 A 
ENDBRANCH   7   8
ENDBRANCH   6   7
ENDBRANCH   3   6
ENDBRANCH   1   2
BRANCH   1  14
ATOM     14  C   UNL     1       6.562   6.018  18.817  0.00  0.00    +0.000 C 
ATOM     15  C   UNL     1       7.907   5.676  19.481  0.00  0.00    +0.000 C 
ATOM     16  C   UNL     1       6.782   7.230  17.903  0.00  0.00    +0.000 C 
ENDBRANCH   1  14
BRANCH   1  17
ATOM     17  C   UNL     1       4.500   4.530  18.623  0.00  0.00    +0.000 C 
ATOM     18  O   UNL     1       4.219   3.405  19.054  0.00  0.00    +0.000 OA
BRANCH  17  25
ATOM     19  C   UNL     1       1.627   8.206  20.174  0.00  0.00    +0.000 A 
ATOM     20  C   UNL     1       1.253   9.384  19.500  0.00  0.00    +0.000 A 
ATOM     21  C   UNL     1       1.592   9.617  18.164  0.00  0.00    +0.000 A 
ATOM     22  C   UNL     1       2.304   8.671  17.424  0.00  0.00    +0.000 A 
ATOM     23  C   UNL     1       2.660   7.515  18.114  0.00  0.00    +0.000 A 
ATOM     24  O   UNL     1       3.384   6.469  17.620  0.00  0.00    +0.000 OA
ATOM     25  C   UNL     1       3.575   5.653  18.702  0.00  0.00    +0.000 A 
ATOM     26  N   UNL     1       2.935   6.043  19.795  0.00  0.00    +0.000 NA
ATOM     27  C   UNL     1       2.367   7.251  19.443  0.00  0.00    +0.000 A 
BRANCH  19  28
ATOM     28  O   UNL     1       1.330   7.954  21.495  0.00  0.00    +0.000 OA
BRANCH  28  30
ATOM     29  C   UNL     1      -0.241   9.224  22.800  0.00  0.00    +0.000 C 
ATOM     30  C   UNL     1       1.185   9.119  22.320  0.00  0.00    +0.000 C 
ENDBRANCH  28  30
ENDBRANCH  19  28
ENDBRANCH  17  25
ENDBRANCH   1  17
TORSDOF 9
ENDMDL
MODEL 8
REMARK VINA RESULT:      -7.2      1.724      6.992
REMARK  Name = 
REMARK  12 active torsions:
REMARK  status: ('A' for Active; 'I' for Inactive)
REMARK    1  A    between atoms: C_1  and  C_2
REMARK    2  A    between atoms: C_2  and  O_3
REMARK    3  A    between atoms: O_3  and  C_4
REMARK    4  A    between atoms: C_10  and  C_11
REMARK    5  A    between atoms: C_11  and  C_13
REMARK    6  A    between atoms: C_13  and  N_14
REMARK    7  A    between atoms: C_13  and  C_25
REMARK    8  A    between atoms: C_15  and  O_17
REMARK    9  A    between atoms: O_17  and  C_18
REMARK   10  A    between atoms: C_18  and  C_19
REMARK   11  A    between atoms: C_25  and  C_26
REMARK   12  A    between atoms: C_25  and  C_27
REMARK                            x       y       z     vdW  Elec       q    Type
REMARK                         _______ _______ _______ _____ _____    ______ ____
ROOT
ATOM      1  C   UNL     1       2.902   4.092  18.645  0.00  0.00    +0.000 C 
ENDROOT
BRANCH   1   2
ATOM      2  N   UNL     1       4.039   3.569  17.871  0.00  0.00    +0.000 N 
ATOM      3  C   UNL     1       4.530   4.173  16.748  0.00  0.00    +0.000 C 
ATOM      4  O   UNL     1       4.074   5.192  16.253  0.00  0.00    +0.000 OA
ATOM      5  H   UNL     1       4.583   2.795  18.232  0.00  0.00    +0.000 HD
BRANCH   3   6
ATOM      6  O   UNL     1       5.546   3.438  16.231  0.00  0.00    +0.000 OA
BRANCH   6   7
ATOM      7  C   UNL     1       6.684   4.198  15.791  0.00  0.00    +0.000 C 
BRANCH   7   8
ATOM      8  C   UNL     1       7.166   5.168  16.840  0.00  0.00    +0.000 A 
ATOM      9  C   UNL     1       7.149   6.552  16.611  0.00  0.00    +0.000 A 
ATOM     10  C   UNL     1       7.600   7.440  17.590  0.00  0.00    +0.000 A 
ATOM     11  C   UNL     1       8.068   6.957  18.811  0.00  0.00    +0.000 A 
ATOM     12  C   UNL     1       8.075   5.585  19.056  0.00  0.00    +0.000 A 
ATOM     13  C   UNL     1       7.629   4.695  18.076  0.00  0.00    +0.000 A 
ENDBRANCH   7   8
ENDBRANCH   6   7
ENDBRANCH   3   6
ENDBRANCH   1   2
BRANCH   1  14
ATOM     14  C   UNL     1       2.392   3.002  19.648  0.00  0.00    +0.000 C 
ATOM     15  C   UNL     1       1.370   3.556  20.656  0.00  0.00    +0.000 C 
ATOM     16  C   UNL     1       1.758   1.790  18.953  0.00  0.00    +0.000 C 
ENDBRANCH   1  14
BRANCH   1  17
ATOM     17  C   UNL     1       3.396   5.336  19.425  0.00  0.00    +0.000 C 
ATOM     18  O   UNL     1       4.492   5.292  19.998  0.00  0.00    +0.000 OA
BRANCH  17  25
ATOM     19  C   UNL     1       0.628   9.248  20.523  0.00  0.00    +0.000 A 
ATOM     20  C   UNL     1       0.525  10.480  19.847  0.00  0.00    +0.000 A 
ATOM     21  C   UNL     1       1.168  10.717  18.629  0.00  0.00    +0.000 A 
ATOM     22  C   UNL     1       1.928   9.724  18.009  0.00  0.00    +0.000 A 
ATOM     23  C   UNL     1       2.011   8.516  18.696  0.00  0.00    +0.000 A 
ATOM     24  O   UNL     1       2.719   7.414  18.313  0.00  0.00    +0.000 OA
ATOM     25  C   UNL     1       2.590   6.549  19.366  0.00  0.00    +0.000 A 
ATOM     26  N   UNL     1       1.770   6.971  20.316  0.00  0.00    +0.000 NA
ATOM     27  C   UNL     1       1.412   8.243  19.917  0.00  0.00    +0.000 A 
BRANCH  19  28
ATOM     28  O   UNL     1       0.027   8.989  21.734  0.00  0.00    +0.000 OA
BRANCH  28  30
ATOM     29  C   UNL     1      -1.062  10.614  23.133  0.00  0.00    +0.000 C 
ATOM     30  C   UNL     1       0.250   9.978  22.750  0.00  0.00    +0.000 C 
ENDBRANCH  28  30
ENDBRANCH  19  28
ENDBRANCH  17  25
ENDBRANCH   1  17
TORSDOF 9
ENDMDL
MODEL 9
REMARK VINA RESULT:      -7.1      3.140      7.394
REMARK  Name = 
REMARK  12 active torsions:
REMARK  status: ('A' for Active; 'I' for Inactive)
REMARK    1  A    between atoms: C_1  and  C_2
REMARK    2  A    between atoms: C_2  and  O_3
REMARK    3  A    between atoms: O_3  and  C_4
REMARK    4  A    between atoms: C_10  and  C_11
REMARK    5  A    between atoms: C_11  and  C_13
REMARK    6  A    between atoms: C_13  and  N_14
REMARK    7  A    between atoms: C_13  and  C_25
REMARK    8  A    between atoms: C_15  and  O_17
REMARK    9  A    between atoms: O_17  and  C_18
REMARK   10  A    between atoms: C_18  and  C_19
REMARK   11  A    between atoms: C_25  and  C_26
REMARK   12  A    between atoms: C_25  and  C_27
REMARK                            x       y       z     vdW  Elec       q    Type
REMARK                         _______ _______ _______ _____ _____    ______ ____
ROOT
ATOM      1  C   UNL     1       6.475   6.218  17.442  0.00  0.00    +0.000 C 
ENDROOT
BRANCH   1   2
ATOM      2  N   UNL     1       7.564   7.137  17.810  0.00  0.00    +0.000 N 
ATOM      3  C   UNL     1       7.501   8.491  17.636  0.00  0.00    +0.000 C 
ATOM      4  O   UNL     1       6.555   9.083  17.143  0.00  0.00    +0.000 OA
ATOM      5  H   UNL     1       8.360   6.793  18.333  0.00  0.00    +0.000 HD
BRANCH   3   6
ATOM      6  O   UNL     1       8.667   9.063  18.026  0.00  0.00    +0.000 OA
BRANCH   6   7
ATOM      7  C   UNL     1       8.744  10.484  17.826  0.00  0.00    +0.000 C 
BRANCH   7   8
ATOM      8  C   UNL     1       9.883  11.110  18.591  0.00  0.00    +0.000 A 
ATOM      9  C   UNL     1       9.824  11.261  19.985  0.00  0.00    +0.000 A 
ATOM     10  C   UNL     1      10.886  11.843  20.682  0.00  0.00    +0.000 A 
ATOM     11  C   UNL     1      12.020  12.276  19.995  0.00  0.00    +0.000 A 
ATOM     12  C   UNL     1      12.096  12.116  18.613  0.00  0.00    +0.000 A 
ATOM     13  C   UNL     1      11.034  11.539  17.914  0.00  0.00    +0.000 A 
ENDBRANCH   7   8
ENDBRANCH   6   7
ENDBRANCH   3   6
ENDBRANCH   1   2
BRANCH   1  14
ATOM     14  C   UNL     1       6.725   5.640  16.007  0.00  0.00    +0.000 C 
ATOM     15  C   UNL     1       7.236   4.189  16.034  0.00  0.00    +0.000 C 
ATOM     16  C   UNL     1       5.479   5.684  15.112  0.00  0.00    +0.000 C 
ENDBRANCH   1  14
BRANCH   1  17
ATOM     17  C   UNL     1       6.459   5.067  18.479  0.00  0.00    +0.000 C 
ATOM     18  O   UNL     1       7.531   4.656  18.938  0.00  0.00    +0.000 OA
BRANCH  17  25
ATOM     19  C   UNL     1       1.891   4.716  20.264  0.00  0.00    +0.000 A 
ATOM     20  C   UNL     1       0.908   3.742  20.001  0.00  0.00    +0.000 A 
ATOM     21  C   UNL     1       1.170   2.611  19.223  0.00  0.00    +0.000 A 
ATOM     22  C   UNL     1       2.439   2.382  18.687  0.00  0.00    +0.000 A 
ATOM     23  C   UNL     1       3.392   3.358  18.963  0.00  0.00    +0.000 A 
ATOM     24  O   UNL     1       4.684   3.375  18.523  0.00  0.00    +0.000 OA
ATOM     25  C   UNL     1       5.167   4.583  18.949  0.00  0.00    +0.000 A 
ATOM     26  N   UNL     1       4.326   5.265  19.713  0.00  0.00    +0.000 NA
ATOM     27  C   UNL     1       3.173   4.507  19.709  0.00  0.00    +0.000 A 
BRANCH  19  28
ATOM     28  O   UNL     1       1.662   5.852  21.007  0.00  0.00    +0.000 OA
BRANCH  28  30
ATOM     29  C   UNL     1       1.201   8.210  21.119  0.00  0.00    +0.000 C 
ATOM     30  C   UNL     1       1.750   7.086  20.278  0.00  0.00    +0.000 C 
ENDBRANCH  28  30
ENDBRANCH  19  28
ENDBRANCH  17  25
ENDBRANCH   1  17
TORSDOF 9
ENDMDL
