MODEL 1
REMARK VINA RESULT:      -7.6      0.000      0.000
REMARK  Name = 
REMARK  4 active torsions:
REMARK  status: ('A' for Active; 'I' for Inactive)
REMARK    1  A    between atoms: C_1  and  C_2
REMARK    2  A    between atoms: C_5  and  C_6
REMARK    3  A    between atoms: C_7  and  N_8
REMARK    4  A    between atoms: C_9  and  C_10
REMARK                            x       y       z     vdW  Elec       q    Type
REMARK                         _______ _______ _______ _____ _____    ______ ____
ROOT
ATOM      1  N   UNL     1       4.405   4.734  17.544  0.00  0.00    +0.000 N 
ATOM      2  C   UNL     1       3.814   5.923  17.936  0.00  0.00    +0.000 A 
ATOM      3  C   UNL     1       4.163   7.221  17.239  0.00  0.00    +0.000 C 
ATOM      4  N   UNL     1       2.941   6.003  18.894  0.00  0.00    +0.000 NA
ATOM      5  C   UNL     1       2.535   4.827  19.533  0.00  0.00    +0.000 A 
ATOM      6  C   UNL     1       1.505   4.893  20.474  0.00  0.00    +0.000 A 
ATOM      7  C   UNL     1       1.025   3.732  21.088  0.00  0.00    +0.000 A 
ATOM      8  C   UNL     1       1.591   2.494  20.782  0.00  0.00    +0.000 A 
ATOM      9  C   UNL     1       2.635   2.419  19.861  0.00  0.00    +0.000 A 
ATOM     10  C   UNL     1       3.092   3.585  19.236  0.00  0.00    +0.000 A 
ATOM     11  C   UNL     1       4.141   3.532  18.203  0.00  0.00    +0.000 A 
ATOM     12  O   UNL     1       4.702   2.460  17.985  0.00  0.00    +0.000 OA
ENDROOT
BRANCH   1  19
ATOM     13  C   UNL     1       5.252   3.821  12.768  0.00  0.00    +0.000 C 
ATOM     14  C   UNL     1       5.754   4.239  14.119  0.00  0.00    +0.000 A 
ATOM     15  C   UNL     1       7.097   4.573  14.316  0.00  0.00    +0.000 A 
ATOM     16  C   UNL     1       7.558   4.960  15.578  0.00  0.00    +0.000 A 
ATOM     17  C   UNL     1       6.683   5.019  16.672  0.00  0.00    +0.000 A 
ATOM     18  C   UNL     1       7.204   5.438  18.018  0.00  0.00    +0.000 C 
ATOM     19  C   UNL     1       5.330   4.686  16.470  0.00  0.00    +0.000 A 
ATOM     20  C   UNL     1       4.871   4.304  15.202  0.00  0.00    +0.000 A 
ENDBRANCH   1  19
TORSDOF 1
ENDMDL
MODEL 2
REMARK VINA RESULT:      -7.4      3.158      5.047
REMARK  Name = 
REMARK  4 active torsions:
REMARK  status: ('A' for Active; 'I' for Inactive)
REMARK    1  A    between atoms: C_1  and  C_2
REMARK    2  A    between atoms: C_5  and  C_6
REMARK    3  A    between atoms: C_7  and  N_8
REMARK    4  A    between atoms: C_9  and  C_10
REMARK                            x       y       z     vdW  Elec       q    Type
REMARK                         _______ _______ _______ _____ _____    ______ ____
ROOT
ATOM      1  N   UNL     1       2.672   6.663  18.945  0.00  0.00    +0.000 N 
ATOM      2  C   UNL     1       2.139   6.438  20.203  0.00  0.00    +0.000 A 
ATOM      3  C   UNL     1       2.384   5.126  20.917  0.00  0.00    +0.000 C 
ATOM      4  N   UNL     1       1.421   7.313  20.838  0.00  0.00    +0.000 NA
ATOM      5  C   UNL     1       1.213   8.566  20.252  0.00  0.00    +0.000 A 
ATOM      6  C   UNL     1       0.551   9.552  20.987  0.00  0.00    +0.000 A 
ATOM      7  C   UNL     1       0.380  10.837  20.464  0.00  0.00    +0.000 A 
ATOM      8  C   UNL     1       0.850  11.140  19.186  0.00  0.00    +0.000 A 
ATOM      9  C   UNL     1       1.492  10.157  18.434  0.00  0.00    +0.000 A 
ATOM     10  C   UNL     1       1.678   8.880  18.978  0.00  0.00    +0.000 A 
ATOM     11  C   UNL     1       2.419   7.842  18.241  0.00  0.00    +0.000 A 
ATOM     12  O   UNL     1       2.766   8.071  17.085  0.00  0.00    +0.000 OA
ENDROOT
BRANCH   1  19
ATOM     13  C   UNL     1       7.193   5.064  17.775  0.00  0.00    +0.000 C 
ATOM     14  C   UNL     1       5.702   4.898  17.720  0.00  0.00    +0.000 A 
ATOM     15  C   UNL     1       5.122   3.816  17.050  0.00  0.00    +0.000 A 
ATOM     16  C   UNL     1       3.732   3.670  17.002  0.00  0.00    +0.000 A 
ATOM     17  C   UNL     1       2.892   4.606  17.621  0.00  0.00    +0.000 A 
ATOM     18  C   UNL     1       1.402   4.426  17.554  0.00  0.00    +0.000 C 
ATOM     19  C   UNL     1       3.479   5.692  18.298  0.00  0.00    +0.000 A 
ATOM     20  C   UNL     1       4.873   5.832  18.349  0.00  0.00    +0.000 A 
ENDBRANCH   1  19
TORSDOF 1
ENDMDL
MODEL 3
REMARK VINA RESULT:      -7.2      1.409      2.603
REMARK  Name = 
REMARK  4 active torsions:
REMARK  status: ('A' for Active; 'I' for Inactive)
REMARK    1  A    between atoms: C_1  and  C_2
REMARK    2  A    between atoms: C_5  and  C_6
REMARK    3  A    between atoms: C_7  and  N_8
REMARK    4  A    between atoms: C_9  and  C_10
REMARK                            x       y       z     vdW  Elec       q    Type
REMARK                         _______ _______ _______ _____ _____    ______ ____
ROOT
ATOM      1  N   UNL     1       4.337   5.387  18.518  0.00  0.00    +0.000 N 
ATOM      2  C   UNL     1       3.146   6.093  18.518  0.00  0.00    +0.000 A 
ATOM      3  C   UNL     1       2.993   7.338  17.669  0.00  0.00    +0.000 C 
ATOM      4  N   UNL     1       2.110   5.743  19.217  0.00  0.00    +0.000 NA
ATOM      5  C   UNL     1       2.175   4.568  19.973  0.00  0.00    +0.000 A 
ATOM      6  C   UNL     1       1.022   4.121  20.622  0.00  0.00    +0.000 A 
ATOM      7  C   UNL     1       1.027   2.917  21.334  0.00  0.00    +0.000 A 
ATOM      8  C   UNL     1       2.195   2.161  21.422  0.00  0.00    +0.000 A 
ATOM      9  C   UNL     1       3.358   2.609  20.796  0.00  0.00    +0.000 A 
ATOM     10  C   UNL     1       3.335   3.804  20.067  0.00  0.00    +0.000 A 
ATOM     11  C   UNL     1       4.524   4.267  19.331  0.00  0.00    +0.000 A 
ATOM     12  O   UNL     1       5.580   3.652  19.467  0.00  0.00    +0.000 OA
ENDROOT
BRANCH   1  19
ATOM     13  C   UNL     1       8.205   8.386  17.880  0.00  0.00    +0.000 C 
ATOM     14  C   UNL     1       7.343   7.258  17.395  0.00  0.00    +0.000 A 
ATOM     15  C   UNL     1       7.613   6.614  16.183  0.00  0.00    +0.000 A 
ATOM     16  C   UNL     1       6.804   5.564  15.737  0.00  0.00    +0.000 A 
ATOM     17  C   UNL     1       5.704   5.138  16.494  0.00  0.00    +0.000 A 
ATOM     18  C   UNL     1       4.850   4.008  15.991  0.00  0.00    +0.000 C 
ATOM     19  C   UNL     1       5.436   5.785  17.714  0.00  0.00    +0.000 A 
ATOM     20  C   UNL     1       6.252   6.833  18.161  0.00  0.00    +0.000 A 
ENDBRANCH   1  19
TORSDOF 1
ENDMDL
MODEL 4
REMARK VINA RESULT:      -7.2      1.857      2.855
REMARK  Name = 
REMARK  4 active torsions:
REMARK  status: ('A' for Active; 'I' for Inactive)
REMARK    1  A    between atoms: C_1  and  C_2
REMARK    2  A    between atoms: C_5  and  C_6
REMARK    3  A    between atoms: C_7  and  N_8
REMARK    4  A    between atoms: C_9  and  C_10
REMARK                            x       y       z     vdW  Elec       q    Type
REMARK                         _______ _______ _______ _____ _____    ______ ____
ROOT
ATOM      1  N   UNL     1       4.177   5.280  17.895  0.00  0.00    +0.000 N 
ATOM      2  C   UNL     1       3.722   4.307  18.769  0.00  0.00    +0.000 A 
ATOM      3  C   UNL     1       4.271   2.897  18.700  0.00  0.00    +0.000 C 
ATOM      4  N   UNL     1       2.829   4.531  19.683  0.00  0.00    +0.000 NA
ATOM      5  C   UNL     1       2.331   5.830  19.833  0.00  0.00    +0.000 A 
ATOM      6  C   UNL     1       1.467   6.102  20.896  0.00  0.00    +0.000 A 
ATOM      7  C   UNL     1       0.999   7.401  21.119  0.00  0.00    +0.000 A 
ATOM      8  C   UNL     1       1.374   8.436  20.264  0.00  0.00    +0.000 A 
ATOM      9  C   UNL     1       2.217   8.172  19.186  0.00  0.00    +0.000 A 
ATOM     10  C   UNL     1       2.698   6.872  18.985  0.00  0.00    +0.000 A 
ATOM     11  C   UNL     1       3.651   6.574  17.902  0.00  0.00    +0.000 A 
ATOM     12  O   UNL     1       3.924   7.460  17.095  0.00  0.00    +0.000 OA
ENDROOT
BRANCH   1  19
ATOM     13  C   UNL     1       5.311   3.861  13.306  0.00  0.00    +0.000 C 
ATOM     14  C   UNL     1       5.745   4.305  14.673  0.00  0.00    +0.000 A 
ATOM     15  C   UNL     1       7.100   4.442  14.989  0.00  0.00    +0.000 A 
ATOM     16  C   UNL     1       7.496   4.855  16.265  0.00  0.00    +0.000 A 
ATOM     17  C   UNL     1       6.543   5.137  17.254  0.00  0.00    +0.000 A 
ATOM     18  C   UNL     1       6.995   5.578  18.617  0.00  0.00    +0.000 C 
ATOM     19  C   UNL     1       5.179   5.002  16.931  0.00  0.00    +0.000 A 
ATOM     20  C   UNL     1       4.786   4.594  15.650  0.00  0.00    +0.000 A 
ENDBRANCH   1  19
TORSDOF 1
ENDMDL
MODEL 5
REMARK VINA RESULT:      -7.0      1.608      6.090
REMARK  Name = 
REMARK  4 active torsions:
REMARK  status: ('A' for Active; 'I' for Inactive)
REMARK    1  A    between atoms: C_1  and  C_2
REMARK    2  A    between atoms: C_5  and  C_6
REMARK    3  A    between atoms: C_7  and  N_8
REMARK    4  A    between atoms: C_9  and  C_10
REMARK                            x       y       z     vdW  Elec       q    Type
REMARK                         _______ _______ _______ _____ _____    ______ ____
ROOT
ATOM      1  N   UNL     1       5.499   4.937  16.729  0.00  0.00    +0.000 N 
ATOM      2  C   UNL     1       6.702   5.621  16.690  0.00  0.00    +0.000 A 
ATOM      3  C   UNL     1       7.238   6.301  17.933  0.00  0.00    +0.000 C 
ATOM      4  N   UNL     1       7.432   5.719  15.621  0.00  0.00    +0.000 NA
ATOM      5  C   UNL     1       7.015   5.060  14.460  0.00  0.00    +0.000 A 
ATOM      6  C   UNL     1       7.861   5.055  13.348  0.00  0.00    +0.000 A 
ATOM      7  C   UNL     1       7.511   4.354  12.190  0.00  0.00    +0.000 A 
ATOM      8  C   UNL     1       6.298   3.669  12.127  0.00  0.00    +0.000 A 
ATOM      9  C   UNL     1       5.436   3.686  13.222  0.00  0.00    +0.000 A 
ATOM     10  C   UNL     1       5.807   4.372  14.385  0.00  0.00    +0.000 A 
ATOM     11  C   UNL     1       4.955   4.346  15.586  0.00  0.00    +0.000 A 
ATOM     12  O   UNL     1       3.849   3.815  15.515  0.00  0.00    +0.000 OA
ENDROOT
BRANCH   1  19
ATOM     13  C   UNL     1       4.260   2.248  20.678  0.00  0.00    +0.000 C 
ATOM     14  C   UNL     1       4.134   3.509  19.874  0.00  0.00    +0.000 A 
ATOM     15  C   UNL     1       3.298   4.549  20.292  0.00  0.00    +0.000 A 
ATOM     16  C   UNL     1       3.184   5.720  19.536  0.00  0.00    +0.000 A 
ATOM     17  C   UNL     1       3.904   5.874  18.343  0.00  0.00    +0.000 A 
ATOM     18  C   UNL     1       3.763   7.143  17.549  0.00  0.00    +0.000 C 
ATOM     19  C   UNL     1       4.747   4.827  17.926  0.00  0.00    +0.000 A 
ATOM     20  C   UNL     1       4.862   3.657  18.689  0.00  0.00    +0.000 A 
ENDBRANCH   1  19
TORSDOF 1
ENDMDL
MODEL 6
REMARK VINA RESULT:      -7.0      1.520      2.166
REMARK  Name = 
REMARK  4 active torsions:
REMARK  status: ('A' for Active; 'I' for Inactive)
REMARK    1  A    between atoms: C_1  and  C_2
REMARK    2  A    between atoms: C_5  and  C_6
REMARK    3  A    between atoms: C_7  and  N_8
REMARK    4  A    between atoms: C_9  and  C_10
REMARK                            x       y       z     vdW  Elec       q    Type
REMARK                         _______ _______ _______ _____ _____    ______ ____
ROOT
ATOM      1  N   UNL     1       4.265   4.211  17.841  0.00  0.00    +0.000 N 
ATOM      2  C   UNL     1       5.088   4.036  18.940  0.00  0.00    +0.000 A 
ATOM      3  C   UNL     1       6.549   4.431  18.875  0.00  0.00    +0.000 C 
ATOM      4  N   UNL     1       4.676   3.543  20.067  0.00  0.00    +0.000 NA
ATOM      5  C   UNL     1       3.322   3.217  20.204  0.00  0.00    +0.000 A 
ATOM      6  C   UNL     1       2.851   2.808  21.453  0.00  0.00    +0.000 A 
ATOM      7  C   UNL     1       1.493   2.535  21.648  0.00  0.00    +0.000 A 
ATOM      8  C   UNL     1       0.598   2.647  20.585  0.00  0.00    +0.000 A 
ATOM      9  C   UNL     1       1.061   3.031  19.327  0.00  0.00    +0.000 A 
ATOM     10  C   UNL     1       2.419   3.324  19.150  0.00  0.00    +0.000 A 
ATOM     11  C   UNL     1       2.928   3.807  17.854  0.00  0.00    +0.000 A 
ATOM     12  O   UNL     1       2.165   3.831  16.891  0.00  0.00    +0.000 OA
ENDROOT
BRANCH   1  19
ATOM     13  C   UNL     1       6.265   3.541  13.379  0.00  0.00    +0.000 C 
ATOM     14  C   UNL     1       5.731   4.460  14.437  0.00  0.00    +0.000 A 
ATOM     15  C   UNL     1       5.709   5.845  14.244  0.00  0.00    +0.000 A 
ATOM     16  C   UNL     1       5.211   6.696  15.236  0.00  0.00    +0.000 A 
ATOM     17  C   UNL     1       4.727   6.178  16.446  0.00  0.00    +0.000 A 
ATOM     18  C   UNL     1       4.199   7.114  17.496  0.00  0.00    +0.000 C 
ATOM     19  C   UNL     1       4.748   4.784  16.636  0.00  0.00    +0.000 A 
ATOM     20  C   UNL     1       5.242   3.934  15.637  0.00  0.00    +0.000 A 
ENDBRANCH   1  19
TORSDOF 1
ENDMDL
MODEL 7
REMARK VINA RESULT:      -7.0      5.236      7.880
REMARK  Name = 
REMARK  4 active torsions:
REMARK  status: ('A' for Active; 'I' for Inactive)
REMARK    1  A    between atoms: C_1  and  C_2
REMARK    2  A    between atoms: C_5  and  C_6
REMARK    3  A    between atoms: C_7  and  N_8
REMARK    4  A    between atoms: C_9  and  C_10
REMARK                            x       y       z     vdW  Elec       q    Type
REMARK                         _______ _______ _______ _____ _____    ______ ____
ROOT
ATOM      1  N   UNL     1       1.071   9.774  19.474  0.00  0.00    +0.000 N 
ATOM      2  C   UNL     1       0.842   9.240  20.730  0.00  0.00    +0.000 A 
ATOM      3  C   UNL     1       0.108  10.043  21.783  0.00  0.00    +0.000 C 
ATOM      4  N   UNL     1       1.223   8.049  21.078  0.00  0.00    +0.000 NA
ATOM      5  C   UNL     1       1.853   7.240  20.127  0.00  0.00    +0.000 A 
ATOM      6  C   UNL     1       2.148   5.916  20.459  0.00  0.00    +0.000 A 
ATOM      7  C   UNL     1       2.718   5.054  19.515  0.00  0.00    +0.000 A 
ATOM      8  C   UNL     1       3.019   5.520  18.236  0.00  0.00    +0.000 A 
ATOM      9  C   UNL     1       2.750   6.846  17.901  0.00  0.00    +0.000 A 
ATOM     10  C   UNL     1       2.159   7.693  18.846  0.00  0.00    +0.000 A 
ATOM     11  C   UNL     1       1.791   9.077  18.501  0.00  0.00    +0.000 A 
ATOM     12  O   UNL     1       2.125   9.522  17.405  0.00  0.00    +0.000 OA
ENDROOT
BRANCH   1  19
ATOM     13  C   UNL     1       1.940  14.628  19.259  0.00  0.00    +0.000 C 
ATOM     14  C   UNL     1       1.031  13.459  19.013  0.00  0.00    +0.000 A 
ATOM     15  C   UNL     1      -0.238  13.639  18.452  0.00  0.00    +0.000 A 
ATOM     16  C   UNL     1      -1.079  12.545  18.227  0.00  0.00    +0.000 A 
ATOM     17  C   UNL     1      -0.670  11.246  18.562  0.00  0.00    +0.000 A 
ATOM     18  C   UNL     1      -1.594  10.088  18.310  0.00  0.00    +0.000 C 
ATOM     19  C   UNL     1       0.609  11.068  19.123  0.00  0.00    +0.000 A 
ATOM     20  C   UNL     1       1.452  12.166  19.341  0.00  0.00    +0.000 A 
ENDBRANCH   1  19
TORSDOF 1
ENDMDL
MODEL 8
REMARK VINA RESULT:      -6.7      5.319      7.934
REMARK  Name = 
REMARK  4 active torsions:
REMARK  status: ('A' for Active; 'I' for Inactive)
REMARK    1  A    between atoms: C_1  and  C_2
REMARK    2  A    between atoms: C_5  and  C_6
REMARK    3  A    between atoms: C_7  and  N_8
REMARK    4  A    between atoms: C_9  and  C_10
REMARK                            x       y       z     vdW  Elec       q    Type
REMARK                         _______ _______ _______ _____ _____    ______ ____
ROOT
ATOM      1  N   UNL     1       0.758   9.373  19.494  0.00  0.00    +0.000 N 
ATOM      2  C   UNL     1       0.724   8.577  20.626  0.00  0.00    +0.000 A 
ATOM      3  C   UNL     1      -0.227   8.897  21.761  0.00  0.00    +0.000 C 
ATOM      4  N   UNL     1       1.475   7.530  20.784  0.00  0.00    +0.000 NA
ATOM      5  C   UNL     1       2.329   7.152  19.743  0.00  0.00    +0.000 A 
ATOM      6  C   UNL     1       3.042   5.957  19.858  0.00  0.00    +0.000 A 
ATOM      7  C   UNL     1       3.857   5.510  18.813  0.00  0.00    +0.000 A 
ATOM      8  C   UNL     1       3.982   6.269  17.651  0.00  0.00    +0.000 A 
ATOM      9  C   UNL     1       3.293   7.476  17.534  0.00  0.00    +0.000 A 
ATOM     10  C   UNL     1       2.463   7.902  18.578  0.00  0.00    +0.000 A 
ATOM     11  C   UNL     1       1.661   9.132  18.456  0.00  0.00    +0.000 A 
ATOM     12  O   UNL     1       1.826   9.850  17.472  0.00  0.00    +0.000 OA
ENDROOT
BRANCH   1  19
ATOM     13  C   UNL     1      -3.506  11.193  17.803  0.00  0.00    +0.000 C 
ATOM     14  C   UNL     1      -2.202  11.392  18.518  0.00  0.00    +0.000 A 
ATOM     15  C   UNL     1      -1.843  12.645  19.026  0.00  0.00    +0.000 A 
ATOM     16  C   UNL     1      -0.625  12.823  19.689  0.00  0.00    +0.000 A 
ATOM     17  C   UNL     1       0.263  11.750  19.856  0.00  0.00    +0.000 A 
ATOM     18  C   UNL     1       1.566  11.969  20.571  0.00  0.00    +0.000 C 
ATOM     19  C   UNL     1      -0.103  10.490  19.346  0.00  0.00    +0.000 A 
ATOM     20  C   UNL     1      -1.327  10.314  18.687  0.00  0.00    +0.000 A 
ENDBRANCH   1  19
TORSDOF 1
ENDMDL
MODEL 9
REMARK VINA RESULT:      -6.7      1.406      5.979
REMARK  Name = 
REMARK  4 active torsions:
REMARK  status: ('A' for Active; 'I' for Inactive)
REMARK    1  A    between atoms: C_1  and  C_2
REMARK    2  A    between atoms: C_5  and  C_6
REMARK    3  A    between atoms: C_7  and  N_8
REMARK    4  A    between atoms: C_9  and  C_10
REMARK                            x       y       z     vdW  Elec       q    Type
REMARK                         _______ _______ _______ _____ _____    ______ ____
ROOT
ATOM      1  N   UNL     1       4.714   4.557  18.004  0.00  0.00    +0.000 N 
ATOM      2  C   UNL     1       5.993   5.054  18.184  0.00  0.00    +0.000 A 
ATOM      3  C   UNL     1       6.474   5.457  19.562  0.00  0.00    +0.000 C 
ATOM      4  N   UNL     1       6.843   5.199  17.214  0.00  0.00    +0.000 NA
ATOM      5  C   UNL     1       6.475   4.787  15.929  0.00  0.00    +0.000 A 
ATOM      6  C   UNL     1       7.430   4.821  14.911  0.00  0.00    +0.000 A 
ATOM      7  C   UNL     1       7.121   4.357  13.628  0.00  0.00    +0.000 A 
ATOM      8  C   UNL     1       5.843   3.876  13.348  0.00  0.00    +0.000 A 
ATOM      9  C   UNL     1       4.875   3.858  14.351  0.00  0.00    +0.000 A 
ATOM     10  C   UNL     1       5.202   4.304  15.637  0.00  0.00    +0.000 A 
ATOM     11  C   UNL     1       4.226   4.228  16.738  0.00  0.00    +0.000 A 
ATOM     12  O   UNL     1       3.074   3.882  16.484  0.00  0.00    +0.000 OA
ENDROOT
BRANCH   1  19
ATOM     13  C   UNL     1       1.314   6.511  21.001  0.00  0.00    +0.000 C 
ATOM     14  C   UNL     1       2.149   5.340  20.575  0.00  0.00    +0.000 A 
ATOM     15  C   UNL     1       2.056   4.110  21.234  0.00  0.00    +0.000 A 
ATOM     16  C   UNL     1       2.840   3.024  20.832  0.00  0.00    +0.000 A 
ATOM     17  C   UNL     1       3.736   3.146  19.761  0.00  0.00    +0.000 A 
ATOM     18  C   UNL     1       4.567   1.964  19.349  0.00  0.00    +0.000 C 
ATOM     19  C   UNL     1       3.825   4.384  19.097  0.00  0.00    +0.000 A 
ATOM     20  C   UNL     1       3.034   5.469  19.499  0.00  0.00    +0.000 A 
ENDBRANCH   1  19
TORSDOF 1
ENDMDL
