MODEL 1
REMARK VINA RESULT:      -7.6      0.000      0.000
REMARK  Name = 
REMARK  4 active torsions:
REMARK  status: ('A' for Active; 'I' for Inactive)
REMARK    1  A    between atoms: C_2  and  O_3
REMARK    2  A    between atoms: C_2  and  C_4
REMARK    3  A    between atoms: C_4  and  C_5
REMARK    4  A    between atoms: C_17  and  O_18
REMARK                            x       y       z     vdW  Elec       q    Type
REMARK                         _______ _______ _______ _____ _____    ______ ____
ROOT
ATOM      1  C   UNL     1       1.093   9.581  18.968  0.00  0.00    +0.000 A 
ATOM      2  C   UNL     1       1.813   9.341  17.788  0.00  0.00    +0.000 A 
ATOM      3  C   UNL     1       2.588   8.187  17.657  0.00  0.00    +0.000 A 
ATOM      4  C   UNL     1       2.637   7.270  18.707  0.00  0.00    +0.000 A 
ATOM      5  C   UNL     1       1.975   7.517  19.912  0.00  0.00    +0.000 A 
ATOM      6  C   UNL     1       1.200   8.675  20.036  0.00  0.00    +0.000 A 
ATOM      7  C   UNL     1       2.084   6.521  21.032  0.00  0.00    +0.000 C 
ATOM      8  C   UNL     1       1.278   5.271  20.701  0.00  0.00    +0.000 C 
ATOM      9  C   UNL     1       1.752   4.387  19.563  0.00  0.00    +0.000 A 
ATOM     10  C   UNL     1       1.134   3.120  19.489  0.00  0.00    +0.000 A 
ATOM     11  C   UNL     1       1.471   2.199  18.499  0.00  0.00    +0.000 A 
ATOM     12  C   UNL     1       2.421   2.530  17.541  0.00  0.00    +0.000 A 
ATOM     13  C   UNL     1       3.028   3.786  17.577  0.00  0.00    +0.000 A 
ATOM     14  C   UNL     1       2.714   4.720  18.583  0.00  0.00    +0.000 A 
ATOM     15  C   UNL     1       3.421   6.034  18.544  0.00  0.00    +0.000 C 
ATOM     16  O   UNL     1       4.630   6.129  18.376  0.00  0.00    +0.000 OA
ENDROOT
BRANCH  13  17
ATOM     17  O   UNL     1       3.894   4.115  16.569  0.00  0.00    +0.000 OA
ATOM     18  H   UNL     1       3.792   3.487  15.835  0.00  0.00    +0.000 HD
ENDBRANCH  13  17
BRANCH   1  19
ATOM     19  C   UNL     1       0.221  10.810  19.095  0.00  0.00    +0.000 C 
BRANCH  19  21
ATOM     20  O   UNL     1      -1.843   9.943  18.207  0.00  0.00    +0.000 OA
ATOM     21  C   UNL     1      -1.008  10.840  18.210  0.00  0.00    +0.000 C 
BRANCH  21  22
ATOM     22  O   UNL     1      -1.175  11.956  17.464  0.00  0.00    +0.000 OA
ATOM     23  H   UNL     1      -0.570  12.689  17.693  0.00  0.00    +0.000 HD
ENDBRANCH  21  22
ENDBRANCH  19  21
ENDBRANCH   1  19
TORSDOF 4
ENDMDL
MODEL 2
REMARK VINA RESULT:      -7.4      1.452      1.524
REMARK  Name = 
REMARK  4 active torsions:
REMARK  status: ('A' for Active; 'I' for Inactive)
REMARK    1  A    between atoms: C_2  and  O_3
REMARK    2  A    between atoms: C_2  and  C_4
REMARK    3  A    between atoms: C_4  and  C_5
REMARK    4  A    between atoms: C_17  and  O_18
REMARK                            x       y       z     vdW  Elec       q    Type
REMARK                         _______ _______ _______ _____ _____    ______ ____
ROOT
ATOM      1  C   UNL     1       1.617   9.055  18.595  0.00  0.00    +0.000 A 
ATOM      2  C   UNL     1       2.594   8.729  17.642  0.00  0.00    +0.000 A 
ATOM      3  C   UNL     1       3.337   7.554  17.767  0.00  0.00    +0.000 A 
ATOM      4  C   UNL     1       3.097   6.701  18.845  0.00  0.00    +0.000 A 
ATOM      5  C   UNL     1       2.171   7.034  19.835  0.00  0.00    +0.000 A 
ATOM      6  C   UNL     1       1.430   8.213  19.704  0.00  0.00    +0.000 A 
ATOM      7  C   UNL     1       1.969   6.105  20.999  0.00  0.00    +0.000 C 
ATOM      8  C   UNL     1       1.225   4.854  20.548  0.00  0.00    +0.000 C 
ATOM      9  C   UNL     1       1.932   3.894  19.610  0.00  0.00    +0.000 A 
ATOM     10  C   UNL     1       1.307   2.637  19.455  0.00  0.00    +0.000 A 
ATOM     11  C   UNL     1       1.843   1.651  18.628  0.00  0.00    +0.000 A 
ATOM     12  C   UNL     1       3.008   1.905  17.916  0.00  0.00    +0.000 A 
ATOM     13  C   UNL     1       3.631   3.148  18.033  0.00  0.00    +0.000 A 
ATOM     14  C   UNL     1       3.115   4.147  18.879  0.00  0.00    +0.000 A 
ATOM     15  C   UNL     1       3.854   5.441  18.945  0.00  0.00    +0.000 C 
ATOM     16  O   UNL     1       5.070   5.501  19.073  0.00  0.00    +0.000 OA
ENDROOT
BRANCH  13  17
ATOM     17  O   UNL     1       4.727   3.398  17.251  0.00  0.00    +0.000 OA
ATOM     18  H   UNL     1       4.527   3.172  16.329  0.00  0.00    +0.000 HD
ENDBRANCH  13  17
BRANCH   1  19
ATOM     19  C   UNL     1       0.784  10.307  18.439  0.00  0.00    +0.000 C 
BRANCH  19  21
ATOM     20  O   UNL     1       1.546  12.013  19.959  0.00  0.00    +0.000 OA
ATOM     21  C   UNL     1       1.472  11.606  18.805  0.00  0.00    +0.000 C 
BRANCH  21  22
ATOM     22  O   UNL     1       2.068  12.269  17.788  0.00  0.00    +0.000 OA
ATOM     23  H   UNL     1       2.953  12.625  18.002  0.00  0.00    +0.000 HD
ENDBRANCH  21  22
ENDBRANCH  19  21
ENDBRANCH   1  19
TORSDOF 4
ENDMDL
MODEL 3
REMARK VINA RESULT:      -7.4      1.234      1.422
REMARK  Name = 
REMARK  4 active torsions:
REMARK  status: ('A' for Active; 'I' for Inactive)
REMARK    1  A    between atoms: C_2  and  O_3
REMARK    2  A    between atoms: C_2  and  C_4
REMARK    3  A    between atoms: C_4  and  C_5
REMARK    4  A    between atoms: C_17  and  O_18
REMARK                            x       y       z     vdW  Elec       q    Type
REMARK                         _______ _______ _______ _____ _____    ______ ____
ROOT
ATOM      1  C   UNL     1       1.286   9.447  18.986  0.00  0.00    +0.000 A 
ATOM      2  C   UNL     1       2.030   9.193  17.823  0.00  0.00    +0.000 A 
ATOM      3  C   UNL     1       2.770   8.015  17.704  0.00  0.00    +0.000 A 
ATOM      4  C   UNL     1       2.761   7.089  18.747  0.00  0.00    +0.000 A 
ATOM      5  C   UNL     1       2.076   7.349  19.935  0.00  0.00    +0.000 A 
ATOM      6  C   UNL     1       1.335   8.531  20.048  0.00  0.00    +0.000 A 
ATOM      7  C   UNL     1       2.121   6.341  21.050  0.00  0.00    +0.000 C 
ATOM      8  C   UNL     1       1.285   5.121  20.686  0.00  0.00    +0.000 C 
ATOM      9  C   UNL     1       1.762   4.231  19.555  0.00  0.00    +0.000 A 
ATOM     10  C   UNL     1       1.106   2.984  19.454  0.00  0.00    +0.000 A 
ATOM     11  C   UNL     1       1.440   2.060  18.465  0.00  0.00    +0.000 A 
ATOM     12  C   UNL     1       2.425   2.368  17.536  0.00  0.00    +0.000 A 
ATOM     13  C   UNL     1       3.071   3.603  17.599  0.00  0.00    +0.000 A 
ATOM     14  C   UNL     1       2.760   4.539  18.603  0.00  0.00    +0.000 A 
ATOM     15  C   UNL     1       3.509   5.830  18.595  0.00  0.00    +0.000 C 
ATOM     16  O   UNL     1       4.725   5.887  18.459  0.00  0.00    +0.000 OA
ENDROOT
BRANCH  13  17
ATOM     17  O   UNL     1       3.974   3.911  16.617  0.00  0.00    +0.000 OA
ATOM     18  H   UNL     1       4.234   3.101  16.149  0.00  0.00    +0.000 HD
ENDBRANCH  13  17
BRANCH   1  19
ATOM     19  C   UNL     1       0.451  10.703  19.099  0.00  0.00    +0.000 C 
BRANCH  19  21
ATOM     20  O   UNL     1       1.185  11.842  21.091  0.00  0.00    +0.000 OA
ATOM     21  C   UNL     1       0.284  11.258  20.499  0.00  0.00    +0.000 C 
BRANCH  21  22
ATOM     22  O   UNL     1      -0.948  11.136  21.043  0.00  0.00    +0.000 OA
ATOM     23  H   UNL     1      -1.173  10.229  21.332  0.00  0.00    +0.000 HD
ENDBRANCH  21  22
ENDBRANCH  19  21
ENDBRANCH   1  19
TORSDOF 4
ENDMDL
MODEL 4
REMARK VINA RESULT:      -7.3      4.274      6.369
REMARK  Name = 
REMARK  4 active torsions:
REMARK  status: ('A' for Active; 'I' for Inactive)
REMARK    1  A    between atoms: C_2  and  O_3
REMARK    2  A    between atoms: C_2  and  C_4
REMARK    3  A    between atoms: C_4  and  C_5
REMARK    4  A    between atoms: C_17  and  O_18
REMARK                            x       y       z     vdW  Elec       q    Type
REMARK                         _______ _______ _______ _____ _____    ______ ____
ROOT
ATOM      1  C   UNL     1       5.949   4.798  14.861  0.00  0.00    +0.000 A 
ATOM      2  C   UNL     1       6.621   3.843  15.640  0.00  0.00    +0.000 A 
ATOM      3  C   UNL     1       6.364   3.741  17.008  0.00  0.00    +0.000 A 
ATOM      4  C   UNL     1       5.429   4.593  17.597  0.00  0.00    +0.000 A 
ATOM      5  C   UNL     1       4.792   5.589  16.853  0.00  0.00    +0.000 A 
ATOM      6  C   UNL     1       5.054   5.685  15.481  0.00  0.00    +0.000 A 
ATOM      7  C   UNL     1       3.818   6.510  17.532  0.00  0.00    +0.000 C 
ATOM      8  C   UNL     1       2.534   5.762  17.865  0.00  0.00    +0.000 C 
ATOM      9  C   UNL     1       2.587   4.670  18.916  0.00  0.00    +0.000 A 
ATOM     10  C   UNL     1       1.330   4.215  19.373  0.00  0.00    +0.000 A 
ATOM     11  C   UNL     1       1.222   3.218  20.340  0.00  0.00    +0.000 A 
ATOM     12  C   UNL     1       2.368   2.633  20.862  0.00  0.00    +0.000 A 
ATOM     13  C   UNL     1       3.621   3.048  20.410  0.00  0.00    +0.000 A 
ATOM     14  C   UNL     1       3.750   4.068  19.448  0.00  0.00    +0.000 A 
ATOM     15  C   UNL     1       5.130   4.450  19.032  0.00  0.00    +0.000 C 
ATOM     16  O   UNL     1       6.033   4.644  19.836  0.00  0.00    +0.000 OA
ENDROOT
BRANCH  13  17
ATOM     17  O   UNL     1       4.728   2.392  20.878  0.00  0.00    +0.000 OA
ATOM     18  H   UNL     1       4.638   1.440  20.709  0.00  0.00    +0.000 HD
ENDBRANCH  13  17
BRANCH   1  19
ATOM     19  C   UNL     1       6.196   4.881  13.372  0.00  0.00    +0.000 C 
BRANCH  19  21
ATOM     20  O   UNL     1       4.613   3.526  12.165  0.00  0.00    +0.000 OA
ATOM     21  C   UNL     1       5.762   3.676  12.563  0.00  0.00    +0.000 C 
BRANCH  21  22
ATOM     22  O   UNL     1       6.737   2.795  12.241  0.00  0.00    +0.000 OA
ATOM     23  H   UNL     1       6.495   2.168  11.530  0.00  0.00    +0.000 HD
ENDBRANCH  21  22
ENDBRANCH  19  21
ENDBRANCH   1  19
TORSDOF 4
ENDMDL
MODEL 5
REMARK VINA RESULT:      -7.3      3.428      6.277
REMARK  Name = 
REMARK  4 active torsions:
REMARK  status: ('A' for Active; 'I' for Inactive)
REMARK    1  A    between atoms: C_2  and  O_3
REMARK    2  A    between atoms: C_2  and  C_4
REMARK    3  A    between atoms: C_4  and  C_5
REMARK    4  A    between atoms: C_17  and  O_18
REMARK                            x       y       z     vdW  Elec       q    Type
REMARK                         _______ _______ _______ _____ _____    ______ ____
ROOT
ATOM      1  C   UNL     1       6.249   5.008  15.997  0.00  0.00    +0.000 A 
ATOM      2  C   UNL     1       6.103   6.129  16.829  0.00  0.00    +0.000 A 
ATOM      3  C   UNL     1       4.953   6.289  17.602  0.00  0.00    +0.000 A 
ATOM      4  C   UNL     1       3.948   5.322  17.547  0.00  0.00    +0.000 A 
ATOM      5  C   UNL     1       4.046   4.229  16.683  0.00  0.00    +0.000 A 
ATOM      6  C   UNL     1       5.202   4.075  15.911  0.00  0.00    +0.000 A 
ATOM      7  C   UNL     1       2.925   3.230  16.627  0.00  0.00    +0.000 C 
ATOM      8  C   UNL     1       2.912   2.385  17.895  0.00  0.00    +0.000 C 
ATOM      9  C   UNL     1       2.552   3.058  19.206  0.00  0.00    +0.000 A 
ATOM     10  C   UNL     1       2.289   2.179  20.279  0.00  0.00    +0.000 A 
ATOM     11  C   UNL     1       1.941   2.653  21.543  0.00  0.00    +0.000 A 
ATOM     12  C   UNL     1       1.870   4.020  21.773  0.00  0.00    +0.000 A 
ATOM     13  C   UNL     1       2.150   4.910  20.736  0.00  0.00    +0.000 A 
ATOM     14  C   UNL     1       2.482   4.449  19.448  0.00  0.00    +0.000 A 
ATOM     15  C   UNL     1       2.757   5.475  18.400  0.00  0.00    +0.000 C 
ATOM     16  O   UNL     1       2.035   6.447  18.223  0.00  0.00    +0.000 OA
ENDROOT
BRANCH  13  17
ATOM     17  O   UNL     1       2.157   6.250  21.017  0.00  0.00    +0.000 OA
ATOM     18  H   UNL     1       2.943   6.661  20.622  0.00  0.00    +0.000 HD
ENDBRANCH  13  17
BRANCH   1  19
ATOM     19  C   UNL     1       7.512   4.814  15.189  0.00  0.00    +0.000 C 
BRANCH  19  21
ATOM     20  O   UNL     1       7.954   5.764  13.020  0.00  0.00    +0.000 OA
ATOM     21  C   UNL     1       7.357   4.926  13.686  0.00  0.00    +0.000 C 
BRANCH  21  22
ATOM     22  O   UNL     1       6.568   3.997  13.100  0.00  0.00    +0.000 OA
ATOM     23  H   UNL     1       6.225   4.255  12.221  0.00  0.00    +0.000 HD
ENDBRANCH  21  22
ENDBRANCH  19  21
ENDBRANCH   1  19
TORSDOF 4
ENDMDL
MODEL 6
REMARK VINA RESULT:      -7.0      3.820      6.858
REMARK  Name = 
REMARK  4 active torsions:
REMARK  status: ('A' for Active; 'I' for Inactive)
REMARK    1  A    between atoms: C_2  and  O_3
REMARK    2  A    between atoms: C_2  and  C_4
REMARK    3  A    between atoms: C_4  and  C_5
REMARK    4  A    between atoms: C_17  and  O_18
REMARK                            x       y       z     vdW  Elec       q    Type
REMARK                         _______ _______ _______ _____ _____    ______ ____
ROOT
ATOM      1  C   UNL     1       5.991   4.384  14.340  0.00  0.00    +0.000 A 
ATOM      2  C   UNL     1       5.799   3.211  15.086  0.00  0.00    +0.000 A 
ATOM      3  C   UNL     1       5.564   3.279  16.460  0.00  0.00    +0.000 A 
ATOM      4  C   UNL     1       5.515   4.525  17.088  0.00  0.00    +0.000 A 
ATOM      5  C   UNL     1       5.760   5.700  16.376  0.00  0.00    +0.000 A 
ATOM      6  C   UNL     1       5.996   5.625  14.999  0.00  0.00    +0.000 A 
ATOM      7  C   UNL     1       5.734   7.019  17.097  0.00  0.00    +0.000 C 
ATOM      8  C   UNL     1       4.302   7.390  17.459  0.00  0.00    +0.000 C 
ATOM      9  C   UNL     1       3.580   6.549  18.495  0.00  0.00    +0.000 A 
ATOM     10  C   UNL     1       2.376   7.103  18.984  0.00  0.00    +0.000 A 
ATOM     11  C   UNL     1       1.606   6.446  19.942  0.00  0.00    +0.000 A 
ATOM     12  C   UNL     1       2.008   5.207  20.421  0.00  0.00    +0.000 A 
ATOM     13  C   UNL     1       3.180   4.627  19.936  0.00  0.00    +0.000 A 
ATOM     14  C   UNL     1       3.981   5.285  18.983  0.00  0.00    +0.000 A 
ATOM     15  C   UNL     1       5.221   4.591  18.530  0.00  0.00    +0.000 C 
ATOM     16  O   UNL     1       6.006   4.065  19.308  0.00  0.00    +0.000 OA
ENDROOT
BRANCH  13  17
ATOM     17  O   UNL     1       3.503   3.366  20.362  0.00  0.00    +0.000 OA
ATOM     18  H   UNL     1       4.341   3.393  20.851  0.00  0.00    +0.000 HD
ENDBRANCH  13  17
BRANCH   1  19
ATOM     19  C   UNL     1       6.206   4.313  12.845  0.00  0.00    +0.000 C 
BRANCH  19  21
ATOM     20  O   UNL     1       4.327   3.297  11.733  0.00  0.00    +0.000 OA
ATOM     21  C   UNL     1       5.483   3.192  12.129  0.00  0.00    +0.000 C 
BRANCH  21  22
ATOM     22  O   UNL     1       6.209   2.078  11.883  0.00  0.00    +0.000 OA
ATOM     23  H   UNL     1       5.688   1.251  11.869  0.00  0.00    +0.000 HD
ENDBRANCH  21  22
ENDBRANCH  19  21
ENDBRANCH   1  19
TORSDOF 4
ENDMDL
MODEL 7
REMARK VINA RESULT:      -7.0      4.238      6.308
REMARK  Name = 
REMARK  4 active torsions:
REMARK  status: ('A' for Active; 'I' for Inactive)
REMARK    1  A    between atoms: C_2  and  O_3
REMARK    2  A    between atoms: C_2  and  C_4
REMARK    3  A    between atoms: C_4  and  C_5
REMARK    4  A    between atoms: C_17  and  O_18
REMARK                            x       y       z     vdW  Elec       q    Type
REMARK                         _______ _______ _______ _____ _____    ______ ____
ROOT
ATOM      1  C   UNL     1       5.852   5.232  14.965  0.00  0.00    +0.000 A 
ATOM      2  C   UNL     1       6.508   4.169  15.606  0.00  0.00    +0.000 A 
ATOM      3  C   UNL     1       6.280   3.912  16.958  0.00  0.00    +0.000 A 
ATOM      4  C   UNL     1       5.389   4.716  17.670  0.00  0.00    +0.000 A 
ATOM      5  C   UNL     1       4.770   5.813  17.068  0.00  0.00    +0.000 A 
ATOM      6  C   UNL     1       5.004   6.066  15.711  0.00  0.00    +0.000 A 
ATOM      7  C   UNL     1       3.845   6.677  17.880  0.00  0.00    +0.000 C 
ATOM      8  C   UNL     1       2.544   5.935  18.155  0.00  0.00    +0.000 C 
ATOM      9  C   UNL     1       2.583   4.723  19.066  0.00  0.00    +0.000 A 
ATOM     10  C   UNL     1       1.323   4.256  19.499  0.00  0.00    +0.000 A 
ATOM     11  C   UNL     1       1.202   3.154  20.343  0.00  0.00    +0.000 A 
ATOM     12  C   UNL     1       2.339   2.474  20.759  0.00  0.00    +0.000 A 
ATOM     13  C   UNL     1       3.595   2.901  20.326  0.00  0.00    +0.000 A 
ATOM     14  C   UNL     1       3.736   4.025  19.490  0.00  0.00    +0.000 A 
ATOM     15  C   UNL     1       5.119   4.410  19.085  0.00  0.00    +0.000 C 
ATOM     16  O   UNL     1       6.046   4.477  19.882  0.00  0.00    +0.000 OA
ENDROOT
BRANCH  13  17
ATOM     17  O   UNL     1       4.689   2.158  20.682  0.00  0.00    +0.000 OA
ATOM     18  H   UNL     1       4.450   1.553  21.403  0.00  0.00    +0.000 HD
ENDBRANCH  13  17
BRANCH   1  19
ATOM     19  C   UNL     1       6.068   5.486  13.490  0.00  0.00    +0.000 C 
BRANCH  19  21
ATOM     20  O   UNL     1       7.467   4.064  12.141  0.00  0.00    +0.000 OA
ATOM     21  C   UNL     1       7.388   5.003  12.925  0.00  0.00    +0.000 C 
BRANCH  21  22
ATOM     22  O   UNL     1       8.482   5.714  13.281  0.00  0.00    +0.000 OA
ATOM     23  H   UNL     1       8.399   6.678  13.145  0.00  0.00    +0.000 HD
ENDBRANCH  21  22
ENDBRANCH  19  21
ENDBRANCH   1  19
TORSDOF 4
ENDMDL
MODEL 8
REMARK VINA RESULT:      -6.9      1.907      6.761
REMARK  Name = 
REMARK  4 active torsions:
REMARK  status: ('A' for Active; 'I' for Inactive)
REMARK    1  A    between atoms: C_2  and  O_3
REMARK    2  A    between atoms: C_2  and  C_4
REMARK    3  A    between atoms: C_4  and  C_5
REMARK    4  A    between atoms: C_17  and  O_18
REMARK                            x       y       z     vdW  Elec       q    Type
REMARK                         _______ _______ _______ _____ _____    ______ ____
ROOT
ATOM      1  C   UNL     1       2.079   4.532  18.592  0.00  0.00    +0.000 A 
ATOM      2  C   UNL     1       1.536   4.533  19.887  0.00  0.00    +0.000 A 
ATOM      3  C   UNL     1       1.395   5.729  20.592  0.00  0.00    +0.000 A 
ATOM      4  C   UNL     1       1.793   6.928  19.998  0.00  0.00    +0.000 A 
ATOM      5  C   UNL     1       2.389   6.943  18.735  0.00  0.00    +0.000 A 
ATOM      6  C   UNL     1       2.527   5.740  18.034  0.00  0.00    +0.000 A 
ATOM      7  C   UNL     1       2.837   8.252  18.146  0.00  0.00    +0.000 C 
ATOM      8  C   UNL     1       1.628   9.077  17.725  0.00  0.00    +0.000 C 
ATOM      9  C   UNL     1       0.710   9.616  18.805  0.00  0.00    +0.000 A 
ATOM     10  C   UNL     1      -0.217  10.591  18.375  0.00  0.00    +0.000 A 
ATOM     11  C   UNL     1      -1.121  11.179  19.257  0.00  0.00    +0.000 A 
ATOM     12  C   UNL     1      -1.138  10.792  20.591  0.00  0.00    +0.000 A 
ATOM     13  C   UNL     1      -0.249   9.812  21.035  0.00  0.00    +0.000 A 
ATOM     14  C   UNL     1       0.685   9.223  20.163  0.00  0.00    +0.000 A 
ATOM     15  C   UNL     1       1.600   8.191  20.731  0.00  0.00    +0.000 C 
ATOM     16  O   UNL     1       2.195   8.346  21.789  0.00  0.00    +0.000 OA
ENDROOT
BRANCH  13  17
ATOM     17  O   UNL     1      -0.350   9.389  22.334  0.00  0.00    +0.000 OA
ATOM     18  H   UNL     1      -1.197   9.683  22.707  0.00  0.00    +0.000 HD
ENDBRANCH  13  17
BRANCH   1  19
ATOM     19  C   UNL     1       2.194   3.242  17.812  0.00  0.00    +0.000 C 
BRANCH  19  21
ATOM     20  O   UNL     1       3.457   1.333  18.563  0.00  0.00    +0.000 OA
ATOM     21  C   UNL     1       3.460   2.443  18.044  0.00  0.00    +0.000 C 
BRANCH  21  22
ATOM     22  O   UNL     1       4.604   2.997  17.580  0.00  0.00    +0.000 OA
ATOM     23  H   UNL     1       5.152   3.426  18.267  0.00  0.00    +0.000 HD
ENDBRANCH  21  22
ENDBRANCH  19  21
ENDBRANCH   1  19
TORSDOF 4
ENDMDL
MODEL 9
REMARK VINA RESULT:      -6.9      2.215      6.705
REMARK  Name = 
REMARK  4 active torsions:
REMARK  status: ('A' for Active; 'I' for Inactive)
REMARK    1  A    between atoms: C_2  and  O_3
REMARK    2  A    between atoms: C_2  and  C_4
REMARK    3  A    between atoms: C_4  and  C_5
REMARK    4  A    between atoms: C_17  and  O_18
REMARK                            x       y       z     vdW  Elec       q    Type
REMARK                         _______ _______ _______ _____ _____    ______ ____
ROOT
ATOM      1  C   UNL     1       2.069   4.823  18.668  0.00  0.00    +0.000 A 
ATOM      2  C   UNL     1       1.585   4.809  19.985  0.00  0.00    +0.000 A 
ATOM      3  C   UNL     1       1.432   6.003  20.693  0.00  0.00    +0.000 A 
ATOM      4  C   UNL     1       1.760   7.212  20.079  0.00  0.00    +0.000 A 
ATOM      5  C   UNL     1       2.298   7.244  18.791  0.00  0.00    +0.000 A 
ATOM      6  C   UNL     1       2.448   6.044  18.087  0.00  0.00    +0.000 A 
ATOM      7  C   UNL     1       2.672   8.565  18.179  0.00  0.00    +0.000 C 
ATOM      8  C   UNL     1       1.417   9.345  17.810  0.00  0.00    +0.000 C 
ATOM      9  C   UNL     1       0.529   9.855  18.929  0.00  0.00    +0.000 A 
ATOM     10  C   UNL     1      -0.450  10.794  18.538  0.00  0.00    +0.000 A 
ATOM     11  C   UNL     1      -1.335  11.354  19.458  0.00  0.00    +0.000 A 
ATOM     12  C   UNL     1      -1.278  10.971  20.791  0.00  0.00    +0.000 A 
ATOM     13  C   UNL     1      -0.336  10.026  21.199  0.00  0.00    +0.000 A 
ATOM     14  C   UNL     1       0.579   9.467  20.287  0.00  0.00    +0.000 A 
ATOM     15  C   UNL     1       1.554   8.470  20.816  0.00  0.00    +0.000 C 
ATOM     16  O   UNL     1       2.190   8.652  21.847  0.00  0.00    +0.000 OA
ENDROOT
BRANCH  13  17
ATOM     17  O   UNL     1      -0.364   9.605  22.501  0.00  0.00    +0.000 OA
ATOM     18  H   UNL     1       0.452   9.880  22.950  0.00  0.00    +0.000 HD
ENDBRANCH  13  17
BRANCH   1  19
ATOM     19  C   UNL     1       2.196   3.534  17.887  0.00  0.00    +0.000 C 
BRANCH  19  21
ATOM     20  O   UNL     1       0.263   2.213  18.454  0.00  0.00    +0.000 OA
ATOM     21  C   UNL     1       1.483   2.334  18.476  0.00  0.00    +0.000 C 
BRANCH  21  22
ATOM     22  O   UNL     1       2.276   1.357  18.972  0.00  0.00    +0.000 OA
ATOM     23  H   UNL     1       2.965   1.044  18.354  0.00  0.00    +0.000 HD
ENDBRANCH  21  22
ENDBRANCH  19  21
ENDBRANCH   1  19
TORSDOF 4
ENDMDL
