MODEL 1
REMARK VINA RESULT:      -7.8      0.000      0.000
REMARK  Name = 
REMARK  2 active torsions:
REMARK  status: ('A' for Active; 'I' for Inactive)
REMARK    1  A    between atoms: C_1  and  C_2
REMARK    2  A    between atoms: C_13  and  C_14
REMARK                            x       y       z     vdW  Elec       q    Type
REMARK                         _______ _______ _______ _____ _____    ______ ____
ROOT
ATOM      1  C   UNL     1       2.152   7.602  18.162  0.00  0.00    +0.000 C 
ATOM      2  C   UNL     1       2.774   6.317  18.613  0.00  0.00    +0.000 A 
ATOM      3  C   UNL     1       2.237   5.598  19.691  0.00  0.00    +0.000 A 
ATOM      4  C   UNL     1       2.824   4.400  20.128  0.00  0.00    +0.000 A 
ATOM      5  C   UNL     1       3.960   3.895  19.498  0.00  0.00    +0.000 A 
ATOM      6  C   UNL     1       4.486   4.598  18.427  0.00  0.00    +0.000 A 
ATOM      7  C   UNL     1       3.902   5.794  17.987  0.00  0.00    +0.000 A 
ATOM      8  C   UNL     1       4.694   6.377  16.851  0.00  0.00    +0.000 C 
ATOM      9  C   UNL     1       5.525   5.160  16.385  0.00  0.00    +0.000 C 
ATOM     10  C   UNL     1       5.714   4.269  17.633  0.00  0.00    +0.000 C 
ATOM     11  C   UNL     1       4.833   4.395  15.220  0.00  0.00    +0.000 C 
ATOM     12  C   UNL     1       5.821   4.436  14.093  0.00  0.00    +0.000 A 
ATOM     13  C   UNL     1       5.691   3.887  12.819  0.00  0.00    +0.000 A 
ATOM     14  C   UNL     1       4.471   3.131  12.384  0.00  0.00    +0.000 C 
ATOM     15  C   UNL     1       6.757   4.061  11.918  0.00  0.00    +0.000 A 
ATOM     16  C   UNL     1       7.918   4.763  12.284  0.00  0.00    +0.000 A 
ATOM     17  C   UNL     1       8.038   5.306  13.562  0.00  0.00    +0.000 A 
ATOM     18  C   UNL     1       6.980   5.126  14.435  0.00  0.00    +0.000 A 
ATOM     19  C   UNL     1       6.862   5.593  15.812  0.00  0.00    +0.000 C 
ATOM     20  O   UNL     1       7.730   6.233  16.380  0.00  0.00    +0.000 OA
ENDROOT
TORSDOF 0
ENDMDL
MODEL 2
REMARK VINA RESULT:      -7.4      2.087      6.617
REMARK  Name = 
REMARK  2 active torsions:
REMARK  status: ('A' for Active; 'I' for Inactive)
REMARK    1  A    between atoms: C_1  and  C_2
REMARK    2  A    between atoms: C_13  and  C_14
REMARK                            x       y       z     vdW  Elec       q    Type
REMARK                         _______ _______ _______ _____ _____    ______ ____
ROOT
ATOM      1  C   UNL     1       7.466   7.261  17.195  0.00  0.00    +0.000 C 
ATOM      2  C   UNL     1       6.906   6.155  16.356  0.00  0.00    +0.000 A 
ATOM      3  C   UNL     1       7.560   5.738  15.187  0.00  0.00    +0.000 A 
ATOM      4  C   UNL     1       7.032   4.712  14.387  0.00  0.00    +0.000 A 
ATOM      5  C   UNL     1       5.839   4.081  14.739  0.00  0.00    +0.000 A 
ATOM      6  C   UNL     1       5.198   4.485  15.897  0.00  0.00    +0.000 A 
ATOM      7  C   UNL     1       5.722   5.508  16.698  0.00  0.00    +0.000 A 
ATOM      8  C   UNL     1       4.810   5.784  17.859  0.00  0.00    +0.000 C 
ATOM      9  C   UNL     1       3.944   4.505  17.895  0.00  0.00    +0.000 C 
ATOM     10  C   UNL     1       3.894   3.983  16.443  0.00  0.00    +0.000 C 
ATOM     11  C   UNL     1       4.514   3.444  18.879  0.00  0.00    +0.000 C 
ATOM     12  C   UNL     1       3.411   3.204  19.868  0.00  0.00    +0.000 A 
ATOM     13  C   UNL     1       3.411   2.334  20.955  0.00  0.00    +0.000 A 
ATOM     14  C   UNL     1       4.583   1.464  21.298  0.00  0.00    +0.000 C 
ATOM     15  C   UNL     1       2.254   2.284  21.754  0.00  0.00    +0.000 A 
ATOM     16  C   UNL     1       1.133   3.083  21.470  0.00  0.00    +0.000 A 
ATOM     17  C   UNL     1       1.145   3.948  20.377  0.00  0.00    +0.000 A 
ATOM     18  C   UNL     1       2.290   3.985  19.603  0.00  0.00    +0.000 A 
ATOM     19  C   UNL     1       2.550   4.799  18.421  0.00  0.00    +0.000 C 
ATOM     20  O   UNL     1       1.742   5.584  17.956  0.00  0.00    +0.000 OA
ENDROOT
TORSDOF 0
ENDMDL
MODEL 3
REMARK VINA RESULT:      -7.2      1.197      6.319
REMARK  Name = 
REMARK  2 active torsions:
REMARK  status: ('A' for Active; 'I' for Inactive)
REMARK    1  A    between atoms: C_1  and  C_2
REMARK    2  A    between atoms: C_13  and  C_14
REMARK                            x       y       z     vdW  Elec       q    Type
REMARK                         _______ _______ _______ _____ _____    ______ ____
ROOT
ATOM      1  C   UNL     1       4.827   3.226  12.519  0.00  0.00    +0.000 C 
ATOM      2  C   UNL     1       5.933   4.023  13.137  0.00  0.00    +0.000 A 
ATOM      3  C   UNL     1       7.019   4.463  12.366  0.00  0.00    +0.000 A 
ATOM      4  C   UNL     1       8.067   5.198  12.943  0.00  0.00    +0.000 A 
ATOM      5  C   UNL     1       8.051   5.509  14.302  0.00  0.00    +0.000 A 
ATOM      6  C   UNL     1       6.974   5.086  15.062  0.00  0.00    +0.000 A 
ATOM      7  C   UNL     1       5.927   4.352  14.490  0.00  0.00    +0.000 A 
ATOM      8  C   UNL     1       4.919   3.974  15.537  0.00  0.00    +0.000 C 
ATOM      9  C   UNL     1       5.262   4.957  16.679  0.00  0.00    +0.000 C 
ATOM     10  C   UNL     1       6.768   5.267  16.536  0.00  0.00    +0.000 C 
ATOM     11  C   UNL     1       4.392   6.245  16.620  0.00  0.00    +0.000 C 
ATOM     12  C   UNL     1       3.675   6.285  17.937  0.00  0.00    +0.000 A 
ATOM     13  C   UNL     1       2.773   7.244  18.392  0.00  0.00    +0.000 A 
ATOM     14  C   UNL     1       2.382   8.440  17.577  0.00  0.00    +0.000 C 
ATOM     15  C   UNL     1       2.217   7.065  19.672  0.00  0.00    +0.000 A 
ATOM     16  C   UNL     1       2.555   5.959  20.470  0.00  0.00    +0.000 A 
ATOM     17  C   UNL     1       3.460   5.007  20.004  0.00  0.00    +0.000 A 
ATOM     18  C   UNL     1       3.997   5.197  18.744  0.00  0.00    +0.000 A 
ATOM     19  C   UNL     1       4.953   4.352  18.037  0.00  0.00    +0.000 C 
ATOM     20  O   UNL     1       5.412   3.323  18.503  0.00  0.00    +0.000 OA
ENDROOT
TORSDOF 0
ENDMDL
MODEL 4
REMARK VINA RESULT:      -7.2      2.895      5.176
REMARK  Name = 
REMARK  2 active torsions:
REMARK  status: ('A' for Active; 'I' for Inactive)
REMARK    1  A    between atoms: C_1  and  C_2
REMARK    2  A    between atoms: C_13  and  C_14
REMARK                            x       y       z     vdW  Elec       q    Type
REMARK                         _______ _______ _______ _____ _____    ______ ____
ROOT
ATOM      1  C   UNL     1       1.469   8.870  22.267  0.00  0.00    +0.000 C 
ATOM      2  C   UNL     1       1.204   9.332  20.868  0.00  0.00    +0.000 A 
ATOM      3  C   UNL     1       0.579  10.564  20.624  0.00  0.00    +0.000 A 
ATOM      4  C   UNL     1       0.314  10.996  19.315  0.00  0.00    +0.000 A 
ATOM      5  C   UNL     1       0.668  10.207  18.222  0.00  0.00    +0.000 A 
ATOM      6  C   UNL     1       1.295   8.995  18.460  0.00  0.00    +0.000 A 
ATOM      7  C   UNL     1       1.561   8.561  19.766  0.00  0.00    +0.000 A 
ATOM      8  C   UNL     1       2.195   7.199  19.746  0.00  0.00    +0.000 C 
ATOM      9  C   UNL     1       2.684   7.097  18.283  0.00  0.00    +0.000 C 
ATOM     10  C   UNL     1       1.723   7.973  17.450  0.00  0.00    +0.000 C 
ATOM     11  C   UNL     1       4.165   7.548  18.132  0.00  0.00    +0.000 C 
ATOM     12  C   UNL     1       4.874   6.353  17.565  0.00  0.00    +0.000 A 
ATOM     13  C   UNL     1       6.222   6.234  17.236  0.00  0.00    +0.000 A 
ATOM     14  C   UNL     1       7.201   7.357  17.409  0.00  0.00    +0.000 C 
ATOM     15  C   UNL     1       6.665   5.002  16.721  0.00  0.00    +0.000 A 
ATOM     16  C   UNL     1       5.783   3.923  16.543  0.00  0.00    +0.000 A 
ATOM     17  C   UNL     1       4.436   4.055  16.875  0.00  0.00    +0.000 A 
ATOM     18  C   UNL     1       4.017   5.273  17.380  0.00  0.00    +0.000 A 
ATOM     19  C   UNL     1       2.674   5.659  17.799  0.00  0.00    +0.000 C 
ATOM     20  O   UNL     1       1.715   4.908  17.751  0.00  0.00    +0.000 OA
ENDROOT
TORSDOF 0
ENDMDL
MODEL 5
REMARK VINA RESULT:      -6.8      1.149      1.199
REMARK  Name = 
REMARK  2 active torsions:
REMARK  status: ('A' for Active; 'I' for Inactive)
REMARK    1  A    between atoms: C_1  and  C_2
REMARK    2  A    between atoms: C_13  and  C_14
REMARK                            x       y       z     vdW  Elec       q    Type
REMARK                         _______ _______ _______ _____ _____    ______ ____
ROOT
ATOM      1  C   UNL     1       1.313   5.580  17.737  0.00  0.00    +0.000 C 
ATOM      2  C   UNL     1       2.272   4.523  18.189  0.00  0.00    +0.000 A 
ATOM      3  C   UNL     1       1.897   3.577  19.155  0.00  0.00    +0.000 A 
ATOM      4  C   UNL     1       2.796   2.592  19.594  0.00  0.00    +0.000 A 
ATOM      5  C   UNL     1       4.090   2.532  19.078  0.00  0.00    +0.000 A 
ATOM      6  C   UNL     1       4.459   3.458  18.117  0.00  0.00    +0.000 A 
ATOM      7  C   UNL     1       3.564   4.442  17.676  0.00  0.00    +0.000 A 
ATOM      8  C   UNL     1       4.229   5.345  16.677  0.00  0.00    +0.000 C 
ATOM      9  C   UNL     1       5.450   4.501  16.248  0.00  0.00    +0.000 C 
ATOM     10  C   UNL     1       5.798   3.608  17.459  0.00  0.00    +0.000 C 
ATOM     11  C   UNL     1       5.159   3.665  14.969  0.00  0.00    +0.000 C 
ATOM     12  C   UNL     1       6.184   4.118  13.972  0.00  0.00    +0.000 A 
ATOM     13  C   UNL     1       6.361   3.673  12.664  0.00  0.00    +0.000 A 
ATOM     14  C   UNL     1       5.501   2.612  12.045  0.00  0.00    +0.000 C 
ATOM     15  C   UNL     1       7.395   4.256  11.908  0.00  0.00    +0.000 A 
ATOM     16  C   UNL     1       8.224   5.254  12.448  0.00  0.00    +0.000 A 
ATOM     17  C   UNL     1       8.038   5.689  13.758  0.00  0.00    +0.000 A 
ATOM     18  C   UNL     1       7.017   5.106  14.487  0.00  0.00    +0.000 A 
ATOM     19  C   UNL     1       6.622   5.386  15.863  0.00  0.00    +0.000 C 
ATOM     20  O   UNL     1       7.177   6.213  16.566  0.00  0.00    +0.000 OA
ENDROOT
TORSDOF 0
ENDMDL
MODEL 6
REMARK VINA RESULT:      -6.8      4.372      8.764
REMARK  Name = 
REMARK  2 active torsions:
REMARK  status: ('A' for Active; 'I' for Inactive)
REMARK    1  A    between atoms: C_1  and  C_2
REMARK    2  A    between atoms: C_13  and  C_14
REMARK                            x       y       z     vdW  Elec       q    Type
REMARK                         _______ _______ _______ _____ _____    ______ ____
ROOT
ATOM      1  C   UNL     1       2.057   5.433  20.574  0.00  0.00    +0.000 C 
ATOM      2  C   UNL     1       2.578   6.244  19.428  0.00  0.00    +0.000 A 
ATOM      3  C   UNL     1       3.494   5.695  18.518  0.00  0.00    +0.000 A 
ATOM      4  C   UNL     1       3.998   6.453  17.450  0.00  0.00    +0.000 A 
ATOM      5  C   UNL     1       3.599   7.777  17.269  0.00  0.00    +0.000 A 
ATOM      6  C   UNL     1       2.687   8.317  18.160  0.00  0.00    +0.000 A 
ATOM      7  C   UNL     1       2.181   7.563  19.227  0.00  0.00    +0.000 A 
ATOM      8  C   UNL     1       1.257   8.397  20.068  0.00  0.00    +0.000 C 
ATOM      9  C   UNL     1       0.928   9.567  19.113  0.00  0.00    +0.000 C 
ATOM     10  C   UNL     1       2.154   9.718  18.185  0.00  0.00    +0.000 C 
ATOM     11  C   UNL     1      -0.382   9.315  18.314  0.00  0.00    +0.000 C 
ATOM     12  C   UNL     1      -1.278  10.463  18.672  0.00  0.00    +0.000 A 
ATOM     13  C   UNL     1      -2.571  10.715  18.218  0.00  0.00    +0.000 A 
ATOM     14  C   UNL     1      -3.278   9.817  17.247  0.00  0.00    +0.000 C 
ATOM     15  C   UNL     1      -3.224  11.863  18.703  0.00  0.00    +0.000 A 
ATOM     16  C   UNL     1      -2.599  12.731  19.614  0.00  0.00    +0.000 A 
ATOM     17  C   UNL     1      -1.305  12.469  20.060  0.00  0.00    +0.000 A 
ATOM     18  C   UNL     1      -0.677  11.337  19.573  0.00  0.00    +0.000 A 
ATOM     19  C   UNL     1       0.661  10.847  19.883  0.00  0.00    +0.000 C 
ATOM     20  O   UNL     1       1.422  11.413  20.651  0.00  0.00    +0.000 OA
ENDROOT
TORSDOF 0
ENDMDL
MODEL 7
REMARK VINA RESULT:      -6.6      4.218      7.545
REMARK  Name = 
REMARK  2 active torsions:
REMARK  status: ('A' for Active; 'I' for Inactive)
REMARK    1  A    between atoms: C_1  and  C_2
REMARK    2  A    between atoms: C_13  and  C_14
REMARK                            x       y       z     vdW  Elec       q    Type
REMARK                         _______ _______ _______ _____ _____    ______ ____
ROOT
ATOM      1  C   UNL     1       6.026   5.134  19.324  0.00  0.00    +0.000 C 
ATOM      2  C   UNL     1       4.663   4.699  18.886  0.00  0.00    +0.000 A 
ATOM      3  C   UNL     1       4.373   3.341  18.684  0.00  0.00    +0.000 A 
ATOM      4  C   UNL     1       3.100   2.927  18.260  0.00  0.00    +0.000 A 
ATOM      5  C   UNL     1       2.091   3.861  18.027  0.00  0.00    +0.000 A 
ATOM      6  C   UNL     1       2.372   5.200  18.237  0.00  0.00    +0.000 A 
ATOM      7  C   UNL     1       3.641   5.617  18.661  0.00  0.00    +0.000 A 
ATOM      8  C   UNL     1       3.695   7.115  18.758  0.00  0.00    +0.000 C 
ATOM      9  C   UNL     1       2.195   7.486  18.791  0.00  0.00    +0.000 C 
ATOM     10  C   UNL     1       1.463   6.371  18.012  0.00  0.00    +0.000 C 
ATOM     11  C   UNL     1       1.662   7.630  20.245  0.00  0.00    +0.000 C 
ATOM     12  C   UNL     1       1.147   9.036  20.328  0.00  0.00    +0.000 A 
ATOM     13  C   UNL     1       0.558   9.669  21.420  0.00  0.00    +0.000 A 
ATOM     14  C   UNL     1       0.343   8.982  22.736  0.00  0.00    +0.000 C 
ATOM     15  C   UNL     1       0.156  11.008  21.264  0.00  0.00    +0.000 A 
ATOM     16  C   UNL     1       0.339  11.690  20.049  0.00  0.00    +0.000 A 
ATOM     17  C   UNL     1       0.928  11.046  18.963  0.00  0.00    +0.000 A 
ATOM     18  C   UNL     1       1.318   9.729  19.134  0.00  0.00    +0.000 A 
ATOM     19  C   UNL     1       1.951   8.846  18.162  0.00  0.00    +0.000 C 
ATOM     20  O   UNL     1       2.225   9.187  17.024  0.00  0.00    +0.000 OA
ENDROOT
TORSDOF 0
ENDMDL
MODEL 8
REMARK VINA RESULT:      -6.1      8.765     13.460
REMARK  Name = 
REMARK  2 active torsions:
REMARK  status: ('A' for Active; 'I' for Inactive)
REMARK    1  A    between atoms: C_1  and  C_2
REMARK    2  A    between atoms: C_13  and  C_14
REMARK                            x       y       z     vdW  Elec       q    Type
REMARK                         _______ _______ _______ _____ _____    ______ ____
ROOT
ATOM      1  C   UNL     1      -0.280  11.085  18.579  0.00  0.00    +0.000 C 
ATOM      2  C   UNL     1      -0.090  10.512  19.949  0.00  0.00    +0.000 A 
ATOM      3  C   UNL     1       0.808   9.458  20.169  0.00  0.00    +0.000 A 
ATOM      4  C   UNL     1       0.980   8.907  21.449  0.00  0.00    +0.000 A 
ATOM      5  C   UNL     1       0.257   9.398  22.536  0.00  0.00    +0.000 A 
ATOM      6  C   UNL     1      -0.622  10.446  22.322  0.00  0.00    +0.000 A 
ATOM      7  C   UNL     1      -0.796  10.999  21.046  0.00  0.00    +0.000 A 
ATOM      8  C   UNL     1      -1.839  12.079  21.081  0.00  0.00    +0.000 C 
ATOM      9  C   UNL     1      -1.913  12.402  22.590  0.00  0.00    +0.000 C 
ATOM     10  C   UNL     1      -1.526  11.100  23.324  0.00  0.00    +0.000 C 
ATOM     11  C   UNL     1      -0.986  13.589  22.977  0.00  0.00    +0.000 C 
ATOM     12  C   UNL     1      -1.904  14.616  23.572  0.00  0.00    +0.000 A 
ATOM     13  C   UNL     1      -1.572  15.868  24.084  0.00  0.00    +0.000 A 
ATOM     14  C   UNL     1      -0.164  16.382  24.116  0.00  0.00    +0.000 C 
ATOM     15  C   UNL     1      -2.614  16.668  24.587  0.00  0.00    +0.000 A 
ATOM     16  C   UNL     1      -3.948  16.226  24.576  0.00  0.00    +0.000 A 
ATOM     17  C   UNL     1      -4.268  14.970  24.062  0.00  0.00    +0.000 A 
ATOM     18  C   UNL     1      -3.231  14.196  23.571  0.00  0.00    +0.000 A 
ATOM     19  C   UNL     1      -3.304  12.863  22.986  0.00  0.00    +0.000 C 
ATOM     20  O   UNL     1      -4.346  12.244  22.854  0.00  0.00    +0.000 OA
ENDROOT
TORSDOF 0
ENDMDL
MODEL 9
REMARK VINA RESULT:      -6.1      3.277      5.370
REMARK  Name = 
REMARK  2 active torsions:
REMARK  status: ('A' for Active; 'I' for Inactive)
REMARK    1  A    between atoms: C_1  and  C_2
REMARK    2  A    between atoms: C_13  and  C_14
REMARK                            x       y       z     vdW  Elec       q    Type
REMARK                         _______ _______ _______ _____ _____    ______ ____
ROOT
ATOM      1  C   UNL     1      -0.709  10.020  17.811  0.00  0.00    +0.000 C 
ATOM      2  C   UNL     1      -0.042   9.686  19.110  0.00  0.00    +0.000 A 
ATOM      3  C   UNL     1      -0.417  10.333  20.297  0.00  0.00    +0.000 A 
ATOM      4  C   UNL     1       0.215  10.035  21.515  0.00  0.00    +0.000 A 
ATOM      5  C   UNL     1       1.235   9.087  21.572  0.00  0.00    +0.000 A 
ATOM      6  C   UNL     1       1.599   8.440  20.403  0.00  0.00    +0.000 A 
ATOM      7  C   UNL     1       0.971   8.734  19.186  0.00  0.00    +0.000 A 
ATOM      8  C   UNL     1       1.587   7.936  18.072  0.00  0.00    +0.000 C 
ATOM      9  C   UNL     1       2.321   6.820  18.849  0.00  0.00    +0.000 C 
ATOM     10  C   UNL     1       2.688   7.426  20.221  0.00  0.00    +0.000 C 
ATOM     11  C   UNL     1       1.450   5.539  18.989  0.00  0.00    +0.000 C 
ATOM     12  C   UNL     1       2.254   4.453  18.338  0.00  0.00    +0.000 A 
ATOM     13  C   UNL     1       1.924   3.107  18.200  0.00  0.00    +0.000 A 
ATOM     14  C   UNL     1       0.642   2.530  18.724  0.00  0.00    +0.000 C 
ATOM     15  C   UNL     1       2.842   2.271  17.540  0.00  0.00    +0.000 A 
ATOM     16  C   UNL     1       4.054   2.770  17.033  0.00  0.00    +0.000 A 
ATOM     17  C   UNL     1       4.375   4.118  17.178  0.00  0.00    +0.000 A 
ATOM     18  C   UNL     1       3.460   4.927  17.830  0.00  0.00    +0.000 A 
ATOM     19  C   UNL     1       3.560   6.356  18.105  0.00  0.00    +0.000 C 
ATOM     20  O   UNL     1       4.513   7.038  17.771  0.00  0.00    +0.000 OA
ENDROOT
TORSDOF 0
ENDMDL
