MODEL 1
REMARK VINA RESULT:      -6.6      0.000      0.000
REMARK  Name = 
REMARK  4 active torsions:
REMARK  status: ('A' for Active; 'I' for Inactive)
REMARK    1  A    between atoms: C_1  and  S_2
REMARK    2  A    between atoms: S_2  and  C_3
REMARK    3  A    between atoms: C_6  and  C_7
REMARK    4  A    between atoms: N_14  and  C_15
REMARK                            x       y       z     vdW  Elec       q    Type
REMARK                         _______ _______ _______ _____ _____    ______ ____
ROOT
ATOM      1  C   UNL     1       3.788   5.812  17.793  0.00  0.00    +0.000 A 
ATOM      2  N   UNL     1       2.946   5.899  18.772  0.00  0.00    +0.000 NA
ATOM      3  C   UNL     1       2.557   4.732  19.446  0.00  0.00    +0.000 A 
ATOM      4  C   UNL     1       1.708   4.815  20.565  0.00  0.00    +0.000 A 
ATOM      5  C   UNL     1       1.131   6.119  21.042  0.00  0.00    +0.000 C 
ATOM      6  C   UNL     1       1.380   3.646  21.279  0.00  0.00    +0.000 A 
ATOM      7  C   UNL     1       1.866   2.402  20.878  0.00  0.00    +0.000 A 
ATOM      8  C   UNL     1       2.681   2.313  19.755  0.00  0.00    +0.000 A 
ATOM      9  C   UNL     1       3.025   3.476  19.055  0.00  0.00    +0.000 A 
ATOM     10  C   UNL     1       3.923   3.398  17.891  0.00  0.00    +0.000 A 
ATOM     11  O   UNL     1       4.274   2.289  17.487  0.00  0.00    +0.000 OA
ATOM     12  N   UNL     1       4.318   4.613  17.334  0.00  0.00    +0.000 N 
ENDROOT
BRANCH  12  13
ATOM     13  C   UNL     1       5.249   4.539  16.262  0.00  0.00    +0.000 A 
ATOM     14  C   UNL     1       4.751   4.317  14.971  0.00  0.00    +0.000 A 
ATOM     15  C   UNL     1       5.615   4.315  13.877  0.00  0.00    +0.000 A 
ATOM     16  C   UNL     1       6.978   4.545  14.064  0.00  0.00    +0.000 A 
ATOM     17  C   UNL     1       7.482   4.768  15.347  0.00  0.00    +0.000 A 
ATOM     18  C   UNL     1       6.622   4.767  16.448  0.00  0.00    +0.000 A 
ATOM     19 BR   UNL     1       7.365   5.100  18.164  0.00  0.00    +0.000 Br
ENDBRANCH  12  13
BRANCH   1  21
ATOM     20  C   UNL     1       3.039   8.439  17.587  0.00  0.00    +0.000 C 
ATOM     21  S   UNL     1       4.336   7.308  17.045  0.00  0.00    +0.000 S 
ENDBRANCH   1  21
TORSDOF 2
ENDMDL
MODEL 2
REMARK VINA RESULT:      -6.6      4.655      7.523
REMARK  Name = 
REMARK  4 active torsions:
REMARK  status: ('A' for Active; 'I' for Inactive)
REMARK    1  A    between atoms: C_1  and  S_2
REMARK    2  A    between atoms: S_2  and  C_3
REMARK    3  A    between atoms: C_6  and  C_7
REMARK    4  A    between atoms: N_14  and  C_15
REMARK                            x       y       z     vdW  Elec       q    Type
REMARK                         _______ _______ _______ _____ _____    ______ ____
ROOT
ATOM      1  C   UNL     1       0.773   9.082  20.392  0.00  0.00    +0.000 A 
ATOM      2  N   UNL     1       1.172   7.861  20.553  0.00  0.00    +0.000 NA
ATOM      3  C   UNL     1       2.044   7.297  19.611  0.00  0.00    +0.000 A 
ATOM      4  C   UNL     1       2.553   6.001  19.811  0.00  0.00    +0.000 A 
ATOM      5  C   UNL     1       2.144   5.147  20.979  0.00  0.00    +0.000 C 
ATOM      6  C   UNL     1       3.485   5.470  18.898  0.00  0.00    +0.000 A 
ATOM      7  C   UNL     1       3.892   6.201  17.783  0.00  0.00    +0.000 A 
ATOM      8  C   UNL     1       3.368   7.471  17.567  0.00  0.00    +0.000 A 
ATOM      9  C   UNL     1       2.457   8.010  18.484  0.00  0.00    +0.000 A 
ATOM     10  C   UNL     1       1.930   9.370  18.287  0.00  0.00    +0.000 A 
ATOM     11  O   UNL     1       2.221   9.974  17.255  0.00  0.00    +0.000 OA
ATOM     12  N   UNL     1       1.133   9.877  19.312  0.00  0.00    +0.000 N 
ENDROOT
BRANCH  12  13
ATOM     13  C   UNL     1       0.693  11.219  19.158  0.00  0.00    +0.000 A 
ATOM     14  C   UNL     1       1.538  12.246  19.603  0.00  0.00    +0.000 A 
ATOM     15  C   UNL     1       1.186  13.580  19.403  0.00  0.00    +0.000 A 
ATOM     16  C   UNL     1      -0.004  13.897  18.750  0.00  0.00    +0.000 A 
ATOM     17  C   UNL     1      -0.852  12.881  18.303  0.00  0.00    +0.000 A 
ATOM     18  C   UNL     1      -0.507  11.542  18.504  0.00  0.00    +0.000 A 
ATOM     19 BR   UNL     1      -1.690  10.207  17.851  0.00  0.00    +0.000 Br
ENDBRANCH  12  13
BRANCH   1  21
ATOM     20  C   UNL     1       0.711   9.332  23.120  0.00  0.00    +0.000 C 
ATOM     21  S   UNL     1      -0.232   9.790  21.652  0.00  0.00    +0.000 S 
ENDBRANCH   1  21
TORSDOF 2
ENDMDL
MODEL 3
REMARK VINA RESULT:      -6.5      2.079      3.748
REMARK  Name = 
REMARK  4 active torsions:
REMARK  status: ('A' for Active; 'I' for Inactive)
REMARK    1  A    between atoms: C_1  and  S_2
REMARK    2  A    between atoms: S_2  and  C_3
REMARK    3  A    between atoms: C_6  and  C_7
REMARK    4  A    between atoms: N_14  and  C_15
REMARK                            x       y       z     vdW  Elec       q    Type
REMARK                         _______ _______ _______ _____ _____    ______ ____
ROOT
ATOM      1  C   UNL     1       3.796   5.491  18.970  0.00  0.00    +0.000 A 
ATOM      2  N   UNL     1       2.988   6.128  19.756  0.00  0.00    +0.000 NA
ATOM      3  C   UNL     1       2.459   7.358  19.341  0.00  0.00    +0.000 A 
ATOM      4  C   UNL     1       1.515   8.026  20.143  0.00  0.00    +0.000 A 
ATOM      5  C   UNL     1       1.089   7.502  21.488  0.00  0.00    +0.000 C 
ATOM      6  C   UNL     1       0.935   9.225  19.686  0.00  0.00    +0.000 A 
ATOM      7  C   UNL     1       1.301   9.774  18.458  0.00  0.00    +0.000 A 
ATOM      8  C   UNL     1       2.254   9.133  17.676  0.00  0.00    +0.000 A 
ATOM      9  C   UNL     1       2.818   7.930  18.119  0.00  0.00    +0.000 A 
ATOM     10  C   UNL     1       3.796   7.220  17.278  0.00  0.00    +0.000 A 
ATOM     11  O   UNL     1       4.183   7.755  16.240  0.00  0.00    +0.000 OA
ATOM     12  N   UNL     1       4.208   5.969  17.733  0.00  0.00    +0.000 N 
ENDROOT
BRANCH  12  13
ATOM     13  C   UNL     1       5.089   5.250  16.881  0.00  0.00    +0.000 A 
ATOM     14  C   UNL     1       4.527   4.438  15.885  0.00  0.00    +0.000 A 
ATOM     15  C   UNL     1       5.349   3.775  14.975  0.00  0.00    +0.000 A 
ATOM     16  C   UNL     1       6.733   3.927  15.045  0.00  0.00    +0.000 A 
ATOM     17  C   UNL     1       7.301   4.735  16.033  0.00  0.00    +0.000 A 
ATOM     18  C   UNL     1       6.483   5.398  16.951  0.00  0.00    +0.000 A 
ATOM     19 BR   UNL     1       7.315   6.501  18.255  0.00  0.00    +0.000 Br
ENDBRANCH  12  13
BRANCH   1  21
ATOM     20  C   UNL     1       2.899   2.905  19.087  0.00  0.00    +0.000 C 
ATOM     21  S   UNL     1       4.351   3.900  19.479  0.00  0.00    +0.000 S 
ENDBRANCH   1  21
TORSDOF 2
ENDMDL
MODEL 4
REMARK VINA RESULT:      -6.4      2.995      4.935
REMARK  Name = 
REMARK  4 active torsions:
REMARK  status: ('A' for Active; 'I' for Inactive)
REMARK    1  A    between atoms: C_1  and  S_2
REMARK    2  A    between atoms: S_2  and  C_3
REMARK    3  A    between atoms: C_6  and  C_7
REMARK    4  A    between atoms: N_14  and  C_15
REMARK                            x       y       z     vdW  Elec       q    Type
REMARK                         _______ _______ _______ _____ _____    ______ ____
ROOT
ATOM      1  C   UNL     1       2.369   6.353  20.098  0.00  0.00    +0.000 A 
ATOM      2  N   UNL     1       1.583   7.141  20.759  0.00  0.00    +0.000 NA
ATOM      3  C   UNL     1       1.170   8.346  20.171  0.00  0.00    +0.000 A 
ATOM      4  C   UNL     1       0.250   9.176  20.838  0.00  0.00    +0.000 A 
ATOM      5  C   UNL     1      -0.270   8.859  22.213  0.00  0.00    +0.000 C 
ATOM      6  C   UNL     1      -0.214  10.348  20.209  0.00  0.00    +0.000 A 
ATOM      7  C   UNL     1       0.243  10.710  18.943  0.00  0.00    +0.000 A 
ATOM      8  C   UNL     1       1.173   9.907  18.293  0.00  0.00    +0.000 A 
ATOM      9  C   UNL     1       1.622   8.731  18.907  0.00  0.00    +0.000 A 
ATOM     10  C   UNL     1       2.574   7.851  18.210  0.00  0.00    +0.000 A 
ATOM     11  O   UNL     1       3.044   8.222  17.134  0.00  0.00    +0.000 OA
ATOM     12  N   UNL     1       2.867   6.640  18.834  0.00  0.00    +0.000 N 
ENDROOT
BRANCH  12  13
ATOM     13  C   UNL     1       3.722   5.757  18.121  0.00  0.00    +0.000 A 
ATOM     14  C   UNL     1       5.103   5.990  18.173  0.00  0.00    +0.000 A 
ATOM     15  C   UNL     1       5.988   5.107  17.556  0.00  0.00    +0.000 A 
ATOM     16  C   UNL     1       5.500   3.981  16.893  0.00  0.00    +0.000 A 
ATOM     17  C   UNL     1       4.126   3.741  16.837  0.00  0.00    +0.000 A 
ATOM     18  C   UNL     1       3.234   4.624  17.449  0.00  0.00    +0.000 A 
ATOM     19 BR   UNL     1       1.378   4.228  17.358  0.00  0.00    +0.000 Br
ENDBRANCH  12  13
BRANCH   1  21
ATOM     20  C   UNL     1       1.166   3.989  20.784  0.00  0.00    +0.000 C 
ATOM     21  S   UNL     1       2.776   4.802  20.825  0.00  0.00    +0.000 S 
ENDBRANCH   1  21
TORSDOF 2
ENDMDL
MODEL 5
REMARK VINA RESULT:      -6.2      2.091      6.249
REMARK  Name = 
REMARK  4 active torsions:
REMARK  status: ('A' for Active; 'I' for Inactive)
REMARK    1  A    between atoms: C_1  and  S_2
REMARK    2  A    between atoms: S_2  and  C_3
REMARK    3  A    between atoms: C_6  and  C_7
REMARK    4  A    between atoms: N_14  and  C_15
REMARK                            x       y       z     vdW  Elec       q    Type
REMARK                         _______ _______ _______ _____ _____    ______ ____
ROOT
ATOM      1  C   UNL     1       6.730   5.470  16.744  0.00  0.00    +0.000 A 
ATOM      2  N   UNL     1       7.461   5.539  15.679  0.00  0.00    +0.000 NA
ATOM      3  C   UNL     1       7.010   4.931  14.499  0.00  0.00    +0.000 A 
ATOM      4  C   UNL     1       7.750   5.066  13.310  0.00  0.00    +0.000 A 
ATOM      5  C   UNL     1       9.066   5.792  13.259  0.00  0.00    +0.000 C 
ATOM      6  C   UNL     1       7.253   4.513  12.113  0.00  0.00    +0.000 A 
ATOM      7  C   UNL     1       6.049   3.811  12.095  0.00  0.00    +0.000 A 
ATOM      8  C   UNL     1       5.330   3.651  13.274  0.00  0.00    +0.000 A 
ATOM      9  C   UNL     1       5.811   4.217  14.461  0.00  0.00    +0.000 A 
ATOM     10  C   UNL     1       5.036   4.090  15.706  0.00  0.00    +0.000 A 
ATOM     11  O   UNL     1       4.022   3.392  15.703  0.00  0.00    +0.000 OA
ATOM     12  N   UNL     1       5.519   4.791  16.808  0.00  0.00    +0.000 N 
ENDROOT
BRANCH  12  13
ATOM     13  C   UNL     1       4.726   4.734  17.986  0.00  0.00    +0.000 A 
ATOM     14  C   UNL     1       4.869   3.619  18.824  0.00  0.00    +0.000 A 
ATOM     15  C   UNL     1       4.173   3.554  20.030  0.00  0.00    +0.000 A 
ATOM     16  C   UNL     1       3.338   4.604  20.411  0.00  0.00    +0.000 A 
ATOM     17  C   UNL     1       3.191   5.719  19.583  0.00  0.00    +0.000 A 
ATOM     18  C   UNL     1       3.883   5.788  18.371  0.00  0.00    +0.000 A 
ATOM     19 BR   UNL     1       3.658   7.342  17.301  0.00  0.00    +0.000 Br
ENDBRANCH  12  13
BRANCH   1  21
ATOM     20  C   UNL     1       7.644   7.952  17.457  0.00  0.00    +0.000 C 
ATOM     21  S   UNL     1       7.277   6.339  18.174  0.00  0.00    +0.000 S 
ENDBRANCH   1  21
TORSDOF 2
ENDMDL
MODEL 6
REMARK VINA RESULT:      -5.9      2.026      6.146
REMARK  Name = 
REMARK  4 active torsions:
REMARK  status: ('A' for Active; 'I' for Inactive)
REMARK    1  A    between atoms: C_1  and  S_2
REMARK    2  A    between atoms: S_2  and  C_3
REMARK    3  A    between atoms: C_6  and  C_7
REMARK    4  A    between atoms: N_14  and  C_15
REMARK                            x       y       z     vdW  Elec       q    Type
REMARK                         _______ _______ _______ _____ _____    ______ ____
ROOT
ATOM      1  C   UNL     1       6.420   6.210  16.483  0.00  0.00    +0.000 A 
ATOM      2  N   UNL     1       7.202   5.970  15.481  0.00  0.00    +0.000 NA
ATOM      3  C   UNL     1       6.780   5.083  14.481  0.00  0.00    +0.000 A 
ATOM      4  C   UNL     1       7.580   4.873  13.342  0.00  0.00    +0.000 A 
ATOM      5  C   UNL     1       8.928   5.518  13.176  0.00  0.00    +0.000 C 
ATOM      6  C   UNL     1       7.115   4.036  12.309  0.00  0.00    +0.000 A 
ATOM      7  C   UNL     1       5.883   3.392  12.408  0.00  0.00    +0.000 A 
ATOM      8  C   UNL     1       5.103   3.575  13.545  0.00  0.00    +0.000 A 
ATOM      9  C   UNL     1       5.553   4.422  14.565  0.00  0.00    +0.000 A 
ATOM     10  C   UNL     1       4.716   4.656  15.753  0.00  0.00    +0.000 A 
ATOM     11  O   UNL     1       3.672   4.015  15.878  0.00  0.00    +0.000 OA
ATOM     12  N   UNL     1       5.178   5.611  16.655  0.00  0.00    +0.000 N 
ENDROOT
BRANCH  12  13
ATOM     13  C   UNL     1       4.329   5.895  17.759  0.00  0.00    +0.000 A 
ATOM     14  C   UNL     1       3.485   7.012  17.672  0.00  0.00    +0.000 A 
ATOM     15  C   UNL     1       2.578   7.286  18.694  0.00  0.00    +0.000 A 
ATOM     16  C   UNL     1       2.500   6.444  19.803  0.00  0.00    +0.000 A 
ATOM     17  C   UNL     1       3.336   5.329  19.897  0.00  0.00    +0.000 A 
ATOM     18  C   UNL     1       4.251   5.051  18.878  0.00  0.00    +0.000 A 
ATOM     19 BR   UNL     1       5.343   3.507  19.055  0.00  0.00    +0.000 Br
ENDBRANCH  12  13
BRANCH   1  21
ATOM     20  C   UNL     1       7.893   6.376  18.788  0.00  0.00    +0.000 C 
ATOM     21  S   UNL     1       6.938   7.412  17.661  0.00  0.00    +0.000 S 
ENDBRANCH   1  21
TORSDOF 2
ENDMDL
MODEL 7
REMARK VINA RESULT:      -5.9      2.649      4.707
REMARK  Name = 
REMARK  4 active torsions:
REMARK  status: ('A' for Active; 'I' for Inactive)
REMARK    1  A    between atoms: C_1  and  S_2
REMARK    2  A    between atoms: S_2  and  C_3
REMARK    3  A    between atoms: C_6  and  C_7
REMARK    4  A    between atoms: N_14  and  C_15
REMARK                            x       y       z     vdW  Elec       q    Type
REMARK                         _______ _______ _______ _____ _____    ______ ____
ROOT
ATOM      1  C   UNL     1       2.174   6.034  20.239  0.00  0.00    +0.000 A 
ATOM      2  N   UNL     1       1.658   7.033  20.880  0.00  0.00    +0.000 NA
ATOM      3  C   UNL     1       1.509   8.264  20.223  0.00  0.00    +0.000 A 
ATOM      4  C   UNL     1       0.875   9.337  20.875  0.00  0.00    +0.000 A 
ATOM      5  C   UNL     1       0.399   9.246  22.299  0.00  0.00    +0.000 C 
ATOM      6  C   UNL     1       0.665  10.546  20.184  0.00  0.00    +0.000 A 
ATOM      7  C   UNL     1       1.099  10.703  18.869  0.00  0.00    +0.000 A 
ATOM      8  C   UNL     1       1.752   9.654  18.232  0.00  0.00    +0.000 A 
ATOM      9  C   UNL     1       1.945   8.444  18.909  0.00  0.00    +0.000 A 
ATOM     10  C   UNL     1       2.596   7.313  18.230  0.00  0.00    +0.000 A 
ATOM     11  O   UNL     1       3.059   7.487  17.102  0.00  0.00    +0.000 OA
ATOM     12  N   UNL     1       2.630   6.109  18.929  0.00  0.00    +0.000 N 
ENDROOT
BRANCH  12  13
ATOM     13  C   UNL     1       3.186   4.997  18.240  0.00  0.00    +0.000 A 
ATOM     14  C   UNL     1       2.319   4.177  17.504  0.00  0.00    +0.000 A 
ATOM     15  C   UNL     1       2.826   3.122  16.747  0.00  0.00    +0.000 A 
ATOM     16  C   UNL     1       4.200   2.886  16.711  0.00  0.00    +0.000 A 
ATOM     17  C   UNL     1       5.070   3.699  17.440  0.00  0.00    +0.000 A 
ATOM     18  C   UNL     1       4.568   4.755  18.204  0.00  0.00    +0.000 A 
ATOM     19 BR   UNL     1       5.806   5.838  19.154  0.00  0.00    +0.000 Br
ENDBRANCH  12  13
BRANCH   1  21
ATOM     20  C   UNL     1       0.727   3.717  20.448  0.00  0.00    +0.000 C 
ATOM     21  S   UNL     1       2.243   4.479  21.061  0.00  0.00    +0.000 S 
ENDBRANCH   1  21
TORSDOF 2
ENDMDL
MODEL 8
REMARK VINA RESULT:      -5.9      1.809      3.068
REMARK  Name = 
REMARK  4 active torsions:
REMARK  status: ('A' for Active; 'I' for Inactive)
REMARK    1  A    between atoms: C_1  and  S_2
REMARK    2  A    between atoms: S_2  and  C_3
REMARK    3  A    between atoms: C_6  and  C_7
REMARK    4  A    between atoms: N_14  and  C_15
REMARK                            x       y       z     vdW  Elec       q    Type
REMARK                         _______ _______ _______ _____ _____    ______ ____
ROOT
ATOM      1  C   UNL     1       3.924   3.648  18.013  0.00  0.00    +0.000 A 
ATOM      2  N   UNL     1       3.118   3.729  19.022  0.00  0.00    +0.000 NA
ATOM      3  C   UNL     1       2.680   4.991  19.449  0.00  0.00    +0.000 A 
ATOM      4  C   UNL     1       1.739   5.095  20.489  0.00  0.00    +0.000 A 
ATOM      5  C   UNL     1       1.220   3.892  21.229  0.00  0.00    +0.000 C 
ATOM      6  C   UNL     1       1.250   6.362  20.863  0.00  0.00    +0.000 A 
ATOM      7  C   UNL     1       1.704   7.519  20.232  0.00  0.00    +0.000 A 
ATOM      8  C   UNL     1       2.655   7.422  19.222  0.00  0.00    +0.000 A 
ATOM      9  C   UNL     1       3.128   6.162  18.835  0.00  0.00    +0.000 A 
ATOM     10  C   UNL     1       4.103   6.045  17.739  0.00  0.00    +0.000 A 
ATOM     11  O   UNL     1       4.569   7.074  17.248  0.00  0.00    +0.000 OA
ATOM     12  N   UNL     1       4.421   4.751  17.331  0.00  0.00    +0.000 N 
ENDROOT
BRANCH  12  13
ATOM     13  C   UNL     1       5.299   4.641  16.219  0.00  0.00    +0.000 A 
ATOM     14  C   UNL     1       4.735   4.450  14.949  0.00  0.00    +0.000 A 
ATOM     15  C   UNL     1       5.549   4.416  13.818  0.00  0.00    +0.000 A 
ATOM     16  C   UNL     1       6.927   4.582  13.946  0.00  0.00    +0.000 A 
ATOM     17  C   UNL     1       7.498   4.774  15.206  0.00  0.00    +0.000 A 
ATOM     18  C   UNL     1       6.688   4.805  16.344  0.00  0.00    +0.000 A 
ATOM     19 BR   UNL     1       7.521   5.093  18.026  0.00  0.00    +0.000 Br
ENDBRANCH  12  13
BRANCH   1  21
ATOM     20  C   UNL     1       3.757   1.030  18.803  0.00  0.00    +0.000 C 
ATOM     21  S   UNL     1       4.364   2.043  17.440  0.00  0.00    +0.000 S 
ENDBRANCH   1  21
TORSDOF 2
ENDMDL
MODEL 9
REMARK VINA RESULT:      -5.8      7.874     10.848
REMARK  Name = 
REMARK  4 active torsions:
REMARK  status: ('A' for Active; 'I' for Inactive)
REMARK    1  A    between atoms: C_1  and  S_2
REMARK    2  A    between atoms: S_2  and  C_3
REMARK    3  A    between atoms: C_6  and  C_7
REMARK    4  A    between atoms: N_14  and  C_15
REMARK                            x       y       z     vdW  Elec       q    Type
REMARK                         _______ _______ _______ _____ _____    ______ ____
ROOT
ATOM      1  C   UNL     1      -0.832  13.313  19.854  0.00  0.00    +0.000 A 
ATOM      2  N   UNL     1      -0.744  14.478  19.297  0.00  0.00    +0.000 NA
ATOM      3  C   UNL     1       0.475  15.170  19.347  0.00  0.00    +0.000 A 
ATOM      4  C   UNL     1       0.614  16.399  18.677  0.00  0.00    +0.000 A 
ATOM      5  C   UNL     1      -0.529  17.055  17.951  0.00  0.00    +0.000 C 
ATOM      6  C   UNL     1       1.862  17.052  18.672  0.00  0.00    +0.000 A 
ATOM      7  C   UNL     1       2.957  16.509  19.342  0.00  0.00    +0.000 A 
ATOM      8  C   UNL     1       2.815  15.309  20.029  0.00  0.00    +0.000 A 
ATOM      9  C   UNL     1       1.581  14.647  20.019  0.00  0.00    +0.000 A 
ATOM     10  C   UNL     1       1.431  13.354  20.707  0.00  0.00    +0.000 A 
ATOM     11  O   UNL     1       2.374  12.925  21.373  0.00  0.00    +0.000 OA
ATOM     12  N   UNL     1       0.211  12.703  20.538  0.00  0.00    +0.000 N 
ENDROOT
BRANCH  12  13
ATOM     13  C   UNL     1       0.098  11.418  21.135  0.00  0.00    +0.000 A 
ATOM     14  C   UNL     1      -0.479  11.331  22.410  0.00  0.00    +0.000 A 
ATOM     15  C   UNL     1      -0.685  10.087  23.003  0.00  0.00    +0.000 A 
ATOM     16  C   UNL     1      -0.326   8.923  22.325  0.00  0.00    +0.000 A 
ATOM     17  C   UNL     1       0.248   9.000  21.054  0.00  0.00    +0.000 A 
ATOM     18  C   UNL     1       0.460  10.244  20.455  0.00  0.00    +0.000 A 
ATOM     19 BR   UNL     1       1.223  10.280  18.716  0.00  0.00    +0.000 Br
ENDBRANCH  12  13
BRANCH   1  21
ATOM     20  C   UNL     1      -2.138  11.759  18.013  0.00  0.00    +0.000 C 
ATOM     21  S   UNL     1      -2.344  12.429  19.675  0.00  0.00    +0.000 S 
ENDBRANCH   1  21
TORSDOF 2
ENDMDL
