MODEL 1
REMARK VINA RESULT:      -6.1      0.000      0.000
REMARK  Name = 
REMARK  6 active torsions:
REMARK  status: ('A' for Active; 'I' for Inactive)
REMARK    1  A    between atoms: C_1  and  C_2
REMARK    2  A    between atoms: C_2  and  C_3
REMARK    3  A    between atoms: C_2  and  C_4
REMARK    4  A    between atoms: C_2  and  N_7
REMARK    5  A    between atoms: N_5  and  O_6
REMARK    6  A    between atoms: C_9  and  C_10
REMARK                            x       y       z     vdW  Elec       q    Type
REMARK                         _______ _______ _______ _____ _____    ______ ____
ROOT
ATOM      1  N   UNL     1       4.945   4.652  17.686  0.00  0.00    +0.000 N 
ATOM      2  O   UNL     1       4.596   4.053  16.609  0.00  0.00    +0.000 OA
ATOM      3  C   UNL     1       4.181   4.552  18.756  0.00  0.00    +0.000 C 
ENDROOT
BRANCH   3   4
ATOM      4  C   UNL     1       2.959   3.806  18.890  0.00  0.00    +0.000 A 
ATOM      5  C   UNL     1       1.626   4.161  18.806  0.00  0.00    +0.000 A 
ATOM      6  C   UNL     1       0.873   2.984  19.017  0.00  0.00    +0.000 A 
ATOM      7  C   UNL     1       1.788   1.980  19.219  0.00  0.00    +0.000 A 
ATOM      8  O   UNL     1       3.055   2.467  19.141  0.00  0.00    +0.000 OA
ENDBRANCH   3   4
BRANCH   1  10
ATOM      9  C   UNL     1       5.974   6.801  17.046  0.00  0.00    +0.000 C 
ATOM     10  C   UNL     1       6.231   5.430  17.669  0.00  0.00    +0.000 C 
ATOM     11  C   UNL     1       7.262   4.663  16.826  0.00  0.00    +0.000 C 
BRANCH  10  12
ATOM     12  C   UNL     1       6.724   5.491  19.099  0.00  0.00    +0.000 C 
ATOM     13  N   UNL     1       7.962   5.258  19.398  0.00  0.00    +0.000 NA
BRANCH  13  14
ATOM     14  O   UNL     1       8.133   5.421  20.776  0.00  0.00    +0.000 OA
ATOM     15  H   UNL     1       9.087   5.246  20.894  0.00  0.00    +0.000 HD
ENDBRANCH  13  14
ENDBRANCH  10  12
ENDBRANCH   1  10
TORSDOF 4
ENDMDL
MODEL 2
REMARK VINA RESULT:      -6.1      2.729      5.236
REMARK  Name = 
REMARK  6 active torsions:
REMARK  status: ('A' for Active; 'I' for Inactive)
REMARK    1  A    between atoms: C_1  and  C_2
REMARK    2  A    between atoms: C_2  and  C_3
REMARK    3  A    between atoms: C_2  and  C_4
REMARK    4  A    between atoms: C_2  and  N_7
REMARK    5  A    between atoms: N_5  and  O_6
REMARK    6  A    between atoms: C_9  and  C_10
REMARK                            x       y       z     vdW  Elec       q    Type
REMARK                         _______ _______ _______ _____ _____    ______ ____
ROOT
ATOM      1  N   UNL     1       5.508   5.513  16.240  0.00  0.00    +0.000 N 
ATOM      2  O   UNL     1       5.186   6.566  15.584  0.00  0.00    +0.000 OA
ATOM      3  C   UNL     1       6.208   4.570  15.641  0.00  0.00    +0.000 C 
ENDROOT
BRANCH   3   4
ATOM      4  C   UNL     1       6.701   4.572  14.290  0.00  0.00    +0.000 A 
ATOM      5  C   UNL     1       6.352   3.859  13.160  0.00  0.00    +0.000 A 
ATOM      6  C   UNL     1       7.191   4.307  12.115  0.00  0.00    +0.000 A 
ATOM      7  C   UNL     1       8.004   5.266  12.668  0.00  0.00    +0.000 A 
ATOM      8  O   UNL     1       7.714   5.436  13.985  0.00  0.00    +0.000 OA
ENDBRANCH   3   4
BRANCH   1  10
ATOM      9  C   UNL     1       4.470   4.047  17.930  0.00  0.00    +0.000 C 
ATOM     10  C   UNL     1       5.076   5.426  17.677  0.00  0.00    +0.000 C 
ATOM     11  C   UNL     1       4.022   6.512  17.944  0.00  0.00    +0.000 C 
BRANCH  10  12
ATOM     12  C   UNL     1       6.299   5.720  18.519  0.00  0.00    +0.000 C 
ATOM     13  N   UNL     1       6.527   5.087  19.625  0.00  0.00    +0.000 NA
BRANCH  13  14
ATOM     14  O   UNL     1       7.736   5.538  20.162  0.00  0.00    +0.000 OA
ATOM     15  H   UNL     1       7.835   4.982  20.960  0.00  0.00    +0.000 HD
ENDBRANCH  13  14
ENDBRANCH  10  12
ENDBRANCH   1  10
TORSDOF 4
ENDMDL
MODEL 3
REMARK VINA RESULT:      -6.0      1.069      1.108
REMARK  Name = 
REMARK  6 active torsions:
REMARK  status: ('A' for Active; 'I' for Inactive)
REMARK    1  A    between atoms: C_1  and  C_2
REMARK    2  A    between atoms: C_2  and  C_3
REMARK    3  A    between atoms: C_2  and  C_4
REMARK    4  A    between atoms: C_2  and  N_7
REMARK    5  A    between atoms: N_5  and  O_6
REMARK    6  A    between atoms: C_9  and  C_10
REMARK                            x       y       z     vdW  Elec       q    Type
REMARK                         _______ _______ _______ _____ _____    ______ ____
ROOT
ATOM      1  N   UNL     1       4.978   4.331  18.338  0.00  0.00    +0.000 N 
ATOM      2  O   UNL     1       5.275   3.322  19.069  0.00  0.00    +0.000 OA
ATOM      3  C   UNL     1       3.712   4.665  18.183  0.00  0.00    +0.000 C 
ENDROOT
BRANCH   3   4
ATOM      4  C   UNL     1       2.563   4.028  18.769  0.00  0.00    +0.000 A 
ATOM      5  C   UNL     1       1.841   4.268  19.922  0.00  0.00    +0.000 A 
ATOM      6  C   UNL     1       0.801   3.313  19.963  0.00  0.00    +0.000 A 
ATOM      7  C   UNL     1       0.948   2.545  18.833  0.00  0.00    +0.000 A 
ATOM      8  O   UNL     1       2.011   2.972  18.102  0.00  0.00    +0.000 OA
ENDBRANCH   3   4
BRANCH   1  10
ATOM      9  C   UNL     1       5.628   6.503  17.365  0.00  0.00    +0.000 C 
ATOM     10  C   UNL     1       6.109   5.095  17.708  0.00  0.00    +0.000 C 
ATOM     11  C   UNL     1       6.542   4.368  16.424  0.00  0.00    +0.000 C 
BRANCH  10  12
ATOM     12  C   UNL     1       7.259   5.064  18.692  0.00  0.00    +0.000 C 
ATOM     13  N   UNL     1       7.143   5.557  19.884  0.00  0.00    +0.000 NA
BRANCH  13  14
ATOM     14  O   UNL     1       8.341   5.355  20.575  0.00  0.00    +0.000 OA
ATOM     15  H   UNL     1       8.066   5.442  21.509  0.00  0.00    +0.000 HD
ENDBRANCH  13  14
ENDBRANCH  10  12
ENDBRANCH   1  10
TORSDOF 4
ENDMDL
MODEL 4
REMARK VINA RESULT:      -5.9      1.935      5.270
REMARK  Name = 
REMARK  6 active torsions:
REMARK  status: ('A' for Active; 'I' for Inactive)
REMARK    1  A    between atoms: C_1  and  C_2
REMARK    2  A    between atoms: C_2  and  C_3
REMARK    3  A    between atoms: C_2  and  C_4
REMARK    4  A    between atoms: C_2  and  N_7
REMARK    5  A    between atoms: N_5  and  O_6
REMARK    6  A    between atoms: C_9  and  C_10
REMARK                            x       y       z     vdW  Elec       q    Type
REMARK                         _______ _______ _______ _____ _____    ______ ____
ROOT
ATOM      1  N   UNL     1       3.995   3.877  18.329  0.00  0.00    +0.000 N 
ATOM      2  O   UNL     1       4.604   3.428  17.295  0.00  0.00    +0.000 OA
ATOM      3  C   UNL     1       4.576   4.800  19.069  0.00  0.00    +0.000 C 
ENDROOT
BRANCH   3   4
ATOM      4  C   UNL     1       5.857   5.417  18.851  0.00  0.00    +0.000 A 
ATOM      5  C   UNL     1       6.338   6.264  17.871  0.00  0.00    +0.000 A 
ATOM      6  C   UNL     1       7.684   6.547  18.197  0.00  0.00    +0.000 A 
ATOM      7  C   UNL     1       7.946   5.856  19.355  0.00  0.00    +0.000 A 
ATOM      8  O   UNL     1       6.845   5.171  19.761  0.00  0.00    +0.000 OA
ENDBRANCH   3   4
BRANCH   1  10
ATOM      9  C   UNL     1       2.481   1.965  17.956  0.00  0.00    +0.000 C 
ATOM     10  C   UNL     1       2.628   3.328  18.629  0.00  0.00    +0.000 C 
ATOM     11  C   UNL     1       1.573   4.297  18.072  0.00  0.00    +0.000 C 
BRANCH  10  12
ATOM     12  C   UNL     1       2.496   3.284  20.136  0.00  0.00    +0.000 C 
ATOM     13  N   UNL     1       1.586   2.568  20.715  0.00  0.00    +0.000 NA
BRANCH  13  14
ATOM     14  O   UNL     1       1.727   2.692  22.100  0.00  0.00    +0.000 OA
ATOM     15  H   UNL     1       1.191   3.485  22.299  0.00  0.00    +0.000 HD
ENDBRANCH  13  14
ENDBRANCH  10  12
ENDBRANCH   1  10
TORSDOF 4
ENDMDL
MODEL 5
REMARK VINA RESULT:      -5.9      1.074      1.074
REMARK  Name = 
REMARK  6 active torsions:
REMARK  status: ('A' for Active; 'I' for Inactive)
REMARK    1  A    between atoms: C_1  and  C_2
REMARK    2  A    between atoms: C_2  and  C_3
REMARK    3  A    between atoms: C_2  and  C_4
REMARK    4  A    between atoms: C_2  and  N_7
REMARK    5  A    between atoms: N_5  and  O_6
REMARK    6  A    between atoms: C_9  and  C_10
REMARK                            x       y       z     vdW  Elec       q    Type
REMARK                         _______ _______ _______ _____ _____    ______ ____
ROOT
ATOM      1  N   UNL     1       4.781   5.113  18.205  0.00  0.00    +0.000 N 
ATOM      2  O   UNL     1       4.132   5.947  18.930  0.00  0.00    +0.000 OA
ATOM      3  C   UNL     1       4.291   3.904  18.018  0.00  0.00    +0.000 C 
ENDROOT
BRANCH   3   4
ATOM      4  C   UNL     1       3.054   3.374  18.526  0.00  0.00    +0.000 A 
ATOM      5  C   UNL     1       1.793   3.241  17.979  0.00  0.00    +0.000 A 
ATOM      6  C   UNL     1       0.980   2.630  18.961  0.00  0.00    +0.000 A 
ATOM      7  C   UNL     1       1.793   2.428  20.051  0.00  0.00    +0.000 A 
ATOM      8  O   UNL     1       3.052   2.871  19.796  0.00  0.00    +0.000 OA
ENDBRANCH   3   4
BRANCH   1  10
ATOM      9  C   UNL     1       5.795   6.800  16.717  0.00  0.00    +0.000 C 
ATOM     10  C   UNL     1       6.071   5.578  17.590  0.00  0.00    +0.000 C 
ATOM     11  C   UNL     1       6.644   4.443  16.726  0.00  0.00    +0.000 C 
BRANCH  10  12
ATOM     12  C   UNL     1       7.028   5.845  18.732  0.00  0.00    +0.000 C 
ATOM     13  N   UNL     1       7.076   5.072  19.770  0.00  0.00    +0.000 NA
BRANCH  13  14
ATOM     14  O   UNL     1       8.069   5.539  20.636  0.00  0.00    +0.000 OA
ATOM     15  H   UNL     1       8.842   5.629  20.045  0.00  0.00    +0.000 HD
ENDBRANCH  13  14
ENDBRANCH  10  12
ENDBRANCH   1  10
TORSDOF 4
ENDMDL
MODEL 6
REMARK VINA RESULT:      -5.9      1.814      3.085
REMARK  Name = 
REMARK  6 active torsions:
REMARK  status: ('A' for Active; 'I' for Inactive)
REMARK    1  A    between atoms: C_1  and  C_2
REMARK    2  A    between atoms: C_2  and  C_3
REMARK    3  A    between atoms: C_2  and  C_4
REMARK    4  A    between atoms: C_2  and  N_7
REMARK    5  A    between atoms: N_5  and  O_6
REMARK    6  A    between atoms: C_9  and  C_10
REMARK                            x       y       z     vdW  Elec       q    Type
REMARK                         _______ _______ _______ _____ _____    ______ ____
ROOT
ATOM      1  N   UNL     1       5.048   4.259  17.592  0.00  0.00    +0.000 N 
ATOM      2  O   UNL     1       5.177   4.441  18.853  0.00  0.00    +0.000 OA
ATOM      3  C   UNL     1       3.943   3.708  17.130  0.00  0.00    +0.000 C 
ENDROOT
BRANCH   3   4
ATOM      4  C   UNL     1       2.797   3.282  17.887  0.00  0.00    +0.000 A 
ATOM      5  C   UNL     1       1.544   3.829  18.084  0.00  0.00    +0.000 A 
ATOM      6  C   UNL     1       0.834   2.942  18.925  0.00  0.00    +0.000 A 
ATOM      7  C   UNL     1       1.696   1.906  19.194  0.00  0.00    +0.000 A 
ATOM      8  O   UNL     1       2.886   2.101  18.567  0.00  0.00    +0.000 OA
ENDBRANCH   3   4
BRANCH   1  10
ATOM      9  C   UNL     1       7.487   4.610  17.475  0.00  0.00    +0.000 C 
ATOM     10  C   UNL     1       6.174   4.705  16.701  0.00  0.00    +0.000 C 
ATOM     11  C   UNL     1       5.925   6.162  16.282  0.00  0.00    +0.000 C 
BRANCH  10  12
ATOM     12  C   UNL     1       6.127   3.831  15.466  0.00  0.00    +0.000 C 
ATOM     13  N   UNL     1       6.417   4.299  14.294  0.00  0.00    +0.000 NA
BRANCH  13  14
ATOM     14  O   UNL     1       6.325   3.266  13.358  0.00  0.00    +0.000 OA
ATOM     15  H   UNL     1       5.597   3.567  12.779  0.00  0.00    +0.000 HD
ENDBRANCH  13  14
ENDBRANCH  10  12
ENDBRANCH   1  10
TORSDOF 4
ENDMDL
MODEL 7
REMARK VINA RESULT:      -5.8      1.742      2.951
REMARK  Name = 
REMARK  6 active torsions:
REMARK  status: ('A' for Active; 'I' for Inactive)
REMARK    1  A    between atoms: C_1  and  C_2
REMARK    2  A    between atoms: C_2  and  C_3
REMARK    3  A    between atoms: C_2  and  C_4
REMARK    4  A    between atoms: C_2  and  N_7
REMARK    5  A    between atoms: N_5  and  O_6
REMARK    6  A    between atoms: C_9  and  C_10
REMARK                            x       y       z     vdW  Elec       q    Type
REMARK                         _______ _______ _______ _____ _____    ______ ____
ROOT
ATOM      1  N   UNL     1       5.008   4.341  18.031  0.00  0.00    +0.000 N 
ATOM      2  O   UNL     1       5.387   3.686  19.066  0.00  0.00    +0.000 OA
ATOM      3  C   UNL     1       3.723   4.564  17.844  0.00  0.00    +0.000 C 
ENDROOT
BRANCH   3   4
ATOM      4  C   UNL     1       2.634   4.170  18.698  0.00  0.00    +0.000 A 
ATOM      5  C   UNL     1       2.037   4.761  19.794  0.00  0.00    +0.000 A 
ATOM      6  C   UNL     1       0.997   3.899  20.212  0.00  0.00    +0.000 A 
ATOM      7  C   UNL     1       1.022   2.832  19.347  0.00  0.00    +0.000 A 
ATOM      8  O   UNL     1       2.008   2.987  18.425  0.00  0.00    +0.000 OA
ENDBRANCH   3   4
BRANCH   1  10
ATOM      9  C   UNL     1       7.433   4.715  17.769  0.00  0.00    +0.000 C 
ATOM     10  C   UNL     1       6.070   4.836  17.090  0.00  0.00    +0.000 C 
ATOM     11  C   UNL     1       5.787   6.309  16.756  0.00  0.00    +0.000 C 
BRANCH  10  12
ATOM     12  C   UNL     1       5.944   4.020  15.821  0.00  0.00    +0.000 C 
ATOM     13  N   UNL     1       6.655   4.286  14.772  0.00  0.00    +0.000 NA
BRANCH  13  14
ATOM     14  O   UNL     1       6.356   3.353  13.775  0.00  0.00    +0.000 OA
ATOM     15  H   UNL     1       7.114   2.737  13.825  0.00  0.00    +0.000 HD
ENDBRANCH  13  14
ENDBRANCH  10  12
ENDBRANCH   1  10
TORSDOF 4
ENDMDL
MODEL 8
REMARK VINA RESULT:      -5.8      1.928      2.834
REMARK  Name = 
REMARK  6 active torsions:
REMARK  status: ('A' for Active; 'I' for Inactive)
REMARK    1  A    between atoms: C_1  and  C_2
REMARK    2  A    between atoms: C_2  and  C_3
REMARK    3  A    between atoms: C_2  and  C_4
REMARK    4  A    between atoms: C_2  and  N_7
REMARK    5  A    between atoms: N_5  and  O_6
REMARK    6  A    between atoms: C_9  and  C_10
REMARK                            x       y       z     vdW  Elec       q    Type
REMARK                         _______ _______ _______ _____ _____    ______ ____
ROOT
ATOM      1  N   UNL     1       5.444   4.957  17.877  0.00  0.00    +0.000 N 
ATOM      2  O   UNL     1       5.052   5.549  18.943  0.00  0.00    +0.000 OA
ATOM      3  C   UNL     1       4.687   4.018  17.346  0.00  0.00    +0.000 C 
ENDROOT
BRANCH   3   4
ATOM      4  C   UNL     1       3.406   3.559  17.813  0.00  0.00    +0.000 A 
ATOM      5  C   UNL     1       2.121   4.042  17.660  0.00  0.00    +0.000 A 
ATOM      6  C   UNL     1       1.263   3.151  18.343  0.00  0.00    +0.000 A 
ATOM      7  C   UNL     1       2.074   2.178  18.875  0.00  0.00    +0.000 A 
ATOM      8  O   UNL     1       3.374   2.414  18.556  0.00  0.00    +0.000 OA
ENDBRANCH   3   4
BRANCH   1  10
ATOM      9  C   UNL     1       7.879   4.565  17.902  0.00  0.00    +0.000 C 
ATOM     10  C   UNL     1       6.754   5.388  17.279  0.00  0.00    +0.000 C 
ATOM     11  C   UNL     1       6.972   6.878  17.586  0.00  0.00    +0.000 C 
BRANCH  10  12
ATOM     12  C   UNL     1       6.627   5.217  15.781  0.00  0.00    +0.000 C 
ATOM     13  N   UNL     1       7.629   5.429  14.988  0.00  0.00    +0.000 NA
BRANCH  13  14
ATOM     14  O   UNL     1       7.233   5.158  13.675  0.00  0.00    +0.000 OA
ATOM     15  H   UNL     1       6.580   4.440  13.793  0.00  0.00    +0.000 HD
ENDBRANCH  13  14
ENDBRANCH  10  12
ENDBRANCH   1  10
TORSDOF 4
ENDMDL
MODEL 9
REMARK VINA RESULT:      -5.8      2.178      5.390
REMARK  Name = 
REMARK  6 active torsions:
REMARK  status: ('A' for Active; 'I' for Inactive)
REMARK    1  A    between atoms: C_1  and  C_2
REMARK    2  A    between atoms: C_2  and  C_3
REMARK    3  A    between atoms: C_2  and  C_4
REMARK    4  A    between atoms: C_2  and  N_7
REMARK    5  A    between atoms: N_5  and  O_6
REMARK    6  A    between atoms: C_9  and  C_10
REMARK                            x       y       z     vdW  Elec       q    Type
REMARK                         _______ _______ _______ _____ _____    ______ ____
ROOT
ATOM      1  N   UNL     1       3.731   4.521  18.977  0.00  0.00    +0.000 N 
ATOM      2  O   UNL     1       3.595   5.529  19.757  0.00  0.00    +0.000 OA
ATOM      3  C   UNL     1       4.864   4.361  18.322  0.00  0.00    +0.000 C 
ENDROOT
BRANCH   3   4
ATOM      4  C   UNL     1       6.034   5.195  18.383  0.00  0.00    +0.000 A 
ATOM      5  C   UNL     1       6.488   6.238  17.599  0.00  0.00    +0.000 A 
ATOM      6  C   UNL     1       7.706   6.678  18.165  0.00  0.00    +0.000 A 
ATOM      7  C   UNL     1       7.925   5.878  19.260  0.00  0.00    +0.000 A 
ATOM      8  O   UNL     1       6.916   4.979  19.403  0.00  0.00    +0.000 OA
ENDBRANCH   3   4
BRANCH   1  10
ATOM      9  C   UNL     1       3.095   2.226  18.336  0.00  0.00    +0.000 C 
ATOM     10  C   UNL     1       2.580   3.561  18.869  0.00  0.00    +0.000 C 
ATOM     11  C   UNL     1       1.541   4.141  17.897  0.00  0.00    +0.000 C 
BRANCH  10  12
ATOM     12  C   UNL     1       1.957   3.470  20.245  0.00  0.00    +0.000 C 
ATOM     13  N   UNL     1       1.983   2.371  20.930  0.00  0.00    +0.000 NA
BRANCH  13  14
ATOM     14  O   UNL     1       1.370   2.592  22.166  0.00  0.00    +0.000 OA
ATOM     15  H   UNL     1       1.357   1.698  22.560  0.00  0.00    +0.000 HD
ENDBRANCH  13  14
ENDBRANCH  10  12
ENDBRANCH   1  10
TORSDOF 4
ENDMDL
