MODEL 1
REMARK VINA RESULT:      -6.6      0.000      0.000
REMARK  Name = 
REMARK  8 active torsions:
REMARK  status: ('A' for Active; 'I' for Inactive)
REMARK    1  A    between atoms: C_1  and  C_2
REMARK    2  A    between atoms: C_2  and  C_3
REMARK    3  A    between atoms: C_4  and  C_5
REMARK    4  A    between atoms: C_5  and  C_6
REMARK    5  A    between atoms: C_6  and  C_7
REMARK    6  A    between atoms: C_7  and  C_8
REMARK    7  A    between atoms: C_9  and  C_10
REMARK    8  A    between atoms: C_10  and  N_11
REMARK                            x       y       z     vdW  Elec       q    Type
REMARK                         _______ _______ _______ _____ _____    ______ ____
ROOT
ATOM      1  C   UNL     1       5.950   4.760  17.080  0.00  0.00    +0.000 C 
ATOM      2  C   UNL     1       7.304   4.770  17.750  0.00  0.00    +0.000 C 
ATOM      3  C   UNL     1       4.883   4.251  17.727  0.00  0.00    +0.000 C 
ENDROOT
BRANCH   1   4
ATOM      4  C   UNL     1       5.761   5.330  15.686  0.00  0.00    +0.000 C 
BRANCH   4   5
ATOM      5  C   UNL     1       6.583   4.642  14.599  0.00  0.00    +0.000 C 
BRANCH   5   9
ATOM      6  C   UNL     1       5.271   2.569  11.580  0.00  0.00    +0.000 C 
ATOM      7  C   UNL     1       6.081   3.527  12.413  0.00  0.00    +0.000 C 
ATOM      8  C   UNL     1       7.213   4.247  11.732  0.00  0.00    +0.000 C 
ATOM      9  C   UNL     1       5.782   3.735  13.703  0.00  0.00    +0.000 C 
ENDBRANCH   5   9
ENDBRANCH   4   5
ENDBRANCH   1   4
BRANCH   3  10
ATOM     10  C   UNL     1       4.937   3.564  19.066  0.00  0.00    +0.000 C 
BRANCH  10  11
ATOM     11  N   UNL     1       3.701   3.735  19.837  0.00  0.00    +0.000 NA
ATOM     12  C   UNL     1       3.088   5.057  19.630  0.00  0.00    +0.000 C 
ATOM     13  C   UNL     1       1.893   5.219  20.567  0.00  0.00    +0.000 C 
ATOM     14  C   UNL     1       0.857   4.126  20.327  0.00  0.00    +0.000 C 
ATOM     15  C   UNL     1       1.504   2.747  20.375  0.00  0.00    +0.000 C 
ATOM     16  C   UNL     1       2.742   2.675  19.481  0.00  0.00    +0.000 C 
ENDBRANCH  10  11
ENDBRANCH   3  10
TORSDOF 5
ENDMDL
MODEL 2
REMARK VINA RESULT:      -6.6      1.124      1.509
REMARK  Name = 
REMARK  8 active torsions:
REMARK  status: ('A' for Active; 'I' for Inactive)
REMARK    1  A    between atoms: C_1  and  C_2
REMARK    2  A    between atoms: C_2  and  C_3
REMARK    3  A    between atoms: C_4  and  C_5
REMARK    4  A    between atoms: C_5  and  C_6
REMARK    5  A    between atoms: C_6  and  C_7
REMARK    6  A    between atoms: C_7  and  C_8
REMARK    7  A    between atoms: C_9  and  C_10
REMARK    8  A    between atoms: C_10  and  N_11
REMARK                            x       y       z     vdW  Elec       q    Type
REMARK                         _______ _______ _______ _____ _____    ______ ____
ROOT
ATOM      1  C   UNL     1       5.332   4.891  16.554  0.00  0.00    +0.000 C 
ATOM      2  C   UNL     1       5.070   6.316  16.130  0.00  0.00    +0.000 C 
ATOM      3  C   UNL     1       5.166   4.529  17.841  0.00  0.00    +0.000 C 
ENDROOT
BRANCH   1   4
ATOM      4  C   UNL     1       5.768   3.842  15.547  0.00  0.00    +0.000 C 
BRANCH   4   5
ATOM      5  C   UNL     1       5.693   4.288  14.088  0.00  0.00    +0.000 C 
BRANCH   5   9
ATOM      6  C   UNL     1       6.517   2.014  11.042  0.00  0.00    +0.000 C 
ATOM      7  C   UNL     1       5.777   2.914  11.996  0.00  0.00    +0.000 C 
ATOM      8  C   UNL     1       4.361   3.279  11.642  0.00  0.00    +0.000 C 
ATOM      9  C   UNL     1       6.362   3.349  13.121  0.00  0.00    +0.000 C 
ENDBRANCH   5   9
ENDBRANCH   4   5
ENDBRANCH   1   4
BRANCH   3  10
ATOM     10  C   UNL     1       4.837   5.477  18.964  0.00  0.00    +0.000 C 
BRANCH  10  11
ATOM     11  N   UNL     1       3.763   4.975  19.828  0.00  0.00    +0.000 NA
ATOM     12  C   UNL     1       2.474   5.633  19.563  0.00  0.00    +0.000 C 
ATOM     13  C   UNL     1       1.442   5.169  20.589  0.00  0.00    +0.000 C 
ATOM     14  C   UNL     1       1.268   3.655  20.544  0.00  0.00    +0.000 C 
ATOM     15  C   UNL     1       2.615   2.952  20.653  0.00  0.00    +0.000 C 
ATOM     16  C   UNL     1       3.628   3.518  19.658  0.00  0.00    +0.000 C 
ENDBRANCH  10  11
ENDBRANCH   3  10
TORSDOF 5
ENDMDL
MODEL 3
REMARK VINA RESULT:      -6.6      1.145      1.847
REMARK  Name = 
REMARK  8 active torsions:
REMARK  status: ('A' for Active; 'I' for Inactive)
REMARK    1  A    between atoms: C_1  and  C_2
REMARK    2  A    between atoms: C_2  and  C_3
REMARK    3  A    between atoms: C_4  and  C_5
REMARK    4  A    between atoms: C_5  and  C_6
REMARK    5  A    between atoms: C_6  and  C_7
REMARK    6  A    between atoms: C_7  and  C_8
REMARK    7  A    between atoms: C_9  and  C_10
REMARK    8  A    between atoms: C_10  and  N_11
REMARK                            x       y       z     vdW  Elec       q    Type
REMARK                         _______ _______ _______ _____ _____    ______ ____
ROOT
ATOM      1  C   UNL     1       5.644   5.541  16.396  0.00  0.00    +0.000 C 
ATOM      2  C   UNL     1       4.785   6.782  16.472  0.00  0.00    +0.000 C 
ATOM      3  C   UNL     1       5.597   4.628  17.386  0.00  0.00    +0.000 C 
ENDROOT
BRANCH   1   4
ATOM      4  C   UNL     1       6.556   5.291  15.209  0.00  0.00    +0.000 C 
BRANCH   4   5
ATOM      5  C   UNL     1       6.409   3.910  14.573  0.00  0.00    +0.000 C 
BRANCH   5   9
ATOM      6  C   UNL     1       4.285   3.266  11.379  0.00  0.00    +0.000 C 
ATOM      7  C   UNL     1       5.458   3.397  12.314  0.00  0.00    +0.000 C 
ATOM      8  C   UNL     1       6.820   3.072  11.762  0.00  0.00    +0.000 C 
ATOM      9  C   UNL     1       5.285   3.807  13.578  0.00  0.00    +0.000 C 
ENDBRANCH   5   9
ENDBRANCH   4   5
ENDBRANCH   1   4
BRANCH   3  10
ATOM     10  C   UNL     1       4.820   4.788  18.666  0.00  0.00    +0.000 C 
BRANCH  10  11
ATOM     11  N   UNL     1       3.491   4.170  18.600  0.00  0.00    +0.000 NA
ATOM     12  C   UNL     1       3.537   2.793  18.082  0.00  0.00    +0.000 C 
ATOM     13  C   UNL     1       2.115   2.266  17.904  0.00  0.00    +0.000 C 
ATOM     14  C   UNL     1       1.351   2.296  19.223  0.00  0.00    +0.000 C 
ATOM     15  C   UNL     1       1.428   3.678  19.862  0.00  0.00    +0.000 C 
ATOM     16  C   UNL     1       2.869   4.185  19.934  0.00  0.00    +0.000 C 
ENDBRANCH  10  11
ENDBRANCH   3  10
TORSDOF 5
ENDMDL
MODEL 4
REMARK VINA RESULT:      -6.6      1.025      1.289
REMARK  Name = 
REMARK  8 active torsions:
REMARK  status: ('A' for Active; 'I' for Inactive)
REMARK    1  A    between atoms: C_1  and  C_2
REMARK    2  A    between atoms: C_2  and  C_3
REMARK    3  A    between atoms: C_4  and  C_5
REMARK    4  A    between atoms: C_5  and  C_6
REMARK    5  A    between atoms: C_6  and  C_7
REMARK    6  A    between atoms: C_7  and  C_8
REMARK    7  A    between atoms: C_9  and  C_10
REMARK    8  A    between atoms: C_10  and  N_11
REMARK                            x       y       z     vdW  Elec       q    Type
REMARK                         _______ _______ _______ _____ _____    ______ ____
ROOT
ATOM      1  C   UNL     1       6.393   4.905  17.129  0.00  0.00    +0.000 C 
ATOM      2  C   UNL     1       7.308   5.229  18.286  0.00  0.00    +0.000 C 
ATOM      3  C   UNL     1       5.056   4.962  17.291  0.00  0.00    +0.000 C 
ENDROOT
BRANCH   1   4
ATOM      4  C   UNL     1       6.952   4.527  15.769  0.00  0.00    +0.000 C 
BRANCH   4   5
ATOM      5  C   UNL     1       6.105   4.982  14.583  0.00  0.00    +0.000 C 
BRANCH   5   9
ATOM      6  C   UNL     1       5.633   2.372  11.737  0.00  0.00    +0.000 C 
ATOM      7  C   UNL     1       6.148   3.541  12.535  0.00  0.00    +0.000 C 
ATOM      8  C   UNL     1       7.272   4.343  11.937  0.00  0.00    +0.000 C 
ATOM      9  C   UNL     1       5.603   3.856  13.718  0.00  0.00    +0.000 C 
ENDBRANCH   5   9
ENDBRANCH   4   5
ENDBRANCH   1   4
BRANCH   3  10
ATOM     10  C   UNL     1       4.360   5.222  18.601  0.00  0.00    +0.000 C 
BRANCH  10  11
ATOM     11  N   UNL     1       3.409   4.163  18.953  0.00  0.00    +0.000 NA
ATOM     12  C   UNL     1       2.206   4.686  19.619  0.00  0.00    +0.000 C 
ATOM     13  C   UNL     1       1.331   3.524  20.084  0.00  0.00    +0.000 C 
ATOM     14  C   UNL     1       0.929   2.638  18.911  0.00  0.00    +0.000 C 
ATOM     15  C   UNL     1       2.153   2.215  18.106  0.00  0.00    +0.000 C 
ATOM     16  C   UNL     1       3.029   3.413  17.744  0.00  0.00    +0.000 C 
ENDBRANCH  10  11
ENDBRANCH   3  10
TORSDOF 5
ENDMDL
MODEL 5
REMARK VINA RESULT:      -6.5      1.090      1.263
REMARK  Name = 
REMARK  8 active torsions:
REMARK  status: ('A' for Active; 'I' for Inactive)
REMARK    1  A    between atoms: C_1  and  C_2
REMARK    2  A    between atoms: C_2  and  C_3
REMARK    3  A    between atoms: C_4  and  C_5
REMARK    4  A    between atoms: C_5  and  C_6
REMARK    5  A    between atoms: C_6  and  C_7
REMARK    6  A    between atoms: C_7  and  C_8
REMARK    7  A    between atoms: C_9  and  C_10
REMARK    8  A    between atoms: C_10  and  N_11
REMARK                            x       y       z     vdW  Elec       q    Type
REMARK                         _______ _______ _______ _____ _____    ______ ____
ROOT
ATOM      1  C   UNL     1       6.494   4.957  17.260  0.00  0.00    +0.000 C 
ATOM      2  C   UNL     1       6.979   6.206  17.957  0.00  0.00    +0.000 C 
ATOM      3  C   UNL     1       5.533   4.200  17.826  0.00  0.00    +0.000 C 
ENDROOT
BRANCH   1   4
ATOM      4  C   UNL     1       7.060   4.539  15.915  0.00  0.00    +0.000 C 
BRANCH   4   5
ATOM      5  C   UNL     1       6.268   5.036  14.708  0.00  0.00    +0.000 C 
BRANCH   5   9
ATOM      6  C   UNL     1       5.680   2.522  11.799  0.00  0.00    +0.000 C 
ATOM      7  C   UNL     1       6.225   3.667  12.612  0.00  0.00    +0.000 C 
ATOM      8  C   UNL     1       7.318   4.495  11.992  0.00  0.00    +0.000 C 
ATOM      9  C   UNL     1       5.733   3.938  13.829  0.00  0.00    +0.000 C 
ENDBRANCH   5   9
ENDBRANCH   4   5
ENDBRANCH   1   4
BRANCH   3  10
ATOM     10  C   UNL     1       4.952   4.432  19.196  0.00  0.00    +0.000 C 
BRANCH  10  11
ATOM     11  N   UNL     1       3.513   4.151  19.252  0.00  0.00    +0.000 NA
ATOM     12  C   UNL     1       2.940   3.887  17.923  0.00  0.00    +0.000 C 
ATOM     13  C   UNL     1       1.424   3.746  18.038  0.00  0.00    +0.000 C 
ATOM     14  C   UNL     1       1.049   2.620  18.995  0.00  0.00    +0.000 C 
ATOM     15  C   UNL     1       1.764   2.786  20.331  0.00  0.00    +0.000 C 
ATOM     16  C   UNL     1       3.265   3.006  20.144  0.00  0.00    +0.000 C 
ENDBRANCH  10  11
ENDBRANCH   3  10
TORSDOF 5
ENDMDL
MODEL 6
REMARK VINA RESULT:      -6.5      1.206      1.566
REMARK  Name = 
REMARK  8 active torsions:
REMARK  status: ('A' for Active; 'I' for Inactive)
REMARK    1  A    between atoms: C_1  and  C_2
REMARK    2  A    between atoms: C_2  and  C_3
REMARK    3  A    between atoms: C_4  and  C_5
REMARK    4  A    between atoms: C_5  and  C_6
REMARK    5  A    between atoms: C_6  and  C_7
REMARK    6  A    between atoms: C_7  and  C_8
REMARK    7  A    between atoms: C_9  and  C_10
REMARK    8  A    between atoms: C_10  and  N_11
REMARK                            x       y       z     vdW  Elec       q    Type
REMARK                         _______ _______ _______ _____ _____    ______ ____
ROOT
ATOM      1  C   UNL     1       5.599   5.755  16.533  0.00  0.00    +0.000 C 
ATOM      2  C   UNL     1       6.550   6.610  17.337  0.00  0.00    +0.000 C 
ATOM      3  C   UNL     1       4.602   5.092  17.152  0.00  0.00    +0.000 C 
ENDROOT
BRANCH   1   4
ATOM      4  C   UNL     1       5.734   5.639  15.025  0.00  0.00    +0.000 C 
BRANCH   4   5
ATOM      5  C   UNL     1       5.284   4.299  14.447  0.00  0.00    +0.000 C 
BRANCH   5   9
ATOM      6  C   UNL     1       7.021   2.657  11.378  0.00  0.00    +0.000 C 
ATOM      7  C   UNL     1       5.967   3.238  12.284  0.00  0.00    +0.000 C 
ATOM      8  C   UNL     1       4.559   3.293  11.758  0.00  0.00    +0.000 C 
ATOM      9  C   UNL     1       6.282   3.666  13.515  0.00  0.00    +0.000 C 
ENDBRANCH   5   9
ENDBRANCH   4   5
ENDBRANCH   1   4
BRANCH   3  10
ATOM     10  C   UNL     1       4.406   5.032  18.644  0.00  0.00    +0.000 C 
BRANCH  10  11
ATOM     11  N   UNL     1       3.385   4.055  19.038  0.00  0.00    +0.000 NA
ATOM     12  C   UNL     1       2.287   4.668  19.803  0.00  0.00    +0.000 C 
ATOM     13  C   UNL     1       1.341   3.578  20.302  0.00  0.00    +0.000 C 
ATOM     14  C   UNL     1       0.774   2.771  19.140  0.00  0.00    +0.000 C 
ATOM     15  C   UNL     1       1.892   2.261  18.238  0.00  0.00    +0.000 C 
ATOM     16  C   UNL     1       2.852   3.383  17.842  0.00  0.00    +0.000 C 
ENDBRANCH  10  11
ENDBRANCH   3  10
TORSDOF 5
ENDMDL
MODEL 7
REMARK VINA RESULT:      -6.5      1.123      1.350
REMARK  Name = 
REMARK  8 active torsions:
REMARK  status: ('A' for Active; 'I' for Inactive)
REMARK    1  A    between atoms: C_1  and  C_2
REMARK    2  A    between atoms: C_2  and  C_3
REMARK    3  A    between atoms: C_4  and  C_5
REMARK    4  A    between atoms: C_5  and  C_6
REMARK    5  A    between atoms: C_6  and  C_7
REMARK    6  A    between atoms: C_7  and  C_8
REMARK    7  A    between atoms: C_9  and  C_10
REMARK    8  A    between atoms: C_10  and  N_11
REMARK                            x       y       z     vdW  Elec       q    Type
REMARK                         _______ _______ _______ _____ _____    ______ ____
ROOT
ATOM      1  C   UNL     1       5.291   4.720  16.645  0.00  0.00    +0.000 C 
ATOM      2  C   UNL     1       4.698   6.104  16.771  0.00  0.00    +0.000 C 
ATOM      3  C   UNL     1       4.529   3.636  16.890  0.00  0.00    +0.000 C 
ENDROOT
BRANCH   1   4
ATOM      4  C   UNL     1       6.738   4.523  16.229  0.00  0.00    +0.000 C 
BRANCH   4   5
ATOM      5  C   UNL     1       6.976   4.547  14.721  0.00  0.00    +0.000 C 
BRANCH   5   9
ATOM      6  C   UNL     1       4.681   3.213  11.878  0.00  0.00    +0.000 C 
ATOM      7  C   UNL     1       5.893   3.700  12.628  0.00  0.00    +0.000 C 
ATOM      8  C   UNL     1       7.197   3.741  11.880  0.00  0.00    +0.000 C 
ATOM      9  C   UNL     1       5.794   4.097  13.905  0.00  0.00    +0.000 C 
ENDBRANCH   5   9
ENDBRANCH   4   5
ENDBRANCH   1   4
BRANCH   3  10
ATOM     10  C   UNL     1       3.115   3.678  17.405  0.00  0.00    +0.000 C 
BRANCH  10  11
ATOM     11  N   UNL     1       3.052   3.795  18.866  0.00  0.00    +0.000 NA
ATOM     12  C   UNL     1       2.013   4.739  19.309  0.00  0.00    +0.000 C 
ATOM     13  C   UNL     1       2.099   4.921  20.823  0.00  0.00    +0.000 C 
ATOM     14  C   UNL     1       1.928   3.589  21.544  0.00  0.00    +0.000 C 
ATOM     15  C   UNL     1       2.887   2.544  20.986  0.00  0.00    +0.000 C 
ATOM     16  C   UNL     1       2.814   2.470  19.461  0.00  0.00    +0.000 C 
ENDBRANCH  10  11
ENDBRANCH   3  10
TORSDOF 5
ENDMDL
MODEL 8
REMARK VINA RESULT:      -6.5      0.969      1.251
REMARK  Name = 
REMARK  8 active torsions:
REMARK  status: ('A' for Active; 'I' for Inactive)
REMARK    1  A    between atoms: C_1  and  C_2
REMARK    2  A    between atoms: C_2  and  C_3
REMARK    3  A    between atoms: C_4  and  C_5
REMARK    4  A    between atoms: C_5  and  C_6
REMARK    5  A    between atoms: C_6  and  C_7
REMARK    6  A    between atoms: C_7  and  C_8
REMARK    7  A    between atoms: C_9  and  C_10
REMARK    8  A    between atoms: C_10  and  N_11
REMARK                            x       y       z     vdW  Elec       q    Type
REMARK                         _______ _______ _______ _____ _____    ______ ____
ROOT
ATOM      1  C   UNL     1       5.855   4.900  16.910  0.00  0.00    +0.000 C 
ATOM      2  C   UNL     1       7.024   5.263  17.795  0.00  0.00    +0.000 C 
ATOM      3  C   UNL     1       4.876   4.104  17.381  0.00  0.00    +0.000 C 
ENDROOT
BRANCH   1   4
ATOM      4  C   UNL     1       5.751   5.432  15.492  0.00  0.00    +0.000 C 
BRANCH   4   5
ATOM      5  C   UNL     1       5.215   4.429  14.473  0.00  0.00    +0.000 C 
BRANCH   5   9
ATOM      6  C   UNL     1       7.110   2.817  11.483  0.00  0.00    +0.000 C 
ATOM      7  C   UNL     1       6.003   3.346  12.357  0.00  0.00    +0.000 C 
ATOM      8  C   UNL     1       4.601   3.271  11.817  0.00  0.00    +0.000 C 
ATOM      9  C   UNL     1       6.269   3.842  13.574  0.00  0.00    +0.000 C 
ENDBRANCH   5   9
ENDBRANCH   4   5
ENDBRANCH   1   4
BRANCH   3  10
ATOM     10  C   UNL     1       4.893   3.424  18.725  0.00  0.00    +0.000 C 
BRANCH  10  11
ATOM     11  N   UNL     1       3.671   3.672  19.497  0.00  0.00    +0.000 NA
ATOM     12  C   UNL     1       2.468   3.702  18.651  0.00  0.00    +0.000 C 
ATOM     13  C   UNL     1       1.260   4.106  19.493  0.00  0.00    +0.000 C 
ATOM     14  C   UNL     1       1.052   3.138  20.653  0.00  0.00    +0.000 C 
ATOM     15  C   UNL     1       2.339   2.965  21.451  0.00  0.00    +0.000 C 
ATOM     16  C   UNL     1       3.526   2.645  20.542  0.00  0.00    +0.000 C 
ENDBRANCH  10  11
ENDBRANCH   3  10
TORSDOF 5
ENDMDL
MODEL 9
REMARK VINA RESULT:      -6.5      0.836      1.073
REMARK  Name = 
REMARK  8 active torsions:
REMARK  status: ('A' for Active; 'I' for Inactive)
REMARK    1  A    between atoms: C_1  and  C_2
REMARK    2  A    between atoms: C_2  and  C_3
REMARK    3  A    between atoms: C_4  and  C_5
REMARK    4  A    between atoms: C_5  and  C_6
REMARK    5  A    between atoms: C_6  and  C_7
REMARK    6  A    between atoms: C_7  and  C_8
REMARK    7  A    between atoms: C_9  and  C_10
REMARK    8  A    between atoms: C_10  and  N_11
REMARK                            x       y       z     vdW  Elec       q    Type
REMARK                         _______ _______ _______ _____ _____    ______ ____
ROOT
ATOM      1  C   UNL     1       5.706   5.017  17.052  0.00  0.00    +0.000 C 
ATOM      2  C   UNL     1       5.304   6.451  16.804  0.00  0.00    +0.000 C 
ATOM      3  C   UNL     1       5.370   4.414  18.209  0.00  0.00    +0.000 C 
ENDROOT
BRANCH   1   4
ATOM      4  C   UNL     1       6.475   4.227  16.008  0.00  0.00    +0.000 C 
BRANCH   4   5
ATOM      5  C   UNL     1       6.331   4.749  14.580  0.00  0.00    +0.000 C 
BRANCH   5   9
ATOM      6  C   UNL     1       5.275   2.517  11.575  0.00  0.00    +0.000 C 
ATOM      7  C   UNL     1       6.034   3.493  12.434  0.00  0.00    +0.000 C 
ATOM      8  C   UNL     1       7.284   4.096  11.853  0.00  0.00    +0.000 C 
ATOM      9  C   UNL     1       5.591   3.819  13.657  0.00  0.00    +0.000 C 
ENDBRANCH   5   9
ENDBRANCH   4   5
ENDBRANCH   1   4
BRANCH   3  10
ATOM     10  C   UNL     1       4.700   5.097  19.371  0.00  0.00    +0.000 C 
BRANCH  10  11
ATOM     11  N   UNL     1       3.526   4.363  19.856  0.00  0.00    +0.000 NA
ATOM     12  C   UNL     1       2.321   5.206  19.915  0.00  0.00    +0.000 C 
ATOM     13  C   UNL     1       1.180   4.422  20.559  0.00  0.00    +0.000 C 
ATOM     14  C   UNL     1       0.880   3.148  19.778  0.00  0.00    +0.000 C 
ATOM     15  C   UNL     1       2.151   2.334  19.562  0.00  0.00    +0.000 C 
ATOM     16  C   UNL     1       3.280   3.194  18.994  0.00  0.00    +0.000 C 
ENDBRANCH  10  11
ENDBRANCH   3  10
TORSDOF 5
ENDMDL
