MODEL 1
REMARK VINA RESULT:      -9.0      0.000      0.000
REMARK  Name = 
REMARK  5 active torsions:
REMARK  status: ('A' for Active; 'I' for Inactive)
REMARK    1  A    between atoms: N_1  and  C_2
REMARK    2  A    between atoms: C_2  and  C_3
REMARK    3  A    between atoms: C_7  and  C_8
REMARK    4  A    between atoms: C_12  and  C_13
REMARK    5  A    between atoms: C_17  and  C_18
REMARK                            x       y       z     vdW  Elec       q    Type
REMARK                         _______ _______ _______ _____ _____    ______ ____
ROOT
ATOM      1  C   UNL     1       2.846   6.898  18.430  0.00  0.00    +0.000 A 
ATOM      2  C   UNL     1       2.613   8.067  17.704  0.00  0.00    +0.000 A 
ATOM      3  C   UNL     1       1.855   9.111  18.236  0.00  0.00    +0.000 A 
ATOM      4  C   UNL     1       1.303   9.060  19.535  0.00  0.00    +0.000 A 
ATOM      5  C   UNL     1       0.498  10.094  20.110  0.00  0.00    +0.000 A 
ATOM      6  C   UNL     1      -0.097   9.848  21.368  0.00  0.00    +0.000 A 
ATOM      7  C   UNL     1       0.153   8.684  22.085  0.00  0.00    +0.000 A 
ATOM      8  C   UNL     1       1.004   7.722  21.559  0.00  0.00    +0.000 A 
ATOM      9  C   UNL     1       1.554   7.878  20.281  0.00  0.00    +0.000 A 
ATOM     10  C   UNL     1       2.326   6.838  19.732  0.00  0.00    +0.000 A 
ENDROOT
BRANCH   1  15
ATOM     11  C   UNL     1       5.185   4.875  16.204  0.00  0.00    +0.000 A 
ATOM     12  C   UNL     1       4.795   3.570  16.526  0.00  0.00    +0.000 A 
ATOM     13  C   UNL     1       3.803   3.349  17.479  0.00  0.00    +0.000 A 
ATOM     14  C   UNL     1       3.181   4.430  18.107  0.00  0.00    +0.000 A 
ATOM     15  C   UNL     1       3.548   5.754  17.814  0.00  0.00    +0.000 A 
ATOM     16  C   UNL     1       4.561   5.949  16.861  0.00  0.00    +0.000 A 
BRANCH  11  17
ATOM     17  C   UNL     1       6.213   5.138  15.136  0.00  0.00    +0.000 C 
BRANCH  17  18
ATOM     18  N   UNL     1       7.461   5.637  15.701  0.00  0.00    +0.000 NA
ATOM     19  H   UNL     1       7.430   6.652  15.738  0.00  0.00    +0.000 HD
ATOM     20  H   UNL     1       8.225   5.389  15.074  0.00  0.00    +0.000 HD
ENDBRANCH  17  18
ENDBRANCH  11  17
ENDBRANCH   1  15
BRANCH   5  21
ATOM     21  C   UNL     1       0.262  11.414  19.461  0.00  0.00    +0.000 A 
ATOM     22  C   UNL     1      -0.960  11.736  18.849  0.00  0.00    +0.000 A 
ATOM     23  C   UNL     1      -1.173  12.984  18.265  0.00  0.00    +0.000 A 
ATOM     24  C   UNL     1      -0.134  13.914  18.207  0.00  0.00    +0.000 A 
ATOM     25  C   UNL     1       1.137  13.613  18.720  0.00  0.00    +0.000 A 
ATOM     26  C   UNL     1       1.290  12.374  19.376  0.00  0.00    +0.000 A 
BRANCH  25  27
ATOM     27  C   UNL     1       2.292  14.527  18.547  0.00  0.00    +0.000 A 
ATOM     28  C   UNL     1       2.184  15.908  18.795  0.00  0.00    +0.000 A 
ATOM     29  C   UNL     1       3.294  16.757  18.714  0.00  0.00    +0.000 A 
ATOM     30  C   UNL     1       4.539  16.241  18.368  0.00  0.00    +0.000 A 
ATOM     31  C   UNL     1       4.673  14.883  18.106  0.00  0.00    +0.000 A 
ATOM     32  C   UNL     1       3.564  14.036  18.205  0.00  0.00    +0.000 A 
ENDBRANCH  25  27
ENDBRANCH   5  21
TORSDOF 5
ENDMDL
MODEL 2
REMARK VINA RESULT:      -8.9      1.325      2.010
REMARK  Name = 
REMARK  5 active torsions:
REMARK  status: ('A' for Active; 'I' for Inactive)
REMARK    1  A    between atoms: N_1  and  C_2
REMARK    2  A    between atoms: C_2  and  C_3
REMARK    3  A    between atoms: C_7  and  C_8
REMARK    4  A    between atoms: C_12  and  C_13
REMARK    5  A    between atoms: C_17  and  C_18
REMARK                            x       y       z     vdW  Elec       q    Type
REMARK                         _______ _______ _______ _____ _____    ______ ____
ROOT
ATOM      1  C   UNL     1       2.906   6.915  18.308  0.00  0.00    +0.000 A 
ATOM      2  C   UNL     1       2.597   8.066  17.582  0.00  0.00    +0.000 A 
ATOM      3  C   UNL     1       1.857   9.105  18.151  0.00  0.00    +0.000 A 
ATOM      4  C   UNL     1       1.400   9.065  19.486  0.00  0.00    +0.000 A 
ATOM      5  C   UNL     1       0.616  10.092  20.102  0.00  0.00    +0.000 A 
ATOM      6  C   UNL     1       0.118   9.856  21.403  0.00  0.00    +0.000 A 
ATOM      7  C   UNL     1       0.443   8.710  22.119  0.00  0.00    +0.000 A 
ATOM      8  C   UNL     1       1.274   7.757  21.548  0.00  0.00    +0.000 A 
ATOM      9  C   UNL     1       1.729   7.901  20.232  0.00  0.00    +0.000 A 
ATOM     10  C   UNL     1       2.482   6.868  19.645  0.00  0.00    +0.000 A 
ENDROOT
BRANCH   1  15
ATOM     11  C   UNL     1       3.918   3.352  17.417  0.00  0.00    +0.000 A 
ATOM     12  C   UNL     1       4.983   3.590  16.541  0.00  0.00    +0.000 A 
ATOM     13  C   UNL     1       5.348   4.895  16.219  0.00  0.00    +0.000 A 
ATOM     14  C   UNL     1       4.664   5.974  16.782  0.00  0.00    +0.000 A 
ATOM     15  C   UNL     1       3.587   5.775  17.662  0.00  0.00    +0.000 A 
ATOM     16  C   UNL     1       3.229   4.450  17.958  0.00  0.00    +0.000 A 
BRANCH  11  17
ATOM     17  C   UNL     1       3.544   1.951  17.825  0.00  0.00    +0.000 C 
BRANCH  17  18
ATOM     18  N   UNL     1       2.158   1.873  18.272  0.00  0.00    +0.000 NA
ATOM     19  H   UNL     1       1.541   2.010  17.475  0.00  0.00    +0.000 HD
ATOM     20  H   UNL     1       1.980   2.643  18.916  0.00  0.00    +0.000 HD
ENDBRANCH  17  18
ENDBRANCH  11  17
ENDBRANCH   1  15
BRANCH   5  21
ATOM     21  C   UNL     1       0.306  11.396  19.450  0.00  0.00    +0.000 A 
ATOM     22  C   UNL     1      -0.909  11.628  18.786  0.00  0.00    +0.000 A 
ATOM     23  C   UNL     1      -1.193  12.860  18.200  0.00  0.00    +0.000 A 
ATOM     24  C   UNL     1      -0.229  13.869  18.194  0.00  0.00    +0.000 A 
ATOM     25  C   UNL     1       1.038  13.663  18.761  0.00  0.00    +0.000 A 
ATOM     26  C   UNL     1       1.258  12.434  19.416  0.00  0.00    +0.000 A 
BRANCH  25  27
ATOM     27  C   UNL     1       2.124  14.666  18.645  0.00  0.00    +0.000 A 
ATOM     28  C   UNL     1       3.401  14.321  18.163  0.00  0.00    +0.000 A 
ATOM     29  C   UNL     1       4.398  15.284  17.975  0.00  0.00    +0.000 A 
ATOM     30  C   UNL     1       4.144  16.617  18.279  0.00  0.00    +0.000 A 
ATOM     31  C   UNL     1       2.896  16.985  18.768  0.00  0.00    +0.000 A 
ATOM     32  C   UNL     1       1.896  16.022  18.939  0.00  0.00    +0.000 A 
ENDBRANCH  25  27
ENDBRANCH   5  21
TORSDOF 5
ENDMDL
MODEL 3
REMARK VINA RESULT:      -8.9      1.253      1.772
REMARK  Name = 
REMARK  5 active torsions:
REMARK  status: ('A' for Active; 'I' for Inactive)
REMARK    1  A    between atoms: N_1  and  C_2
REMARK    2  A    between atoms: C_2  and  C_3
REMARK    3  A    between atoms: C_7  and  C_8
REMARK    4  A    between atoms: C_12  and  C_13
REMARK    5  A    between atoms: C_17  and  C_18
REMARK                            x       y       z     vdW  Elec       q    Type
REMARK                         _______ _______ _______ _____ _____    ______ ____
ROOT
ATOM      1  C   UNL     1       2.662   7.139  18.495  0.00  0.00    +0.000 A 
ATOM      2  C   UNL     1       2.492   8.338  17.800  0.00  0.00    +0.000 A 
ATOM      3  C   UNL     1       1.816   9.417  18.372  0.00  0.00    +0.000 A 
ATOM      4  C   UNL     1       1.290   9.371  19.682  0.00  0.00    +0.000 A 
ATOM      5  C   UNL     1       0.567  10.442  20.299  0.00  0.00    +0.000 A 
ATOM      6  C   UNL     1      -0.015  10.207  21.565  0.00  0.00    +0.000 A 
ATOM      7  C   UNL     1       0.174   9.013  22.250  0.00  0.00    +0.000 A 
ATOM      8  C   UNL     1       0.947   8.010  21.683  0.00  0.00    +0.000 A 
ATOM      9  C   UNL     1       1.479   8.159  20.397  0.00  0.00    +0.000 A 
ATOM     10  C   UNL     1       2.168   7.084  19.808  0.00  0.00    +0.000 A 
ENDROOT
BRANCH   1  15
ATOM     11  C   UNL     1       3.391   3.535  17.498  0.00  0.00    +0.000 A 
ATOM     12  C   UNL     1       4.530   3.705  16.703  0.00  0.00    +0.000 A 
ATOM     13  C   UNL     1       5.038   4.980  16.468  0.00  0.00    +0.000 A 
ATOM     14  C   UNL     1       4.422   6.096  17.038  0.00  0.00    +0.000 A 
ATOM     15  C   UNL     1       3.274   5.967  17.839  0.00  0.00    +0.000 A 
ATOM     16  C   UNL     1       2.774   4.672  18.047  0.00  0.00    +0.000 A 
BRANCH  11  17
ATOM     17  C   UNL     1       2.859   2.162  17.812  0.00  0.00    +0.000 C 
BRANCH  17  18
ATOM     18  N   UNL     1       3.919   1.263  18.254  0.00  0.00    +0.000 NA
ATOM     19  H   UNL     1       4.811   1.597  17.897  0.00  0.00    +0.000 HD
ATOM     20  H   UNL     1       3.762   0.345  17.839  0.00  0.00    +0.000 HD
ENDBRANCH  17  18
ENDBRANCH  11  17
ENDBRANCH   1  15
BRANCH   5  21
ATOM     21  C   UNL     1       0.404  11.790  19.684  0.00  0.00    +0.000 A 
ATOM     22  C   UNL     1      -0.799  12.197  19.087  0.00  0.00    +0.000 A 
ATOM     23  C   UNL     1      -0.943  13.469  18.535  0.00  0.00    +0.000 A 
ATOM     24  C   UNL     1       0.147  14.339  18.495  0.00  0.00    +0.000 A 
ATOM     25  C   UNL     1       1.401  13.953  18.993  0.00  0.00    +0.000 A 
ATOM     26  C   UNL     1       1.485  12.691  19.617  0.00  0.00    +0.000 A 
BRANCH  25  27
ATOM     27  C   UNL     1       2.606  14.804  18.837  0.00  0.00    +0.000 A 
ATOM     28  C   UNL     1       2.668  16.103  19.375  0.00  0.00    +0.000 A 
ATOM     29  C   UNL     1       3.835  16.872  19.301  0.00  0.00    +0.000 A 
ATOM     30  C   UNL     1       4.965  16.362  18.671  0.00  0.00    +0.000 A 
ATOM     31  C   UNL     1       4.929  15.087  18.120  0.00  0.00    +0.000 A 
ATOM     32  C   UNL     1       3.766  14.315  18.211  0.00  0.00    +0.000 A 
ENDBRANCH  25  27
ENDBRANCH   5  21
TORSDOF 5
ENDMDL
MODEL 4
REMARK VINA RESULT:      -8.9      3.591      9.609
REMARK  Name = 
REMARK  5 active torsions:
REMARK  status: ('A' for Active; 'I' for Inactive)
REMARK    1  A    between atoms: N_1  and  C_2
REMARK    2  A    between atoms: C_2  and  C_3
REMARK    3  A    between atoms: C_7  and  C_8
REMARK    4  A    between atoms: C_12  and  C_13
REMARK    5  A    between atoms: C_17  and  C_18
REMARK                            x       y       z     vdW  Elec       q    Type
REMARK                         _______ _______ _______ _____ _____    ______ ____
ROOT
ATOM      1  C   UNL     1       1.990   7.896  19.097  0.00  0.00    +0.000 A 
ATOM      2  C   UNL     1       2.844   8.077  18.008  0.00  0.00    +0.000 A 
ATOM      3  C   UNL     1       3.724   7.072  17.603  0.00  0.00    +0.000 A 
ATOM      4  C   UNL     1       3.787   5.817  18.246  0.00  0.00    +0.000 A 
ATOM      5  C   UNL     1       4.691   4.769  17.883  0.00  0.00    +0.000 A 
ATOM      6  C   UNL     1       4.734   3.616  18.700  0.00  0.00    +0.000 A 
ATOM      7  C   UNL     1       3.869   3.444  19.774  0.00  0.00    +0.000 A 
ATOM      8  C   UNL     1       2.936   4.428  20.069  0.00  0.00    +0.000 A 
ATOM      9  C   UNL     1       2.906   5.625  19.343  0.00  0.00    +0.000 A 
ATOM     10  C   UNL     1       2.020   6.645  19.734  0.00  0.00    +0.000 A 
ENDROOT
BRANCH   1  15
ATOM     11  C   UNL     1      -0.166  10.046  21.386  0.00  0.00    +0.000 A 
ATOM     12  C   UNL     1      -0.581  11.046  20.499  0.00  0.00    +0.000 A 
ATOM     13  C   UNL     1      -0.139  11.038  19.178  0.00  0.00    +0.000 A 
ATOM     14  C   UNL     1       0.707  10.023  18.727  0.00  0.00    +0.000 A 
ATOM     15  C   UNL     1       1.149   9.005  19.589  0.00  0.00    +0.000 A 
ATOM     16  C   UNL     1       0.701   9.045  20.920  0.00  0.00    +0.000 A 
BRANCH  11  17
ATOM     17  C   UNL     1      -0.677  10.003  22.803  0.00  0.00    +0.000 C 
BRANCH  17  18
ATOM     18  N   UNL     1       0.377   9.641  23.743  0.00  0.00    +0.000 NA
ATOM     19  H   UNL     1       1.111  10.344  23.709  0.00  0.00    +0.000 HD
ATOM     20  H   UNL     1       0.796   8.763  23.441  0.00  0.00    +0.000 HD
ENDBRANCH  17  18
ENDBRANCH  11  17
ENDBRANCH   1  15
BRANCH   5  21
ATOM     21  C   UNL     1       5.580   4.822  16.687  0.00  0.00    +0.000 A 
ATOM     22  C   UNL     1       6.727   5.630  16.647  0.00  0.00    +0.000 A 
ATOM     23  C   UNL     1       7.560   5.653  15.529  0.00  0.00    +0.000 A 
ATOM     24  C   UNL     1       7.218   4.926  14.389  0.00  0.00    +0.000 A 
ATOM     25  C   UNL     1       6.035   4.173  14.338  0.00  0.00    +0.000 A 
ATOM     26  C   UNL     1       5.261   4.108  15.515  0.00  0.00    +0.000 A 
BRANCH  25  27
ATOM     27  C   UNL     1       5.580   3.505  13.094  0.00  0.00    +0.000 A 
ATOM     28  C   UNL     1       4.349   3.824  12.491  0.00  0.00    +0.000 A 
ATOM     29  C   UNL     1       3.960   3.255  11.274  0.00  0.00    +0.000 A 
ATOM     30  C   UNL     1       4.791   2.340  10.637  0.00  0.00    +0.000 A 
ATOM     31  C   UNL     1       6.008   1.997  11.214  0.00  0.00    +0.000 A 
ATOM     32  C   UNL     1       6.401   2.581  12.423  0.00  0.00    +0.000 A 
ENDBRANCH  25  27
ENDBRANCH   5  21
TORSDOF 5
ENDMDL
MODEL 5
REMARK VINA RESULT:      -8.9      3.111      9.086
REMARK  Name = 
REMARK  5 active torsions:
REMARK  status: ('A' for Active; 'I' for Inactive)
REMARK    1  A    between atoms: N_1  and  C_2
REMARK    2  A    between atoms: C_2  and  C_3
REMARK    3  A    between atoms: C_7  and  C_8
REMARK    4  A    between atoms: C_12  and  C_13
REMARK    5  A    between atoms: C_17  and  C_18
REMARK                            x       y       z     vdW  Elec       q    Type
REMARK                         _______ _______ _______ _____ _____    ______ ____
ROOT
ATOM      1  C   UNL     1       1.541   8.892  18.619  0.00  0.00    +0.000 A 
ATOM      2  C   UNL     1       2.721   8.772  17.883  0.00  0.00    +0.000 A 
ATOM      3  C   UNL     1       3.537   7.645  17.999  0.00  0.00    +0.000 A 
ATOM      4  C   UNL     1       3.211   6.560  18.842  0.00  0.00    +0.000 A 
ATOM      5  C   UNL     1       4.029   5.398  19.014  0.00  0.00    +0.000 A 
ATOM      6  C   UNL     1       3.643   4.453  19.990  0.00  0.00    +0.000 A 
ATOM      7  C   UNL     1       2.459   4.579  20.708  0.00  0.00    +0.000 A 
ATOM      8  C   UNL     1       1.627   5.665  20.476  0.00  0.00    +0.000 A 
ATOM      9  C   UNL     1       2.002   6.673  19.579  0.00  0.00    +0.000 A 
ATOM     10  C   UNL     1       1.188   7.812  19.444  0.00  0.00    +0.000 A 
ENDROOT
BRANCH   1  15
ATOM     11  C   UNL     1      -1.292  11.341  17.922  0.00  0.00    +0.000 A 
ATOM     12  C   UNL     1      -0.719  12.541  18.358  0.00  0.00    +0.000 A 
ATOM     13  C   UNL     1       0.563  12.549  18.902  0.00  0.00    +0.000 A 
ATOM     14  C   UNL     1       1.291  11.361  19.001  0.00  0.00    +0.000 A 
ATOM     15  C   UNL     1       0.748  10.136  18.577  0.00  0.00    +0.000 A 
ATOM     16  C   UNL     1      -0.552  10.154  18.046  0.00  0.00    +0.000 A 
BRANCH  11  17
ATOM     17  C   UNL     1      -2.653  11.318  17.277  0.00  0.00    +0.000 C 
BRANCH  17  18
ATOM     18  N   UNL     1      -2.558  11.238  15.824  0.00  0.00    +0.000 NA
ATOM     19  H   UNL     1      -1.773  11.801  15.508  0.00  0.00    +0.000 HD
ATOM     20  H   UNL     1      -3.397  11.652  15.420  0.00  0.00    +0.000 HD
ENDBRANCH  17  18
ENDBRANCH  11  17
ENDBRANCH   1  15
BRANCH   5  21
ATOM     21  C   UNL     1       5.258   5.128  18.214  0.00  0.00    +0.000 A 
ATOM     22  C   UNL     1       6.546   5.285  18.750  0.00  0.00    +0.000 A 
ATOM     23  C   UNL     1       7.685   5.008  17.996  0.00  0.00    +0.000 A 
ATOM     24  C   UNL     1       7.563   4.643  16.655  0.00  0.00    +0.000 A 
ATOM     25  C   UNL     1       6.305   4.560  16.039  0.00  0.00    +0.000 A 
ATOM     26  C   UNL     1       5.173   4.767  16.855  0.00  0.00    +0.000 A 
BRANCH  25  27
ATOM     27  C   UNL     1       6.155   4.311  14.585  0.00  0.00    +0.000 A 
ATOM     28  C   UNL     1       7.203   4.564  13.680  0.00  0.00    +0.000 A 
ATOM     29  C   UNL     1       7.091   4.250  12.321  0.00  0.00    +0.000 A 
ATOM     30  C   UNL     1       5.917   3.686  11.833  0.00  0.00    +0.000 A 
ATOM     31  C   UNL     1       4.861   3.435  12.701  0.00  0.00    +0.000 A 
ATOM     32  C   UNL     1       4.984   3.736  14.062  0.00  0.00    +0.000 A 
ENDBRANCH  25  27
ENDBRANCH   5  21
TORSDOF 5
ENDMDL
MODEL 6
REMARK VINA RESULT:      -8.7      3.444      9.208
REMARK  Name = 
REMARK  5 active torsions:
REMARK  status: ('A' for Active; 'I' for Inactive)
REMARK    1  A    between atoms: N_1  and  C_2
REMARK    2  A    between atoms: C_2  and  C_3
REMARK    3  A    between atoms: C_7  and  C_8
REMARK    4  A    between atoms: C_12  and  C_13
REMARK    5  A    between atoms: C_17  and  C_18
REMARK                            x       y       z     vdW  Elec       q    Type
REMARK                         _______ _______ _______ _____ _____    ______ ____
ROOT
ATOM      1  C   UNL     1       1.451   7.491  20.330  0.00  0.00    +0.000 A 
ATOM      2  C   UNL     1       2.621   7.736  19.608  0.00  0.00    +0.000 A 
ATOM      3  C   UNL     1       3.443   6.690  19.184  0.00  0.00    +0.000 A 
ATOM      4  C   UNL     1       3.133   5.335  19.435  0.00  0.00    +0.000 A 
ATOM      5  C   UNL     1       3.958   4.234  19.044  0.00  0.00    +0.000 A 
ATOM      6  C   UNL     1       3.589   2.941  19.479  0.00  0.00    +0.000 A 
ATOM      7  C   UNL     1       2.415   2.711  20.187  0.00  0.00    +0.000 A 
ATOM      8  C   UNL     1       1.576   3.773  20.490  0.00  0.00    +0.000 A 
ATOM      9  C   UNL     1       1.934   5.084  20.154  0.00  0.00    +0.000 A 
ATOM     10  C   UNL     1       1.114   6.150  20.568  0.00  0.00    +0.000 A 
ENDROOT
BRANCH   1  15
ATOM     11  C   UNL     1      -0.448  10.785  20.574  0.00  0.00    +0.000 A 
ATOM     12  C   UNL     1      -0.749  10.817  21.940  0.00  0.00    +0.000 A 
ATOM     13  C   UNL     1      -0.366   9.765  22.768  0.00  0.00    +0.000 A 
ATOM     14  C   UNL     1       0.336   8.678  22.242  0.00  0.00    +0.000 A 
ATOM     15  C   UNL     1       0.653   8.607  20.874  0.00  0.00    +0.000 A 
ATOM     16  C   UNL     1       0.242   9.674  20.059  0.00  0.00    +0.000 A 
BRANCH  11  17
ATOM     17  C   UNL     1      -0.801  11.938  19.672  0.00  0.00    +0.000 C 
BRANCH  17  18
ATOM     18  N   UNL     1      -0.203  11.790  18.350  0.00  0.00    +0.000 NA
ATOM     19  H   UNL     1      -0.363  12.639  17.813  0.00  0.00    +0.000 HD
ATOM     20  H   UNL     1      -0.683  11.037  17.858  0.00  0.00    +0.000 HD
ENDBRANCH  17  18
ENDBRANCH  11  17
ENDBRANCH   1  15
BRANCH   5  21
ATOM     21  C   UNL     1       5.176   4.375  18.197  0.00  0.00    +0.000 A 
ATOM     22  C   UNL     1       6.397   4.833  18.716  0.00  0.00    +0.000 A 
ATOM     23  C   UNL     1       7.533   4.939  17.916  0.00  0.00    +0.000 A 
ATOM     24  C   UNL     1       7.453   4.665  16.550  0.00  0.00    +0.000 A 
ATOM     25  C   UNL     1       6.237   4.292  15.956  0.00  0.00    +0.000 A 
ATOM     26  C   UNL     1       5.130   4.115  16.812  0.00  0.00    +0.000 A 
BRANCH  25  27
ATOM     27  C   UNL     1       6.095   4.131  14.489  0.00  0.00    +0.000 A 
ATOM     28  C   UNL     1       7.162   4.391  13.610  0.00  0.00    +0.000 A 
ATOM     29  C   UNL     1       7.053   4.158  12.234  0.00  0.00    +0.000 A 
ATOM     30  C   UNL     1       5.863   3.670  11.705  0.00  0.00    +0.000 A 
ATOM     31  C   UNL     1       4.788   3.414  12.548  0.00  0.00    +0.000 A 
ATOM     32  C   UNL     1       4.907   3.633  13.924  0.00  0.00    +0.000 A 
ENDBRANCH  25  27
ENDBRANCH   5  21
TORSDOF 5
ENDMDL
MODEL 7
REMARK VINA RESULT:      -8.6      0.948      1.304
REMARK  Name = 
REMARK  5 active torsions:
REMARK  status: ('A' for Active; 'I' for Inactive)
REMARK    1  A    between atoms: N_1  and  C_2
REMARK    2  A    between atoms: C_2  and  C_3
REMARK    3  A    between atoms: C_7  and  C_8
REMARK    4  A    between atoms: C_12  and  C_13
REMARK    5  A    between atoms: C_17  and  C_18
REMARK                            x       y       z     vdW  Elec       q    Type
REMARK                         _______ _______ _______ _____ _____    ______ ____
ROOT
ATOM      1  C   UNL     1       2.386   7.275  18.776  0.00  0.00    +0.000 A 
ATOM      2  C   UNL     1       2.324   8.465  18.050  0.00  0.00    +0.000 A 
ATOM      3  C   UNL     1       1.743   9.614  18.590  0.00  0.00    +0.000 A 
ATOM      4  C   UNL     1       1.209   9.649  19.897  0.00  0.00    +0.000 A 
ATOM      5  C   UNL     1       0.581  10.795  20.481  0.00  0.00    +0.000 A 
ATOM      6  C   UNL     1      -0.025  10.645  21.749  0.00  0.00    +0.000 A 
ATOM      7  C   UNL     1       0.054   9.457  22.466  0.00  0.00    +0.000 A 
ATOM      8  C   UNL     1       0.739   8.376  21.930  0.00  0.00    +0.000 A 
ATOM      9  C   UNL     1       1.288   8.444  20.644  0.00  0.00    +0.000 A 
ATOM     10  C   UNL     1       1.883   7.297  20.087  0.00  0.00    +0.000 A 
ENDROOT
BRANCH   1  15
ATOM     11  C   UNL     1       4.646   4.842  16.910  0.00  0.00    +0.000 A 
ATOM     12  C   UNL     1       3.819   3.716  16.834  0.00  0.00    +0.000 A 
ATOM     13  C   UNL     1       2.551   3.737  17.410  0.00  0.00    +0.000 A 
ATOM     14  C   UNL     1       2.092   4.888  18.054  0.00  0.00    +0.000 A 
ATOM     15  C   UNL     1       2.895   6.037  18.154  0.00  0.00    +0.000 A 
ATOM     16  C   UNL     1       4.174   5.984  17.579  0.00  0.00    +0.000 A 
BRANCH  11  17
ATOM     17  C   UNL     1       5.997   4.861  16.244  0.00  0.00    +0.000 C 
BRANCH  17  18
ATOM     18  N   UNL     1       7.019   4.246  17.083  0.00  0.00    +0.000 NA
ATOM     19  H   UNL     1       6.787   3.267  17.230  0.00  0.00    +0.000 HD
ATOM     20  H   UNL     1       7.000   4.693  17.999  0.00  0.00    +0.000 HD
ENDBRANCH  17  18
ENDBRANCH  11  17
ENDBRANCH   1  15
BRANCH   5  21
ATOM     21  C   UNL     1       0.540  12.135  19.831  0.00  0.00    +0.000 A 
ATOM     22  C   UNL     1      -0.580  12.581  19.111  0.00  0.00    +0.000 A 
ATOM     23  C   UNL     1      -0.611  13.846  18.526  0.00  0.00    +0.000 A 
ATOM     24  C   UNL     1       0.515  14.668  18.580  0.00  0.00    +0.000 A 
ATOM     25  C   UNL     1       1.696  14.239  19.207  0.00  0.00    +0.000 A 
ATOM     26  C   UNL     1       1.661  12.988  19.857  0.00  0.00    +0.000 A 
BRANCH  25  27
ATOM     27  C   UNL     1       2.947  15.034  19.157  0.00  0.00    +0.000 A 
ATOM     28  C   UNL     1       4.028  14.660  18.338  0.00  0.00    +0.000 A 
ATOM     29  C   UNL     1       5.174  15.456  18.228  0.00  0.00    +0.000 A 
ATOM     30  C   UNL     1       5.269  16.641  18.950  0.00  0.00    +0.000 A 
ATOM     31  C   UNL     1       4.221  17.030  19.776  0.00  0.00    +0.000 A 
ATOM     32  C   UNL     1       3.071  16.240  19.870  0.00  0.00    +0.000 A 
ENDBRANCH  25  27
ENDBRANCH   5  21
TORSDOF 5
ENDMDL
MODEL 8
REMARK VINA RESULT:      -8.6      3.059      9.616
REMARK  Name = 
REMARK  5 active torsions:
REMARK  status: ('A' for Active; 'I' for Inactive)
REMARK    1  A    between atoms: N_1  and  C_2
REMARK    2  A    between atoms: C_2  and  C_3
REMARK    3  A    between atoms: C_7  and  C_8
REMARK    4  A    between atoms: C_12  and  C_13
REMARK    5  A    between atoms: C_17  and  C_18
REMARK                            x       y       z     vdW  Elec       q    Type
REMARK                         _______ _______ _______ _____ _____    ______ ____
ROOT
ATOM      1  C   UNL     1       2.039   7.975  18.908  0.00  0.00    +0.000 A 
ATOM      2  C   UNL     1       2.921   8.152  17.842  0.00  0.00    +0.000 A 
ATOM      3  C   UNL     1       3.778   7.128  17.433  0.00  0.00    +0.000 A 
ATOM      4  C   UNL     1       3.787   5.858  18.050  0.00  0.00    +0.000 A 
ATOM      5  C   UNL     1       4.666   4.790  17.683  0.00  0.00    +0.000 A 
ATOM      6  C   UNL     1       4.655   3.620  18.476  0.00  0.00    +0.000 A 
ATOM      7  C   UNL     1       3.762   3.453  19.528  0.00  0.00    +0.000 A 
ATOM      8  C   UNL     1       2.855   4.459  19.825  0.00  0.00    +0.000 A 
ATOM      9  C   UNL     1       2.877   5.671  19.124  0.00  0.00    +0.000 A 
ATOM     10  C   UNL     1       2.016   6.711  19.519  0.00  0.00    +0.000 A 
ENDROOT
BRANCH   1  15
ATOM     11  C   UNL     1       0.353  11.383  19.141  0.00  0.00    +0.000 A 
ATOM     12  C   UNL     1      -0.217  11.311  20.417  0.00  0.00    +0.000 A 
ATOM     13  C   UNL     1      -0.081  10.155  21.182  0.00  0.00    +0.000 A 
ATOM     14  C   UNL     1       0.639   9.066  20.685  0.00  0.00    +0.000 A 
ATOM     15  C   UNL     1       1.222   9.099  19.407  0.00  0.00    +0.000 A 
ATOM     16  C   UNL     1       1.057  10.271  18.651  0.00  0.00    +0.000 A 
BRANCH  11  17
ATOM     17  C   UNL     1       0.268  12.644  18.322  0.00  0.00    +0.000 C 
BRANCH  17  18
ATOM     18  N   UNL     1      -1.070  12.842  17.777  0.00  0.00    +0.000 NA
ATOM     19  H   UNL     1      -1.148  12.348  16.892  0.00  0.00    +0.000 HD
ATOM     20  H   UNL     1      -1.195  13.833  17.572  0.00  0.00    +0.000 HD
ENDBRANCH  17  18
ENDBRANCH  11  17
ENDBRANCH   1  15
BRANCH   5  21
ATOM     21  C   UNL     1       5.581   4.840  16.508  0.00  0.00    +0.000 A 
ATOM     22  C   UNL     1       6.729   5.648  16.490  0.00  0.00    +0.000 A 
ATOM     23  C   UNL     1       7.587   5.669  15.392  0.00  0.00    +0.000 A 
ATOM     24  C   UNL     1       7.271   4.938  14.246  0.00  0.00    +0.000 A 
ATOM     25  C   UNL     1       6.089   4.184  14.171  0.00  0.00    +0.000 A 
ATOM     26  C   UNL     1       5.289   4.123  15.331  0.00  0.00    +0.000 A 
BRANCH  25  27
ATOM     27  C   UNL     1       5.663   3.513  12.919  0.00  0.00    +0.000 A 
ATOM     28  C   UNL     1       6.448   2.516  12.310  0.00  0.00    +0.000 A 
ATOM     29  C   UNL     1       6.006   1.824  11.177  0.00  0.00    +0.000 A 
ATOM     30  C   UNL     1       4.769   2.126  10.618  0.00  0.00    +0.000 A 
ATOM     31  C   UNL     1       3.976   3.113  11.191  0.00  0.00    +0.000 A 
ATOM     32  C   UNL     1       4.415   3.791  12.333  0.00  0.00    +0.000 A 
ENDBRANCH  25  27
ENDBRANCH   5  21
TORSDOF 5
ENDMDL
MODEL 9
REMARK VINA RESULT:      -8.5      3.383      4.897
REMARK  Name = 
REMARK  5 active torsions:
REMARK  status: ('A' for Active; 'I' for Inactive)
REMARK    1  A    between atoms: N_1  and  C_2
REMARK    2  A    between atoms: C_2  and  C_3
REMARK    3  A    between atoms: C_7  and  C_8
REMARK    4  A    between atoms: C_12  and  C_13
REMARK    5  A    between atoms: C_17  and  C_18
REMARK                            x       y       z     vdW  Elec       q    Type
REMARK                         _______ _______ _______ _____ _____    ______ ____
ROOT
ATOM      1  C   UNL     1       4.651   5.577  16.959  0.00  0.00    +0.000 A 
ATOM      2  C   UNL     1       4.132   6.864  17.107  0.00  0.00    +0.000 A 
ATOM      3  C   UNL     1       3.256   7.177  18.148  0.00  0.00    +0.000 A 
ATOM      4  C   UNL     1       2.865   6.227  19.119  0.00  0.00    +0.000 A 
ATOM      5  C   UNL     1       1.950   6.496  20.186  0.00  0.00    +0.000 A 
ATOM      6  C   UNL     1       1.549   5.415  21.003  0.00  0.00    +0.000 A 
ATOM      7  C   UNL     1       2.083   4.141  20.851  0.00  0.00    +0.000 A 
ATOM      8  C   UNL     1       3.034   3.907  19.869  0.00  0.00    +0.000 A 
ATOM      9  C   UNL     1       3.407   4.922  18.980  0.00  0.00    +0.000 A 
ATOM     10  C   UNL     1       4.294   4.626  17.928  0.00  0.00    +0.000 A 
ENDROOT
BRANCH   1  15
ATOM     11  C   UNL     1       5.729   4.132  13.603  0.00  0.00    +0.000 A 
ATOM     12  C   UNL     1       7.096   4.428  13.613  0.00  0.00    +0.000 A 
ATOM     13  C   UNL     1       7.657   5.117  14.686  0.00  0.00    +0.000 A 
ATOM     14  C   UNL     1       6.860   5.503  15.766  0.00  0.00    +0.000 A 
ATOM     15  C   UNL     1       5.481   5.228  15.789  0.00  0.00    +0.000 A 
ATOM     16  C   UNL     1       4.939   4.545  14.689  0.00  0.00    +0.000 A 
BRANCH  11  17
ATOM     17  C   UNL     1       5.113   3.338  12.481  0.00  0.00    +0.000 C 
BRANCH  17  18
ATOM     18  N   UNL     1       6.059   2.381  11.918  0.00  0.00    +0.000 NA
ATOM     19  H   UNL     1       6.124   2.526  10.914  0.00  0.00    +0.000 HD
ATOM     20  H   UNL     1       5.691   1.440  12.056  0.00  0.00    +0.000 HD
ENDBRANCH  17  18
ENDBRANCH  11  17
ENDBRANCH   1  15
BRANCH   5  21
ATOM     21  C   UNL     1       1.408   7.851  20.488  0.00  0.00    +0.000 A 
ATOM     22  C   UNL     1       1.647   8.494  21.713  0.00  0.00    +0.000 A 
ATOM     23  C   UNL     1       1.150   9.770  21.971  0.00  0.00    +0.000 A 
ATOM     24  C   UNL     1       0.329  10.403  21.037  0.00  0.00    +0.000 A 
ATOM     25  C   UNL     1      -0.020   9.770  19.834  0.00  0.00    +0.000 A 
ATOM     26  C   UNL     1       0.569   8.515  19.572  0.00  0.00    +0.000 A 
BRANCH  25  27
ATOM     27  C   UNL     1      -0.998  10.361  18.889  0.00  0.00    +0.000 A 
ATOM     28  C   UNL     1      -1.194   9.832  17.600  0.00  0.00    +0.000 A 
ATOM     29  C   UNL     1      -2.176  10.337  16.741  0.00  0.00    +0.000 A 
ATOM     30  C   UNL     1      -2.979  11.396  17.149  0.00  0.00    +0.000 A 
ATOM     31  C   UNL     1      -2.801  11.947  18.413  0.00  0.00    +0.000 A 
ATOM     32  C   UNL     1      -1.829  11.428  19.275  0.00  0.00    +0.000 A 
ENDBRANCH  25  27
ENDBRANCH   5  21
TORSDOF 5
ENDMDL
