MODEL 1
REMARK VINA RESULT:      -7.6      0.000      0.000
REMARK  Name = 
REMARK  6 active torsions:
REMARK  status: ('A' for Active; 'I' for Inactive)
REMARK    1  A    between atoms: C_1  and  C_2
REMARK    2  A    between atoms: N_4  and  C_5
REMARK    3  A    between atoms: C_8  and  C_9
REMARK    4  A    between atoms: N_11  and  N_12
REMARK    5  A    between atoms: C_13  and  C_14
REMARK    6  A    between atoms: C_20  and  O_21
REMARK                            x       y       z     vdW  Elec       q    Type
REMARK                         _______ _______ _______ _____ _____    ______ ____
ROOT
ATOM      1  C   UNL     1       3.930   5.988  18.276  0.00  0.00    +0.000 C 
ATOM      2  O   UNL     1       4.189   5.576  19.403  0.00  0.00    +0.000 OA
ATOM      3  N   UNL     1       3.052   7.022  17.975  0.00  0.00    +0.000 N 
ATOM      4  H   UNL     1       2.978   7.393  17.035  0.00  0.00    +0.000 HD
ENDROOT
BRANCH   1   8
ATOM      5  C   UNL     1       5.890   4.203  14.871  0.00  0.00    +0.000 A 
ATOM      6  C   UNL     1       5.424   3.409  15.921  0.00  0.00    +0.000 A 
ATOM      7  C   UNL     1       4.796   3.978  17.033  0.00  0.00    +0.000 A 
ATOM      8  C   UNL     1       4.607   5.358  17.104  0.00  0.00    +0.000 A 
ATOM      9  C   UNL     1       5.102   6.168  16.073  0.00  0.00    +0.000 A 
ATOM     10  C   UNL     1       5.746   5.592  14.966  0.00  0.00    +0.000 A 
BRANCH   5  14
ATOM     11  C   UNL     1       6.833   2.679  11.549  0.00  0.00    +0.000 C 
ATOM     12  C   UNL     1       5.911   3.353  12.529  0.00  0.00    +0.000 C 
ATOM     13  O   UNL     1       4.741   3.572  12.228  0.00  0.00    +0.000 OA
ATOM     14  N   UNL     1       6.526   3.663  13.731  0.00  0.00    +0.000 N 
ATOM     15  H   UNL     1       7.534   3.569  13.776  0.00  0.00    +0.000 HD
ENDBRANCH   5  14
ENDBRANCH   1   8
BRANCH   3  16
ATOM     16  N   UNL     1       2.353   7.632  18.974  0.00  0.00    +0.000 NA
ATOM     17  C   UNL     1       1.697   8.699  18.643  0.00  0.00    +0.000 C 
BRANCH  17  18
ATOM     18  C   UNL     1       0.919   9.455  19.649  0.00  0.00    +0.000 A 
ATOM     19  C   UNL     1       0.964   9.060  20.992  0.00  0.00    +0.000 A 
ATOM     20  C   UNL     1       0.259   9.778  21.959  0.00  0.00    +0.000 A 
ATOM     21  C   UNL     1      -0.493  10.888  21.582  0.00  0.00    +0.000 A 
ATOM     22 BR   UNL     1      -1.431  11.871  22.897  0.00  0.00    +0.000 Br
ATOM     23  C   UNL     1      -0.552  11.290  20.245  0.00  0.00    +0.000 A 
ATOM     24  C   UNL     1       0.159  10.571  19.280  0.00  0.00    +0.000 A 
BRANCH  24  25
ATOM     25  O   UNL     1       0.116  10.968  17.972  0.00  0.00    +0.000 OA
ATOM     26  H   UNL     1       0.927  10.671  17.521  0.00  0.00    +0.000 HD
ENDBRANCH  24  25
ENDBRANCH  17  18
ENDBRANCH   3  16
TORSDOF 5
ENDMDL
MODEL 2
REMARK VINA RESULT:      -7.6      1.054      1.459
REMARK  Name = 
REMARK  6 active torsions:
REMARK  status: ('A' for Active; 'I' for Inactive)
REMARK    1  A    between atoms: C_1  and  C_2
REMARK    2  A    between atoms: N_4  and  C_5
REMARK    3  A    between atoms: C_8  and  C_9
REMARK    4  A    between atoms: N_11  and  N_12
REMARK    5  A    between atoms: C_13  and  C_14
REMARK    6  A    between atoms: C_20  and  O_21
REMARK                            x       y       z     vdW  Elec       q    Type
REMARK                         _______ _______ _______ _____ _____    ______ ____
ROOT
ATOM      1  C   UNL     1       3.959   5.938  18.229  0.00  0.00    +0.000 C 
ATOM      2  O   UNL     1       4.374   5.689  19.357  0.00  0.00    +0.000 OA
ATOM      3  N   UNL     1       2.895   6.778  17.925  0.00  0.00    +0.000 N 
ATOM      4  H   UNL     1       2.684   7.035  16.968  0.00  0.00    +0.000 HD
ENDROOT
BRANCH   1   8
ATOM      5  C   UNL     1       5.934   4.173  14.821  0.00  0.00    +0.000 A 
ATOM      6  C   UNL     1       5.436   3.370  15.850  0.00  0.00    +0.000 A 
ATOM      7  C   UNL     1       4.803   3.932  16.963  0.00  0.00    +0.000 A 
ATOM      8  C   UNL     1       4.642   5.315  17.056  0.00  0.00    +0.000 A 
ATOM      9  C   UNL     1       5.169   6.132  16.047  0.00  0.00    +0.000 A 
ATOM     10  C   UNL     1       5.817   5.563  14.939  0.00  0.00    +0.000 A 
BRANCH   5  14
ATOM     11  C   UNL     1       6.895   2.673  11.493  0.00  0.00    +0.000 C 
ATOM     12  C   UNL     1       5.968   3.343  12.472  0.00  0.00    +0.000 C 
ATOM     13  O   UNL     1       4.802   3.569  12.165  0.00  0.00    +0.000 OA
ATOM     14  N   UNL     1       6.576   3.640  13.682  0.00  0.00    +0.000 N 
ATOM     15  H   UNL     1       7.583   3.541  13.733  0.00  0.00    +0.000 HD
ENDBRANCH   5  14
ENDBRANCH   1   8
BRANCH   3  16
ATOM     16  N   UNL     1       2.182   7.360  18.930  0.00  0.00    +0.000 NA
ATOM     17  C   UNL     1       1.791   8.578  18.722  0.00  0.00    +0.000 C 
BRANCH  17  18
ATOM     18  C   UNL     1       1.028   9.317  19.750  0.00  0.00    +0.000 A 
ATOM     19  C   UNL     1       0.194  10.373  19.362  0.00  0.00    +0.000 A 
ATOM     20  C   UNL     1      -0.556  11.064  20.316  0.00  0.00    +0.000 A 
ATOM     21  C   UNL     1      -0.465  10.702  21.657  0.00  0.00    +0.000 A 
ATOM     22 BR   UNL     1      -1.497  11.626  22.945  0.00  0.00    +0.000 Br
ATOM     23  C   UNL     1       0.368   9.656  22.060  0.00  0.00    +0.000 A 
ATOM     24  C   UNL     1       1.113   8.963  21.102  0.00  0.00    +0.000 A 
BRANCH  24  25
ATOM     25  O   UNL     1       1.920   7.929  21.489  0.00  0.00    +0.000 OA
ATOM     26  H   UNL     1       1.457   7.087  21.331  0.00  0.00    +0.000 HD
ENDBRANCH  24  25
ENDBRANCH  17  18
ENDBRANCH   3  16
TORSDOF 5
ENDMDL
MODEL 3
REMARK VINA RESULT:      -7.6      0.128      1.012
REMARK  Name = 
REMARK  6 active torsions:
REMARK  status: ('A' for Active; 'I' for Inactive)
REMARK    1  A    between atoms: C_1  and  C_2
REMARK    2  A    between atoms: N_4  and  C_5
REMARK    3  A    between atoms: C_8  and  C_9
REMARK    4  A    between atoms: N_11  and  N_12
REMARK    5  A    between atoms: C_13  and  C_14
REMARK    6  A    between atoms: C_20  and  O_21
REMARK                            x       y       z     vdW  Elec       q    Type
REMARK                         _______ _______ _______ _____ _____    ______ ____
ROOT
ATOM      1  C   UNL     1       3.958   6.032  18.208  0.00  0.00    +0.000 C 
ATOM      2  O   UNL     1       4.283   5.649  19.328  0.00  0.00    +0.000 OA
ATOM      3  N   UNL     1       3.009   7.009  17.931  0.00  0.00    +0.000 N 
ATOM      4  H   UNL     1       2.878   7.363  16.991  0.00  0.00    +0.000 HD
ENDROOT
BRANCH   1   8
ATOM      5  C   UNL     1       5.891   4.258  14.782  0.00  0.00    +0.000 A 
ATOM      6  C   UNL     1       5.742   5.642  14.877  0.00  0.00    +0.000 A 
ATOM      7  C   UNL     1       5.109   6.227  15.978  0.00  0.00    +0.000 A 
ATOM      8  C   UNL     1       4.627   5.430  17.017  0.00  0.00    +0.000 A 
ATOM      9  C   UNL     1       4.740   4.037  16.915  0.00  0.00    +0.000 A 
ATOM     10  C   UNL     1       5.364   3.455  15.800  0.00  0.00    +0.000 A 
BRANCH   5  14
ATOM     11  C   UNL     1       6.838   2.529  11.563  0.00  0.00    +0.000 C 
ATOM     12  C   UNL     1       5.926   3.293  12.485  0.00  0.00    +0.000 C 
ATOM     13  O   UNL     1       4.776   3.552  12.144  0.00  0.00    +0.000 OA
ATOM     14  N   UNL     1       6.527   3.633  13.687  0.00  0.00    +0.000 N 
ATOM     15  H   UNL     1       7.528   3.493  13.761  0.00  0.00    +0.000 HD
ENDBRANCH   5  14
ENDBRANCH   1   8
BRANCH   3  16
ATOM     16  N   UNL     1       2.313   7.587  18.950  0.00  0.00    +0.000 NA
ATOM     17  C   UNL     1       1.677   8.679  18.661  0.00  0.00    +0.000 C 
BRANCH  17  18
ATOM     18  C   UNL     1       0.905   9.404  19.693  0.00  0.00    +0.000 A 
ATOM     19  C   UNL     1       1.046   9.042  21.038  0.00  0.00    +0.000 A 
ATOM     20  C   UNL     1       0.347   9.734  22.029  0.00  0.00    +0.000 A 
ATOM     21  C   UNL     1      -0.496  10.784  21.672  0.00  0.00    +0.000 A 
ATOM     22 BR   UNL     1      -1.427  11.733  23.017  0.00  0.00    +0.000 Br
ATOM     23  C   UNL     1      -0.651  11.152  20.333  0.00  0.00    +0.000 A 
ATOM     24  C   UNL     1       0.054  10.460  19.345  0.00  0.00    +0.000 A 
BRANCH  24  25
ATOM     25  O   UNL     1      -0.083  10.825  18.034  0.00  0.00    +0.000 OA
ATOM     26  H   UNL     1      -0.774  10.277  17.620  0.00  0.00    +0.000 HD
ENDBRANCH  24  25
ENDBRANCH  17  18
ENDBRANCH   3  16
TORSDOF 5
ENDMDL
MODEL 4
REMARK VINA RESULT:      -7.5      1.064      1.776
REMARK  Name = 
REMARK  6 active torsions:
REMARK  status: ('A' for Active; 'I' for Inactive)
REMARK    1  A    between atoms: C_1  and  C_2
REMARK    2  A    between atoms: N_4  and  C_5
REMARK    3  A    between atoms: C_8  and  C_9
REMARK    4  A    between atoms: N_11  and  N_12
REMARK    5  A    between atoms: C_13  and  C_14
REMARK    6  A    between atoms: C_20  and  O_21
REMARK                            x       y       z     vdW  Elec       q    Type
REMARK                         _______ _______ _______ _____ _____    ______ ____
ROOT
ATOM      1  C   UNL     1       3.737   5.987  18.376  0.00  0.00    +0.000 C 
ATOM      2  O   UNL     1       3.914   5.463  19.472  0.00  0.00    +0.000 OA
ATOM      3  N   UNL     1       2.925   7.087  18.127  0.00  0.00    +0.000 N 
ATOM      4  H   UNL     1       2.921   7.544  17.223  0.00  0.00    +0.000 HD
ENDROOT
BRANCH   1   8
ATOM      5  C   UNL     1       5.796   4.348  14.956  0.00  0.00    +0.000 A 
ATOM      6  C   UNL     1       5.635   5.728  15.095  0.00  0.00    +0.000 A 
ATOM      7  C   UNL     1       4.961   6.269  16.195  0.00  0.00    +0.000 A 
ATOM      8  C   UNL     1       4.450   5.432  17.187  0.00  0.00    +0.000 A 
ATOM      9  C   UNL     1       4.575   4.045  17.039  0.00  0.00    +0.000 A 
ATOM     10  C   UNL     1       5.239   3.506  15.926  0.00  0.00    +0.000 A 
BRANCH   5  14
ATOM     11  C   UNL     1       6.858   2.706  11.727  0.00  0.00    +0.000 C 
ATOM     12  C   UNL     1       5.902   3.418  12.647  0.00  0.00    +0.000 C 
ATOM     13  O   UNL     1       4.746   3.631  12.294  0.00  0.00    +0.000 OA
ATOM     14  N   UNL     1       6.472   3.767  13.861  0.00  0.00    +0.000 N 
ATOM     15  H   UNL     1       7.477   3.669  13.947  0.00  0.00    +0.000 HD
ENDBRANCH   5  14
ENDBRANCH   1   8
BRANCH   3  16
ATOM     16  N   UNL     1       2.200   7.638  19.141  0.00  0.00    +0.000 NA
ATOM     17  C   UNL     1       1.670   8.796  18.901  0.00  0.00    +0.000 C 
BRANCH  17  18
ATOM     18  C   UNL     1       0.879   9.499  19.934  0.00  0.00    +0.000 A 
ATOM     19  C   UNL     1      -0.008  10.513  19.550  0.00  0.00    +0.000 A 
ATOM     20  C   UNL     1      -0.784  11.168  20.508  0.00  0.00    +0.000 A 
ATOM     21  C   UNL     1      -0.667  10.811  21.849  0.00  0.00    +0.000 A 
ATOM     22 BR   UNL     1      -1.734  11.686  23.143  0.00  0.00    +0.000 Br
ATOM     23  C   UNL     1       0.217   9.807  22.247  0.00  0.00    +0.000 A 
ATOM     24  C   UNL     1       0.989   9.150  21.285  0.00  0.00    +0.000 A 
BRANCH  24  25
ATOM     25  O   UNL     1       1.847   8.155  21.667  0.00  0.00    +0.000 OA
ATOM     26  H   UNL     1       1.680   7.364  21.125  0.00  0.00    +0.000 HD
ENDBRANCH  24  25
ENDBRANCH  17  18
ENDBRANCH   3  16
TORSDOF 5
ENDMDL
MODEL 5
REMARK VINA RESULT:      -7.3      7.009      9.378
REMARK  Name = 
REMARK  6 active torsions:
REMARK  status: ('A' for Active; 'I' for Inactive)
REMARK    1  A    between atoms: C_1  and  C_2
REMARK    2  A    between atoms: N_4  and  C_5
REMARK    3  A    between atoms: C_8  and  C_9
REMARK    4  A    between atoms: N_11  and  N_12
REMARK    5  A    between atoms: C_13  and  C_14
REMARK    6  A    between atoms: C_20  and  O_21
REMARK                            x       y       z     vdW  Elec       q    Type
REMARK                         _______ _______ _______ _____ _____    ______ ____
ROOT
ATOM      1  C   UNL     1       8.567   9.227  18.245  0.00  0.00    +0.000 C 
ATOM      2  O   UNL     1       8.935   8.665  19.272  0.00  0.00    +0.000 OA
ATOM      3  N   UNL     1       7.707   8.692  17.294  0.00  0.00    +0.000 N 
ATOM      4  H   UNL     1       7.347   9.257  16.533  0.00  0.00    +0.000 HD
ENDROOT
BRANCH   1   8
ATOM      5  C   UNL     1       9.930  13.240  17.433  0.00  0.00    +0.000 A 
ATOM      6  C   UNL     1      10.841  12.227  17.737  0.00  0.00    +0.000 A 
ATOM      7  C   UNL     1      10.410  10.926  18.011  0.00  0.00    +0.000 A 
ATOM      8  C   UNL     1       9.051  10.612  17.967  0.00  0.00    +0.000 A 
ATOM      9  C   UNL     1       8.125  11.629  17.699  0.00  0.00    +0.000 A 
ATOM     10  C   UNL     1       8.563  12.937  17.439  0.00  0.00    +0.000 A 
BRANCH   5  14
ATOM     11  C   UNL     1      10.860  16.899  17.462  0.00  0.00    +0.000 C 
ATOM     12  C   UNL     1      10.566  15.560  18.084  0.00  0.00    +0.000 C 
ATOM     13  O   UNL     1      10.549  15.435  19.305  0.00  0.00    +0.000 OA
ATOM     14  N   UNL     1      10.330  14.565  17.149  0.00  0.00    +0.000 N 
ATOM     15  H   UNL     1      10.536  14.780  16.180  0.00  0.00    +0.000 HD
ENDBRANCH   5  14
ENDBRANCH   1   8
BRANCH   3  16
ATOM     16  N   UNL     1       7.245   7.418  17.437  0.00  0.00    +0.000 NA
ATOM     17  C   UNL     1       5.974   7.293  17.661  0.00  0.00    +0.000 C 
BRANCH  17  18
ATOM     18  C   UNL     1       5.364   5.960  17.853  0.00  0.00    +0.000 A 
ATOM     19  C   UNL     1       4.358   5.531  16.979  0.00  0.00    +0.000 A 
ATOM     20  C   UNL     1       3.790   4.264  17.128  0.00  0.00    +0.000 A 
ATOM     21  C   UNL     1       4.226   3.431  18.155  0.00  0.00    +0.000 A 
ATOM     22 BR   UNL     1       3.469   1.708  18.343  0.00  0.00    +0.000 Br
ATOM     23  C   UNL     1       5.223   3.848  19.039  0.00  0.00    +0.000 A 
ATOM     24  C   UNL     1       5.793   5.115  18.884  0.00  0.00    +0.000 A 
BRANCH  24  25
ATOM     25  O   UNL     1       6.780   5.523  19.738  0.00  0.00    +0.000 OA
ATOM     26  H   UNL     1       7.208   6.319  19.374  0.00  0.00    +0.000 HD
ENDBRANCH  24  25
ENDBRANCH  17  18
ENDBRANCH   3  16
TORSDOF 5
ENDMDL
MODEL 6
REMARK VINA RESULT:      -7.3      7.009      9.400
REMARK  Name = 
REMARK  6 active torsions:
REMARK  status: ('A' for Active; 'I' for Inactive)
REMARK    1  A    between atoms: C_1  and  C_2
REMARK    2  A    between atoms: N_4  and  C_5
REMARK    3  A    between atoms: C_8  and  C_9
REMARK    4  A    between atoms: N_11  and  N_12
REMARK    5  A    between atoms: C_13  and  C_14
REMARK    6  A    between atoms: C_20  and  O_21
REMARK                            x       y       z     vdW  Elec       q    Type
REMARK                         _______ _______ _______ _____ _____    ______ ____
ROOT
ATOM      1  C   UNL     1       8.562   9.286  18.274  0.00  0.00    +0.000 C 
ATOM      2  O   UNL     1       8.902   8.752  19.326  0.00  0.00    +0.000 OA
ATOM      3  N   UNL     1       7.737   8.720  17.310  0.00  0.00    +0.000 N 
ATOM      4  H   UNL     1       7.397   9.262  16.524  0.00  0.00    +0.000 HD
ENDROOT
BRANCH   1   8
ATOM      5  C   UNL     1       9.993  13.267  17.423  0.00  0.00    +0.000 A 
ATOM      6  C   UNL     1       8.625  12.994  17.453  0.00  0.00    +0.000 A 
ATOM      7  C   UNL     1       8.150  11.706  17.719  0.00  0.00    +0.000 A 
ATOM      8  C   UNL     1       9.045  10.667  17.977  0.00  0.00    +0.000 A 
ATOM      9  C   UNL     1      10.421  10.922  17.913  0.00  0.00    +0.000 A 
ATOM     10  C   UNL     1      10.892  12.214  17.631  0.00  0.00    +0.000 A 
BRANCH   5  14
ATOM     11  C   UNL     1      10.984  16.910  17.406  0.00  0.00    +0.000 C 
ATOM     12  C   UNL     1      10.458  15.640  18.022  0.00  0.00    +0.000 C 
ATOM     13  O   UNL     1      10.039  15.639  19.175  0.00  0.00    +0.000 OA
ATOM     14  N   UNL     1      10.508  14.556  17.160  0.00  0.00    +0.000 N 
ATOM     15  H   UNL     1      11.027  14.671  16.297  0.00  0.00    +0.000 HD
ENDBRANCH   5  14
ENDBRANCH   1   8
BRANCH   3  16
ATOM     16  N   UNL     1       7.280   7.446  17.471  0.00  0.00    +0.000 NA
ATOM     17  C   UNL     1       6.000   7.313  17.625  0.00  0.00    +0.000 C 
BRANCH  17  18
ATOM     18  C   UNL     1       5.393   5.980  17.828  0.00  0.00    +0.000 A 
ATOM     19  C   UNL     1       4.398   5.536  16.949  0.00  0.00    +0.000 A 
ATOM     20  C   UNL     1       3.834   4.268  17.109  0.00  0.00    +0.000 A 
ATOM     21  C   UNL     1       4.263   3.450  18.151  0.00  0.00    +0.000 A 
ATOM     22 BR   UNL     1       3.511   1.726  18.353  0.00  0.00    +0.000 Br
ATOM     23  C   UNL     1       5.250   3.883  19.039  0.00  0.00    +0.000 A 
ATOM     24  C   UNL     1       5.815   5.150  18.873  0.00  0.00    +0.000 A 
BRANCH  24  25
ATOM     25  O   UNL     1       6.793   5.573  19.732  0.00  0.00    +0.000 OA
ATOM     26  H   UNL     1       7.664   5.364  19.352  0.00  0.00    +0.000 HD
ENDBRANCH  24  25
ENDBRANCH  17  18
ENDBRANCH   3  16
TORSDOF 5
ENDMDL
MODEL 7
REMARK VINA RESULT:      -7.2      4.357      9.793
REMARK  Name = 
REMARK  6 active torsions:
REMARK  status: ('A' for Active; 'I' for Inactive)
REMARK    1  A    between atoms: C_1  and  C_2
REMARK    2  A    between atoms: N_4  and  C_5
REMARK    3  A    between atoms: C_8  and  C_9
REMARK    4  A    between atoms: N_11  and  N_12
REMARK    5  A    between atoms: C_13  and  C_14
REMARK    6  A    between atoms: C_20  and  O_21
REMARK                            x       y       z     vdW  Elec       q    Type
REMARK                         _______ _______ _______ _____ _____    ______ ____
ROOT
ATOM      1  C   UNL     1       0.407   9.861  18.661  0.00  0.00    +0.000 C 
ATOM      2  O   UNL     1       0.911   9.858  19.780  0.00  0.00    +0.000 OA
ATOM      3  N   UNL     1       0.982   9.327  17.513  0.00  0.00    +0.000 N 
ATOM      4  H   UNL     1       0.459   9.253  16.649  0.00  0.00    +0.000 HD
ENDROOT
BRANCH   1   8
ATOM      5  C   UNL     1      -3.496  11.636  18.171  0.00  0.00    +0.000 A 
ATOM      6  C   UNL     1      -3.027  10.686  17.262  0.00  0.00    +0.000 A 
ATOM      7  C   UNL     1      -1.760  10.111  17.406  0.00  0.00    +0.000 A 
ATOM      8  C   UNL     1      -0.945  10.468  18.479  0.00  0.00    +0.000 A 
ATOM      9  C   UNL     1      -1.390  11.447  19.378  0.00  0.00    +0.000 A 
ATOM     10  C   UNL     1      -2.657  12.031  19.220  0.00  0.00    +0.000 A 
BRANCH   5  14
ATOM     11  C   UNL     1      -7.169  12.476  17.947  0.00  0.00    +0.000 C 
ATOM     12  C   UNL     1      -5.985  11.601  18.262  0.00  0.00    +0.000 C 
ATOM     13  O   UNL     1      -6.153  10.449  18.650  0.00  0.00    +0.000 OA
ATOM     14  N   UNL     1      -4.770  12.235  18.059  0.00  0.00    +0.000 N 
ATOM     15  H   UNL     1      -4.789  13.234  17.892  0.00  0.00    +0.000 HD
ENDBRANCH   5  14
ENDBRANCH   1   8
BRANCH   3  16
ATOM     16  N   UNL     1       2.232   8.788  17.569  0.00  0.00    +0.000 NA
ATOM     17  C   UNL     1       2.296   7.516  17.815  0.00  0.00    +0.000 C 
BRANCH  17  18
ATOM     18  C   UNL     1       3.600   6.827  17.919  0.00  0.00    +0.000 A 
ATOM     19  C   UNL     1       4.541   6.977  16.892  0.00  0.00    +0.000 A 
ATOM     20  C   UNL     1       5.789   6.357  16.986  0.00  0.00    +0.000 A 
ATOM     21  C   UNL     1       6.090   5.584  18.104  0.00  0.00    +0.000 A 
ATOM     22 BR   UNL     1       7.788   4.761  18.238  0.00  0.00    +0.000 Br
ATOM     23  C   UNL     1       5.160   5.419  19.132  0.00  0.00    +0.000 A 
ATOM     24  C   UNL     1       3.914   6.045  19.037  0.00  0.00    +0.000 A 
BRANCH  24  25
ATOM     25  O   UNL     1       3.003   5.900  20.047  0.00  0.00    +0.000 OA
ATOM     26  H   UNL     1       2.175   5.541  19.682  0.00  0.00    +0.000 HD
ENDBRANCH  24  25
ENDBRANCH  17  18
ENDBRANCH   3  16
TORSDOF 5
ENDMDL
MODEL 8
REMARK VINA RESULT:      -7.2      4.349      9.811
REMARK  Name = 
REMARK  6 active torsions:
REMARK  status: ('A' for Active; 'I' for Inactive)
REMARK    1  A    between atoms: C_1  and  C_2
REMARK    2  A    between atoms: N_4  and  C_5
REMARK    3  A    between atoms: C_8  and  C_9
REMARK    4  A    between atoms: N_11  and  N_12
REMARK    5  A    between atoms: C_13  and  C_14
REMARK    6  A    between atoms: C_20  and  O_21
REMARK                            x       y       z     vdW  Elec       q    Type
REMARK                         _______ _______ _______ _____ _____    ______ ____
ROOT
ATOM      1  C   UNL     1       0.334   9.793  18.788  0.00  0.00    +0.000 C 
ATOM      2  O   UNL     1       0.745   9.568  19.923  0.00  0.00    +0.000 OA
ATOM      3  N   UNL     1       0.999   9.476  17.610  0.00  0.00    +0.000 N 
ATOM      4  H   UNL     1       0.549   9.579  16.708  0.00  0.00    +0.000 HD
ENDROOT
BRANCH   1   8
ATOM      5  C   UNL     1      -3.517  11.668  18.267  0.00  0.00    +0.000 A 
ATOM      6  C   UNL     1      -2.681  12.041  19.320  0.00  0.00    +0.000 A 
ATOM      7  C   UNL     1      -1.435  11.434  19.504  0.00  0.00    +0.000 A 
ATOM      8  C   UNL     1      -0.997  10.448  18.620  0.00  0.00    +0.000 A 
ATOM      9  C   UNL     1      -1.843  10.040  17.580  0.00  0.00    +0.000 A 
ATOM     10  C   UNL     1      -3.099  10.643  17.409  0.00  0.00    +0.000 A 
BRANCH   5  14
ATOM     11  C   UNL     1      -7.167  12.497  17.775  0.00  0.00    +0.000 C 
ATOM     12  C   UNL     1      -6.008  11.636  18.200  0.00  0.00    +0.000 C 
ATOM     13  O   UNL     1      -6.203  10.501  18.625  0.00  0.00    +0.000 OA
ATOM     14  N   UNL     1      -4.780  12.261  18.049  0.00  0.00    +0.000 N 
ATOM     15  H   UNL     1      -4.787  13.252  17.839  0.00  0.00    +0.000 HD
ENDBRANCH   5  14
ENDBRANCH   1   8
BRANCH   3  16
ATOM     16  N   UNL     1       2.239   8.914  17.661  0.00  0.00    +0.000 NA
ATOM     17  C   UNL     1       2.277   7.624  17.781  0.00  0.00    +0.000 C 
BRANCH  17  18
ATOM     18  C   UNL     1       3.568   6.906  17.867  0.00  0.00    +0.000 A 
ATOM     19  C   UNL     1       4.499   7.039  16.829  0.00  0.00    +0.000 A 
ATOM     20  C   UNL     1       5.733   6.392  16.906  0.00  0.00    +0.000 A 
ATOM     21  C   UNL     1       6.032   5.609  18.018  0.00  0.00    +0.000 A 
ATOM     22 BR   UNL     1       7.713   4.749  18.129  0.00  0.00    +0.000 Br
ATOM     23  C   UNL     1       5.111   5.462  19.057  0.00  0.00    +0.000 A 
ATOM     24  C   UNL     1       3.878   6.115  18.979  0.00  0.00    +0.000 A 
BRANCH  24  25
ATOM     25  O   UNL     1       2.977   5.987  20.001  0.00  0.00    +0.000 OA
ATOM     26  H   UNL     1       2.129   6.381  19.730  0.00  0.00    +0.000 HD
ENDBRANCH  24  25
ENDBRANCH  17  18
ENDBRANCH   3  16
TORSDOF 5
ENDMDL
MODEL 9
REMARK VINA RESULT:      -7.1      7.210      9.484
REMARK  Name = 
REMARK  6 active torsions:
REMARK  status: ('A' for Active; 'I' for Inactive)
REMARK    1  A    between atoms: C_1  and  C_2
REMARK    2  A    between atoms: N_4  and  C_5
REMARK    3  A    between atoms: C_8  and  C_9
REMARK    4  A    between atoms: N_11  and  N_12
REMARK    5  A    between atoms: C_13  and  C_14
REMARK    6  A    between atoms: C_20  and  O_21
REMARK                            x       y       z     vdW  Elec       q    Type
REMARK                         _______ _______ _______ _____ _____    ______ ____
ROOT
ATOM      1  C   UNL     1       8.648   9.481  18.287  0.00  0.00    +0.000 C 
ATOM      2  O   UNL     1       8.914   8.963  19.368  0.00  0.00    +0.000 OA
ATOM      3  N   UNL     1       7.837   8.927  17.303  0.00  0.00    +0.000 N 
ATOM      4  H   UNL     1       7.560   9.461  16.488  0.00  0.00    +0.000 HD
ENDROOT
BRANCH   1   8
ATOM      5  C   UNL     1      10.244  13.384  17.371  0.00  0.00    +0.000 A 
ATOM      6  C   UNL     1      11.097  12.302  17.601  0.00  0.00    +0.000 A 
ATOM      7  C   UNL     1      10.590  11.035  17.908  0.00  0.00    +0.000 A 
ATOM      8  C   UNL     1       9.213  10.826  17.972  0.00  0.00    +0.000 A 
ATOM      9  C   UNL     1       8.349  11.912  17.778  0.00  0.00    +0.000 A 
ATOM     10  C   UNL     1       8.864  13.185  17.485  0.00  0.00    +0.000 A 
BRANCH   5  14
ATOM     11  C   UNL     1      11.422  16.970  17.323  0.00  0.00    +0.000 C 
ATOM     12  C   UNL     1      11.066  15.658  17.971  0.00  0.00    +0.000 C 
ATOM     13  O   UNL     1      11.096  15.542  19.192  0.00  0.00    +0.000 OA
ATOM     14  N   UNL     1      10.720  14.676  17.057  0.00  0.00    +0.000 N 
ATOM     15  H   UNL     1      10.896  14.869  16.077  0.00  0.00    +0.000 HD
ENDBRANCH   5  14
ENDBRANCH   1   8
BRANCH   3  16
ATOM     16  N   UNL     1       7.309   7.683  17.480  0.00  0.00    +0.000 NA
ATOM     17  C   UNL     1       6.075   7.529  17.114  0.00  0.00    +0.000 C 
BRANCH  17  18
ATOM     18  C   UNL     1       5.391   6.228  17.278  0.00  0.00    +0.000 A 
ATOM     19  C   UNL     1       4.245   6.150  18.079  0.00  0.00    +0.000 A 
ATOM     20  C   UNL     1       3.569   4.936  18.222  0.00  0.00    +0.000 A 
ATOM     21  C   UNL     1       4.045   3.802  17.569  0.00  0.00    +0.000 A 
ATOM     22 BR   UNL     1       3.117   2.164  17.749  0.00  0.00    +0.000 Br
ATOM     23  C   UNL     1       5.190   3.864  16.773  0.00  0.00    +0.000 A 
ATOM     24  C   UNL     1       5.861   5.081  16.627  0.00  0.00    +0.000 A 
BRANCH  24  25
ATOM     25  O   UNL     1       6.976   5.151  15.837  0.00  0.00    +0.000 OA
ATOM     26  H   UNL     1       7.548   4.385  16.024  0.00  0.00    +0.000 HD
ENDBRANCH  24  25
ENDBRANCH  17  18
ENDBRANCH   3  16
TORSDOF 5
ENDMDL
