MODEL 1
REMARK VINA RESULT:      -7.7      0.000      0.000
REMARK  Name = 
REMARK  8 active torsions:
REMARK  status: ('A' for Active; 'I' for Inactive)
REMARK    1  A    between atoms: C_1  and  O_2
REMARK    2  A    between atoms: O_2  and  C_3
REMARK    3  A    between atoms: C_5  and  O_6
REMARK    4  A    between atoms: O_6  and  C_7
REMARK    5  A    between atoms: C_9  and  N_10
REMARK    6  A    between atoms: C_15  and  C_17
REMARK    7  A    between atoms: C_19  and  C_20
REMARK    8  A    between atoms: C_22  and  C_23
REMARK                            x       y       z     vdW  Elec       q    Type
REMARK                         _______ _______ _______ _____ _____    ______ ____
ROOT
ATOM      1  N   UNL     1       2.416   6.892  19.349  0.00  0.00    +0.000 N 
ATOM      2  C   UNL     1       3.205   6.069  20.278  0.00  0.00    +0.000 C 
ATOM      3  C   UNL     1       2.602   4.678  20.390  0.00  0.00    +0.000 C 
ATOM      4  C   UNL     1       2.380   3.924  19.082  0.00  0.00    +0.000 C 
ATOM      5  N   UNL     1       3.137   4.402  17.925  0.00  0.00    +0.000 N 
ATOM      6  C   UNL     1       4.359   3.780  17.605  0.00  0.00    +0.000 C 
ATOM      7  O   UNL     1       4.791   2.869  18.314  0.00  0.00    +0.000 OA
ATOM      8  C   UNL     1       2.572   5.582  17.251  0.00  0.00    +0.000 C 
ATOM      9  C   UNL     1       2.924   6.901  17.957  0.00  0.00    +0.000 C 
ENDROOT
BRANCH   1  14
ATOM     10  C   UNL     1       0.912   9.443  21.598  0.00  0.00    +0.000 A 
ATOM     11  C   UNL     1       0.565  10.435  20.681  0.00  0.00    +0.000 A 
ATOM     12  C   UNL     1       0.818  10.256  19.325  0.00  0.00    +0.000 A 
ATOM     13  C   UNL     1       1.466   9.099  18.895  0.00  0.00    +0.000 A 
ATOM     14  C   UNL     1       1.812   8.074  19.778  0.00  0.00    +0.000 A 
ATOM     15  C   UNL     1       1.529   8.272  21.142  0.00  0.00    +0.000 A 
BRANCH  10  17
ATOM     16  C   UNL     1      -0.762  10.112  23.156  0.00  0.00    +0.000 C 
ATOM     17  O   UNL     1       0.581   9.729  22.895  0.00  0.00    +0.000 OA
ENDBRANCH  10  17
BRANCH  12  18
ATOM     18  O   UNL     1       0.407  11.255  18.483  0.00  0.00    +0.000 OA
ATOM     19  C   UNL     1      -0.736  11.979  18.939  0.00  0.00    +0.000 C 
ENDBRANCH  12  18
ENDBRANCH   1  14
BRANCH   6  20
ATOM     20  C   UNL     1       5.078   4.208  16.417  0.00  0.00    +0.000 A 
ATOM     21  O   UNL     1       4.812   3.627  15.194  0.00  0.00    +0.000 OA
ATOM     22  C   UNL     1       5.656   4.246  14.321  0.00  0.00    +0.000 A 
ATOM     23  C   UNL     1       5.673   3.740  12.934  0.00  0.00    +0.000 C 
ATOM     24  N   UNL     1       6.375   5.203  14.844  0.00  0.00    +0.000 NA
ATOM     25  C   UNL     1       6.035   5.186  16.186  0.00  0.00    +0.000 A 
BRANCH  25  26
ATOM     26  C   UNL     1       6.723   6.039  17.139  0.00  0.00    +0.000 A 
ATOM     27  C   UNL     1       6.749   7.425  16.921  0.00  0.00    +0.000 A 
ATOM     28  C   UNL     1       7.540   8.259  17.717  0.00  0.00    +0.000 A 
ATOM     29  C   UNL     1       8.304   7.717  18.749  0.00  0.00    +0.000 A 
ATOM     30  C   UNL     1       8.257   6.347  19.001  0.00  0.00    +0.000 A 
ATOM     31  C   UNL     1       7.478   5.519  18.195  0.00  0.00    +0.000 A 
ATOM     32  F   UNL     1       7.547   4.197  18.412  0.00  0.00    +0.000 F 
ENDBRANCH  25  26
ENDBRANCH   6  20
TORSDOF 5
ENDMDL
MODEL 2
REMARK VINA RESULT:      -7.7      0.123      1.856
REMARK  Name = 
REMARK  8 active torsions:
REMARK  status: ('A' for Active; 'I' for Inactive)
REMARK    1  A    between atoms: C_1  and  O_2
REMARK    2  A    between atoms: O_2  and  C_3
REMARK    3  A    between atoms: C_5  and  O_6
REMARK    4  A    between atoms: O_6  and  C_7
REMARK    5  A    between atoms: C_9  and  N_10
REMARK    6  A    between atoms: C_15  and  C_17
REMARK    7  A    between atoms: C_19  and  C_20
REMARK    8  A    between atoms: C_22  and  C_23
REMARK                            x       y       z     vdW  Elec       q    Type
REMARK                         _______ _______ _______ _____ _____    ______ ____
ROOT
ATOM      1  N   UNL     1       2.472   6.781  19.360  0.00  0.00    +0.000 N 
ATOM      2  C   UNL     1       3.267   5.947  20.276  0.00  0.00    +0.000 C 
ATOM      3  C   UNL     1       2.672   4.551  20.364  0.00  0.00    +0.000 C 
ATOM      4  C   UNL     1       2.454   3.818  19.044  0.00  0.00    +0.000 C 
ATOM      5  N   UNL     1       3.207   4.319  17.894  0.00  0.00    +0.000 N 
ATOM      6  C   UNL     1       4.432   3.711  17.563  0.00  0.00    +0.000 C 
ATOM      7  O   UNL     1       4.870   2.790  18.256  0.00  0.00    +0.000 OA
ATOM      8  C   UNL     1       2.635   5.507  17.241  0.00  0.00    +0.000 C 
ATOM      9  C   UNL     1       2.979   6.817  17.969  0.00  0.00    +0.000 C 
ENDROOT
BRANCH   1  14
ATOM     10  C   UNL     1       0.980  10.187  19.338  0.00  0.00    +0.000 A 
ATOM     11  C   UNL     1       0.660  10.346  20.687  0.00  0.00    +0.000 A 
ATOM     12  C   UNL     1       0.946   9.336  21.599  0.00  0.00    +0.000 A 
ATOM     13  C   UNL     1       1.510   8.143  21.148  0.00  0.00    +0.000 A 
ATOM     14  C   UNL     1       1.862   7.952  19.811  0.00  0.00    +0.000 A 
ATOM     15  C   UNL     1       1.578   8.996  18.911  0.00  0.00    +0.000 A 
BRANCH  10  17
ATOM     16  C   UNL     1      -0.483  12.014  18.894  0.00  0.00    +0.000 C 
ATOM     17  O   UNL     1       0.675  11.265  18.552  0.00  0.00    +0.000 OA
ENDBRANCH  10  17
BRANCH  12  18
ATOM     18  O   UNL     1       0.643   9.586  22.912  0.00  0.00    +0.000 OA
ATOM     19  C   UNL     1      -0.684  10.062  23.131  0.00  0.00    +0.000 C 
ENDBRANCH  12  18
ENDBRANCH   1  14
BRANCH   6  20
ATOM     20  C   UNL     1       5.148   4.163  16.382  0.00  0.00    +0.000 A 
ATOM     21  O   UNL     1       4.894   3.592  15.152  0.00  0.00    +0.000 OA
ATOM     22  C   UNL     1       5.731   4.233  14.288  0.00  0.00    +0.000 A 
ATOM     23  C   UNL     1       5.759   3.743  12.895  0.00  0.00    +0.000 C 
ATOM     24  N   UNL     1       6.434   5.195  14.824  0.00  0.00    +0.000 NA
ATOM     25  C   UNL     1       6.091   5.158  16.165  0.00  0.00    +0.000 A 
BRANCH  25  26
ATOM     26  C   UNL     1       6.763   6.010  17.130  0.00  0.00    +0.000 A 
ATOM     27  C   UNL     1       6.783   7.397  16.918  0.00  0.00    +0.000 A 
ATOM     28  C   UNL     1       7.561   8.232  17.727  0.00  0.00    +0.000 A 
ATOM     29  C   UNL     1       8.317   7.689  18.764  0.00  0.00    +0.000 A 
ATOM     30  C   UNL     1       8.274   6.319  19.009  0.00  0.00    +0.000 A 
ATOM     31  C   UNL     1       7.509   5.490  18.191  0.00  0.00    +0.000 A 
ATOM     32  F   UNL     1       7.584   4.167  18.402  0.00  0.00    +0.000 F 
ENDBRANCH  25  26
ENDBRANCH   6  20
TORSDOF 5
ENDMDL
MODEL 3
REMARK VINA RESULT:      -7.4      3.408      8.617
REMARK  Name = 
REMARK  8 active torsions:
REMARK  status: ('A' for Active; 'I' for Inactive)
REMARK    1  A    between atoms: C_1  and  O_2
REMARK    2  A    between atoms: O_2  and  C_3
REMARK    3  A    between atoms: C_5  and  O_6
REMARK    4  A    between atoms: O_6  and  C_7
REMARK    5  A    between atoms: C_9  and  N_10
REMARK    6  A    between atoms: C_15  and  C_17
REMARK    7  A    between atoms: C_19  and  C_20
REMARK    8  A    between atoms: C_22  and  C_23
REMARK                            x       y       z     vdW  Elec       q    Type
REMARK                         _______ _______ _______ _____ _____    ______ ____
ROOT
ATOM      1  N   UNL     1       2.452   7.487  19.094  0.00  0.00    +0.000 N 
ATOM      2  C   UNL     1       1.551   7.020  20.160  0.00  0.00    +0.000 C 
ATOM      3  C   UNL     1       1.718   7.882  21.402  0.00  0.00    +0.000 C 
ATOM      4  C   UNL     1       1.567   9.389  21.211  0.00  0.00    +0.000 C 
ATOM      5  N   UNL     1       0.874   9.820  19.997  0.00  0.00    +0.000 N 
ATOM      6  C   UNL     1      -0.504  10.100  20.061  0.00  0.00    +0.000 C 
ATOM      7  O   UNL     1      -1.114   9.951  21.121  0.00  0.00    +0.000 OA
ATOM      8  C   UNL     1       1.695   9.825  18.776  0.00  0.00    +0.000 C 
ATOM      9  C   UNL     1       1.830   8.432  18.138  0.00  0.00    +0.000 C 
ENDROOT
BRANCH   1  14
ATOM     10  C   UNL     1       4.817   4.636  18.760  0.00  0.00    +0.000 A 
ATOM     11  C   UNL     1       5.405   4.922  17.528  0.00  0.00    +0.000 A 
ATOM     12  C   UNL     1       5.028   6.056  16.817  0.00  0.00    +0.000 A 
ATOM     13  C   UNL     1       4.023   6.880  17.322  0.00  0.00    +0.000 A 
ATOM     14  C   UNL     1       3.423   6.640  18.560  0.00  0.00    +0.000 A 
ATOM     15  C   UNL     1       3.835   5.495  19.267  0.00  0.00    +0.000 A 
BRANCH  10  17
ATOM     16  C   UNL     1       4.346   2.559  19.828  0.00  0.00    +0.000 C 
ATOM     17  O   UNL     1       5.298   3.509  19.370  0.00  0.00    +0.000 OA
ENDBRANCH  10  17
BRANCH  12  18
ATOM     18  O   UNL     1       5.683   6.293  15.637  0.00  0.00    +0.000 OA
ATOM     19  C   UNL     1       5.876   5.134  14.827  0.00  0.00    +0.000 C 
ENDBRANCH  12  18
ENDBRANCH   1  14
BRANCH   6  20
ATOM     20  C   UNL     1      -1.179  10.593  18.873  0.00  0.00    +0.000 A 
ATOM     21  O   UNL     1      -1.671   9.709  17.933  0.00  0.00    +0.000 OA
ATOM     22  C   UNL     1      -2.221  10.497  16.965  0.00  0.00    +0.000 A 
ATOM     23  C   UNL     1      -2.732   9.816  15.759  0.00  0.00    +0.000 C 
ATOM     24  N   UNL     1      -2.193  11.777  17.224  0.00  0.00    +0.000 NA
ATOM     25  C   UNL     1      -1.517  11.864  18.430  0.00  0.00    +0.000 A 
BRANCH  25  26
ATOM     26  C   UNL     1      -1.174  13.155  19.000  0.00  0.00    +0.000 A 
ATOM     27  C   UNL     1      -0.148  13.910  18.412  0.00  0.00    +0.000 A 
ATOM     28  C   UNL     1       0.326  15.073  19.028  0.00  0.00    +0.000 A 
ATOM     29  C   UNL     1      -0.231  15.499  20.232  0.00  0.00    +0.000 A 
ATOM     30  C   UNL     1      -1.277  14.779  20.806  0.00  0.00    +0.000 A 
ATOM     31  C   UNL     1      -1.735  13.614  20.195  0.00  0.00    +0.000 A 
ATOM     32  F   UNL     1      -2.671  12.901  20.840  0.00  0.00    +0.000 F 
ENDBRANCH  25  26
ENDBRANCH   6  20
TORSDOF 5
ENDMDL
MODEL 4
REMARK VINA RESULT:      -7.3      3.368      8.677
REMARK  Name = 
REMARK  8 active torsions:
REMARK  status: ('A' for Active; 'I' for Inactive)
REMARK    1  A    between atoms: C_1  and  O_2
REMARK    2  A    between atoms: O_2  and  C_3
REMARK    3  A    between atoms: C_5  and  O_6
REMARK    4  A    between atoms: O_6  and  C_7
REMARK    5  A    between atoms: C_9  and  N_10
REMARK    6  A    between atoms: C_15  and  C_17
REMARK    7  A    between atoms: C_19  and  C_20
REMARK    8  A    between atoms: C_22  and  C_23
REMARK                            x       y       z     vdW  Elec       q    Type
REMARK                         _______ _______ _______ _____ _____    ______ ____
ROOT
ATOM      1  N   UNL     1       2.401   7.103  18.650  0.00  0.00    +0.000 N 
ATOM      2  C   UNL     1       1.534   6.669  19.756  0.00  0.00    +0.000 C 
ATOM      3  C   UNL     1       1.842   7.473  21.010  0.00  0.00    +0.000 C 
ATOM      4  C   UNL     1       1.797   8.992  20.874  0.00  0.00    +0.000 C 
ATOM      5  N   UNL     1       1.067   9.517  19.720  0.00  0.00    +0.000 N 
ATOM      6  C   UNL     1      -0.279   9.897  19.879  0.00  0.00    +0.000 C 
ATOM      7  O   UNL     1      -0.833   9.758  20.971  0.00  0.00    +0.000 OA
ATOM      8  C   UNL     1       1.810   9.501  18.449  0.00  0.00    +0.000 C 
ATOM      9  C   UNL     1       1.797   8.125  17.764  0.00  0.00    +0.000 C 
ENDROOT
BRANCH   1  14
ATOM     10  C   UNL     1       5.191   5.794  16.567  0.00  0.00    +0.000 A 
ATOM     11  C   UNL     1       5.024   4.420  16.734  0.00  0.00    +0.000 A 
ATOM     12  C   UNL     1       3.989   3.929  17.522  0.00  0.00    +0.000 A 
ATOM     13  C   UNL     1       3.148   4.822  18.184  0.00  0.00    +0.000 A 
ATOM     14  C   UNL     1       3.269   6.204  18.029  0.00  0.00    +0.000 A 
ATOM     15  C   UNL     1       4.314   6.675  17.212  0.00  0.00    +0.000 A 
BRANCH  10  17
ATOM     16  C   UNL     1       6.938   5.092  15.108  0.00  0.00    +0.000 C 
ATOM     17  O   UNL     1       6.226   6.145  15.744  0.00  0.00    +0.000 OA
ENDBRANCH  10  17
BRANCH  12  18
ATOM     18  O   UNL     1       3.864   2.566  17.599  0.00  0.00    +0.000 OA
ATOM     19  C   UNL     1       2.740   2.119  18.357  0.00  0.00    +0.000 C 
ENDBRANCH  12  18
ENDBRANCH   1  14
BRANCH   6  20
ATOM     20  C   UNL     1      -0.985  10.481  18.751  0.00  0.00    +0.000 A 
ATOM     21  O   UNL     1      -1.662   9.673  17.860  0.00  0.00    +0.000 OA
ATOM     22  C   UNL     1      -2.188  10.531  16.940  0.00  0.00    +0.000 A 
ATOM     23  C   UNL     1      -2.882   9.930  15.784  0.00  0.00    +0.000 C 
ATOM     24  N   UNL     1      -1.977  11.796  17.192  0.00  0.00    +0.000 NA
ATOM     25  C   UNL     1      -1.196  11.787  18.335  0.00  0.00    +0.000 A 
BRANCH  25  26
ATOM     26  C   UNL     1      -0.646  13.020  18.870  0.00  0.00    +0.000 A 
ATOM     27  C   UNL     1       0.630  13.434  18.459  0.00  0.00    +0.000 A 
ATOM     28  C   UNL     1       1.262  14.518  19.076  0.00  0.00    +0.000 A 
ATOM     29  C   UNL     1       0.620  15.208  20.102  0.00  0.00    +0.000 A 
ATOM     30  C   UNL     1      -0.664  14.831  20.493  0.00  0.00    +0.000 A 
ATOM     31  C   UNL     1      -1.283  13.741  19.885  0.00  0.00    +0.000 A 
ATOM     32  F   UNL     1      -2.474  13.354  20.368  0.00  0.00    +0.000 F 
ENDBRANCH  25  26
ENDBRANCH   6  20
TORSDOF 5
ENDMDL
MODEL 5
REMARK VINA RESULT:      -7.3      2.994      8.582
REMARK  Name = 
REMARK  8 active torsions:
REMARK  status: ('A' for Active; 'I' for Inactive)
REMARK    1  A    between atoms: C_1  and  O_2
REMARK    2  A    between atoms: O_2  and  C_3
REMARK    3  A    between atoms: C_5  and  O_6
REMARK    4  A    between atoms: O_6  and  C_7
REMARK    5  A    between atoms: C_9  and  N_10
REMARK    6  A    between atoms: C_15  and  C_17
REMARK    7  A    between atoms: C_19  and  C_20
REMARK    8  A    between atoms: C_22  and  C_23
REMARK                            x       y       z     vdW  Elec       q    Type
REMARK                         _______ _______ _______ _____ _____    ______ ____
ROOT
ATOM      1  N   UNL     1       2.406   7.109  18.683  0.00  0.00    +0.000 N 
ATOM      2  C   UNL     1       1.520   6.658  19.767  0.00  0.00    +0.000 C 
ATOM      3  C   UNL     1       1.827   7.419  21.046  0.00  0.00    +0.000 C 
ATOM      4  C   UNL     1       1.810   8.942  20.955  0.00  0.00    +0.000 C 
ATOM      5  N   UNL     1       1.102   9.513  19.809  0.00  0.00    +0.000 N 
ATOM      6  C   UNL     1      -0.239   9.911  19.966  0.00  0.00    +0.000 C 
ATOM      7  O   UNL     1      -0.807   9.750  21.047  0.00  0.00    +0.000 OA
ATOM      8  C   UNL     1       1.858   9.522  18.547  0.00  0.00    +0.000 C 
ATOM      9  C   UNL     1       1.830   8.167  17.821  0.00  0.00    +0.000 C 
ENDROOT
BRANCH   1  14
ATOM     10  C   UNL     1       5.178   5.813  16.569  0.00  0.00    +0.000 A 
ATOM     11  C   UNL     1       5.003   4.437  16.715  0.00  0.00    +0.000 A 
ATOM     12  C   UNL     1       3.968   3.941  17.500  0.00  0.00    +0.000 A 
ATOM     13  C   UNL     1       3.136   4.830  18.180  0.00  0.00    +0.000 A 
ATOM     14  C   UNL     1       3.266   6.214  18.045  0.00  0.00    +0.000 A 
ATOM     15  C   UNL     1       4.311   6.689  17.231  0.00  0.00    +0.000 A 
BRANCH  10  17
ATOM     16  C   UNL     1       6.917   5.121  15.094  0.00  0.00    +0.000 C 
ATOM     17  O   UNL     1       6.213   6.168  15.747  0.00  0.00    +0.000 OA
ENDBRANCH  10  17
BRANCH  12  18
ATOM     18  O   UNL     1       3.834   2.579  17.558  0.00  0.00    +0.000 OA
ATOM     19  C   UNL     1       2.575   2.131  18.059  0.00  0.00    +0.000 C 
ENDBRANCH  12  18
ENDBRANCH   1  14
BRANCH   6  20
ATOM     20  C   UNL     1      -0.922  10.540  18.848  0.00  0.00    +0.000 A 
ATOM     21  O   UNL     1      -1.603   9.772  17.927  0.00  0.00    +0.000 OA
ATOM     22  C   UNL     1      -2.104  10.666  17.027  0.00  0.00    +0.000 A 
ATOM     23  C   UNL     1      -2.795  10.111  15.846  0.00  0.00    +0.000 C 
ATOM     24  N   UNL     1      -1.874  11.918  17.318  0.00  0.00    +0.000 NA
ATOM     25  C   UNL     1      -1.106  11.862  18.469  0.00  0.00    +0.000 A 
BRANCH  25  26
ATOM     26  C   UNL     1      -0.540  13.069  19.046  0.00  0.00    +0.000 A 
ATOM     27  C   UNL     1      -1.345  13.877  19.864  0.00  0.00    +0.000 A 
ATOM     28  C   UNL     1      -0.894  15.128  20.297  0.00  0.00    +0.000 A 
ATOM     29  C   UNL     1       0.372  15.578  19.927  0.00  0.00    +0.000 A 
ATOM     30  C   UNL     1       1.195  14.769  19.148  0.00  0.00    +0.000 A 
ATOM     31  C   UNL     1       0.735  13.530  18.707  0.00  0.00    +0.000 A 
ATOM     32  F   UNL     1       1.524  12.835  17.873  0.00  0.00    +0.000 F 
ENDBRANCH  25  26
ENDBRANCH   6  20
TORSDOF 5
ENDMDL
MODEL 6
REMARK VINA RESULT:      -7.3      2.996      8.448
REMARK  Name = 
REMARK  8 active torsions:
REMARK  status: ('A' for Active; 'I' for Inactive)
REMARK    1  A    between atoms: C_1  and  O_2
REMARK    2  A    between atoms: O_2  and  C_3
REMARK    3  A    between atoms: C_5  and  O_6
REMARK    4  A    between atoms: O_6  and  C_7
REMARK    5  A    between atoms: C_9  and  N_10
REMARK    6  A    between atoms: C_15  and  C_17
REMARK    7  A    between atoms: C_19  and  C_20
REMARK    8  A    between atoms: C_22  and  C_23
REMARK                            x       y       z     vdW  Elec       q    Type
REMARK                         _______ _______ _______ _____ _____    ______ ____
ROOT
ATOM      1  N   UNL     1       2.414   7.114  18.647  0.00  0.00    +0.000 N 
ATOM      2  C   UNL     1       1.530   6.650  19.727  0.00  0.00    +0.000 C 
ATOM      3  C   UNL     1       1.835   7.399  21.014  0.00  0.00    +0.000 C 
ATOM      4  C   UNL     1       1.813   8.923  20.938  0.00  0.00    +0.000 C 
ATOM      5  N   UNL     1       1.102   9.503  19.798  0.00  0.00    +0.000 N 
ATOM      6  C   UNL     1      -0.239   9.895  19.959  0.00  0.00    +0.000 C 
ATOM      7  O   UNL     1      -0.807   9.722  21.039  0.00  0.00    +0.000 OA
ATOM      8  C   UNL     1       1.858   9.527  18.536  0.00  0.00    +0.000 C 
ATOM      9  C   UNL     1       1.834   8.179  17.796  0.00  0.00    +0.000 C 
ENDROOT
BRANCH   1  14
ATOM     10  C   UNL     1       3.959   3.928  17.511  0.00  0.00    +0.000 A 
ATOM     11  C   UNL     1       5.016   4.406  16.737  0.00  0.00    +0.000 A 
ATOM     12  C   UNL     1       5.222   5.774  16.600  0.00  0.00    +0.000 A 
ATOM     13  C   UNL     1       4.335   6.666  17.203  0.00  0.00    +0.000 A 
ATOM     14  C   UNL     1       3.276   6.228  18.001  0.00  0.00    +0.000 A 
ATOM     15  C   UNL     1       3.100   4.838  18.137  0.00  0.00    +0.000 A 
BRANCH  10  17
ATOM     16  C   UNL     1       2.762   2.008  18.259  0.00  0.00    +0.000 C 
ATOM     17  O   UNL     1       3.886   2.563  17.589  0.00  0.00    +0.000 OA
ENDBRANCH  10  17
BRANCH  12  18
ATOM     18  O   UNL     1       6.308   6.165  15.861  0.00  0.00    +0.000 OA
ATOM     19  C   UNL     1       6.940   5.110  15.138  0.00  0.00    +0.000 C 
ENDBRANCH  12  18
ENDBRANCH   1  14
BRANCH   6  20
ATOM     20  C   UNL     1      -0.925  10.533  18.848  0.00  0.00    +0.000 A 
ATOM     21  O   UNL     1      -1.606   9.771  17.920  0.00  0.00    +0.000 OA
ATOM     22  C   UNL     1      -2.110  10.672  17.029  0.00  0.00    +0.000 A 
ATOM     23  C   UNL     1      -2.801  10.126  15.844  0.00  0.00    +0.000 C 
ATOM     24  N   UNL     1      -1.883  11.923  17.331  0.00  0.00    +0.000 NA
ATOM     25  C   UNL     1      -1.113  11.858  18.481  0.00  0.00    +0.000 A 
BRANCH  25  26
ATOM     26  C   UNL     1      -0.549  13.061  19.068  0.00  0.00    +0.000 A 
ATOM     27  C   UNL     1      -1.356  13.862  19.890  0.00  0.00    +0.000 A 
ATOM     28  C   UNL     1      -0.907  15.110  20.334  0.00  0.00    +0.000 A 
ATOM     29  C   UNL     1       0.360  15.564  19.970  0.00  0.00    +0.000 A 
ATOM     30  C   UNL     1       1.185  14.760  19.187  0.00  0.00    +0.000 A 
ATOM     31  C   UNL     1       0.727  13.524  18.735  0.00  0.00    +0.000 A 
ATOM     32  F   UNL     1       1.518  12.836  17.899  0.00  0.00    +0.000 F 
ENDBRANCH  25  26
ENDBRANCH   6  20
TORSDOF 5
ENDMDL
MODEL 7
REMARK VINA RESULT:      -7.2      1.593      3.311
REMARK  Name = 
REMARK  8 active torsions:
REMARK  status: ('A' for Active; 'I' for Inactive)
REMARK    1  A    between atoms: C_1  and  O_2
REMARK    2  A    between atoms: O_2  and  C_3
REMARK    3  A    between atoms: C_5  and  O_6
REMARK    4  A    between atoms: O_6  and  C_7
REMARK    5  A    between atoms: C_9  and  N_10
REMARK    6  A    between atoms: C_15  and  C_17
REMARK    7  A    between atoms: C_19  and  C_20
REMARK    8  A    between atoms: C_22  and  C_23
REMARK                            x       y       z     vdW  Elec       q    Type
REMARK                         _______ _______ _______ _____ _____    ______ ____
ROOT
ATOM      1  N   UNL     1       1.957   7.554  19.260  0.00  0.00    +0.000 N 
ATOM      2  C   UNL     1       2.197   6.349  20.068  0.00  0.00    +0.000 C 
ATOM      3  C   UNL     1       1.712   5.114  19.324  0.00  0.00    +0.000 C 
ATOM      4  C   UNL     1       2.252   4.913  17.911  0.00  0.00    +0.000 C 
ATOM      5  N   UNL     1       3.469   5.652  17.573  0.00  0.00    +0.000 N 
ATOM      6  C   UNL     1       4.715   5.010  17.704  0.00  0.00    +0.000 C 
ATOM      7  O   UNL     1       4.771   3.854  18.127  0.00  0.00    +0.000 OA
ATOM      8  C   UNL     1       3.265   7.064  17.213  0.00  0.00    +0.000 C 
ATOM      9  C   UNL     1       3.114   7.980  18.438  0.00  0.00    +0.000 C 
ENDROOT
BRANCH   1  14
ATOM     10  C   UNL     1      -0.035   9.647  21.601  0.00  0.00    +0.000 A 
ATOM     11  C   UNL     1      -0.519  10.628  20.735  0.00  0.00    +0.000 A 
ATOM     12  C   UNL     1      -0.196  10.591  19.383  0.00  0.00    +0.000 A 
ATOM     13  C   UNL     1       0.655   9.594  18.908  0.00  0.00    +0.000 A 
ATOM     14  C   UNL     1       1.145   8.583  19.738  0.00  0.00    +0.000 A 
ATOM     15  C   UNL     1       0.789   8.634  21.098  0.00  0.00    +0.000 A 
BRANCH  10  17
ATOM     16  C   UNL     1      -1.300  10.879  23.201  0.00  0.00    +0.000 C 
ATOM     17  O   UNL     1      -0.451   9.781  22.898  0.00  0.00    +0.000 OA
ENDBRANCH  10  17
BRANCH  12  18
ATOM     18  O   UNL     1      -0.747  11.562  18.589  0.00  0.00    +0.000 OA
ATOM     19  C   UNL     1      -2.058  11.261  18.112  0.00  0.00    +0.000 C 
ENDBRANCH  12  18
ENDBRANCH   1  14
BRANCH   6  20
ATOM     20  C   UNL     1       5.919   5.720  17.305  0.00  0.00    +0.000 A 
ATOM     21  O   UNL     1       6.556   6.564  18.191  0.00  0.00    +0.000 OA
ATOM     22  C   UNL     1       7.620   7.061  17.499  0.00  0.00    +0.000 A 
ATOM     23  C   UNL     1       8.431   8.096  18.169  0.00  0.00    +0.000 C 
ATOM     24  N   UNL     1       7.765   6.569  16.297  0.00  0.00    +0.000 NA
ATOM     25  C   UNL     1       6.680   5.722  16.145  0.00  0.00    +0.000 A 
BRANCH  25  26
ATOM     26  C   UNL     1       6.419   5.068  14.875  0.00  0.00    +0.000 A 
ATOM     27  C   UNL     1       5.243   4.316  14.723  0.00  0.00    +0.000 A 
ATOM     28  C   UNL     1       5.038   3.535  13.582  0.00  0.00    +0.000 A 
ATOM     29  C   UNL     1       6.001   3.506  12.575  0.00  0.00    +0.000 A 
ATOM     30  C   UNL     1       7.154   4.279  12.696  0.00  0.00    +0.000 A 
ATOM     31  C   UNL     1       7.360   5.044  13.842  0.00  0.00    +0.000 A 
ATOM     32  F   UNL     1       8.532   5.687  13.957  0.00  0.00    +0.000 F 
ENDBRANCH  25  26
ENDBRANCH   6  20
TORSDOF 5
ENDMDL
MODEL 8
REMARK VINA RESULT:      -7.2      3.891      9.350
REMARK  Name = 
REMARK  8 active torsions:
REMARK  status: ('A' for Active; 'I' for Inactive)
REMARK    1  A    between atoms: C_1  and  O_2
REMARK    2  A    between atoms: O_2  and  C_3
REMARK    3  A    between atoms: C_5  and  O_6
REMARK    4  A    between atoms: O_6  and  C_7
REMARK    5  A    between atoms: C_9  and  N_10
REMARK    6  A    between atoms: C_15  and  C_17
REMARK    7  A    between atoms: C_19  and  C_20
REMARK    8  A    between atoms: C_22  and  C_23
REMARK                            x       y       z     vdW  Elec       q    Type
REMARK                         _______ _______ _______ _____ _____    ______ ____
ROOT
ATOM      1  N   UNL     1       1.006   8.318  20.684  0.00  0.00    +0.000 N 
ATOM      2  C   UNL     1      -0.346   8.129  21.231  0.00  0.00    +0.000 C 
ATOM      3  C   UNL     1      -0.394   8.582  22.681  0.00  0.00    +0.000 C 
ATOM      4  C   UNL     1       0.093   9.998  22.970  0.00  0.00    +0.000 C 
ATOM      5  N   UNL     1       0.148  10.909  21.825  0.00  0.00    +0.000 N 
ATOM      6  C   UNL     1      -0.941  11.767  21.584  0.00  0.00    +0.000 C 
ATOM      7  O   UNL     1      -1.933  11.724  22.314  0.00  0.00    +0.000 OA
ATOM      8  C   UNL     1       1.331  10.759  20.963  0.00  0.00    +0.000 C 
ATOM      9  C   UNL     1       1.202   9.598  19.964  0.00  0.00    +0.000 C 
ENDROOT
BRANCH   1  14
ATOM     10  C   UNL     1       3.184   6.269  18.474  0.00  0.00    +0.000 A 
ATOM     11  C   UNL     1       3.199   5.057  19.165  0.00  0.00    +0.000 A 
ATOM     12  C   UNL     1       2.485   4.917  20.350  0.00  0.00    +0.000 A 
ATOM     13  C   UNL     1       1.793   6.011  20.868  0.00  0.00    +0.000 A 
ATOM     14  C   UNL     1       1.737   7.234  20.198  0.00  0.00    +0.000 A 
ATOM     15  C   UNL     1       2.454   7.345  18.992  0.00  0.00    +0.000 A 
BRANCH  10  17
ATOM     16  C   UNL     1       4.917   5.281  17.170  0.00  0.00    +0.000 C 
ATOM     17  O   UNL     1       3.901   6.266  17.308  0.00  0.00    +0.000 OA
ENDBRANCH  10  17
BRANCH  12  18
ATOM     18  O   UNL     1       2.513   3.683  20.945  0.00  0.00    +0.000 OA
ATOM     19  C   UNL     1       1.235   3.061  21.073  0.00  0.00    +0.000 C 
ENDBRANCH  12  18
ENDBRANCH   1  14
BRANCH   6  20
ATOM     20  C   UNL     1      -0.859  12.718  20.489  0.00  0.00    +0.000 A 
ATOM     21  O   UNL     1      -0.247  13.942  20.672  0.00  0.00    +0.000 OA
ATOM     22  C   UNL     1      -0.358  14.573  19.469  0.00  0.00    +0.000 A 
ATOM     23  C   UNL     1       0.117  15.969  19.399  0.00  0.00    +0.000 C 
ATOM     24  N   UNL     1      -0.909  13.855  18.526  0.00  0.00    +0.000 NA
ATOM     25  C   UNL     1      -1.253  12.673  19.159  0.00  0.00    +0.000 A 
BRANCH  25  26
ATOM     26  C   UNL     1      -2.008  11.648  18.461  0.00  0.00    +0.000 A 
ATOM     27  C   UNL     1      -1.332  10.760  17.610  0.00  0.00    +0.000 A 
ATOM     28  C   UNL     1      -2.040   9.874  16.793  0.00  0.00    +0.000 A 
ATOM     29  C   UNL     1      -3.433   9.856  16.827  0.00  0.00    +0.000 A 
ATOM     30  C   UNL     1      -4.115  10.705  17.697  0.00  0.00    +0.000 A 
ATOM     31  C   UNL     1      -3.405  11.596  18.498  0.00  0.00    +0.000 A 
ATOM     32  F   UNL     1      -4.111  12.463  19.240  0.00  0.00    +0.000 F 
ENDBRANCH  25  26
ENDBRANCH   6  20
TORSDOF 5
ENDMDL
MODEL 9
REMARK VINA RESULT:      -7.1      3.908      9.253
REMARK  Name = 
REMARK  8 active torsions:
REMARK  status: ('A' for Active; 'I' for Inactive)
REMARK    1  A    between atoms: C_1  and  O_2
REMARK    2  A    between atoms: O_2  and  C_3
REMARK    3  A    between atoms: C_5  and  O_6
REMARK    4  A    between atoms: O_6  and  C_7
REMARK    5  A    between atoms: C_9  and  N_10
REMARK    6  A    between atoms: C_15  and  C_17
REMARK    7  A    between atoms: C_19  and  C_20
REMARK    8  A    between atoms: C_22  and  C_23
REMARK                            x       y       z     vdW  Elec       q    Type
REMARK                         _______ _______ _______ _____ _____    ______ ____
ROOT
ATOM      1  N   UNL     1       0.975   8.396  20.640  0.00  0.00    +0.000 N 
ATOM      2  C   UNL     1      -0.358   8.142  21.208  0.00  0.00    +0.000 C 
ATOM      3  C   UNL     1      -0.383   8.522  22.679  0.00  0.00    +0.000 C 
ATOM      4  C   UNL     1       0.073   9.937  23.027  0.00  0.00    +0.000 C 
ATOM      5  N   UNL     1       0.075  10.903  21.928  0.00  0.00    +0.000 N 
ATOM      6  C   UNL     1      -1.042  11.741  21.755  0.00  0.00    +0.000 C 
ATOM      7  O   UNL     1      -2.015  11.634  22.504  0.00  0.00    +0.000 OA
ATOM      8  C   UNL     1       1.240  10.829  21.032  0.00  0.00    +0.000 C 
ATOM      9  C   UNL     1       1.118   9.714  19.980  0.00  0.00    +0.000 C 
ENDROOT
BRANCH   1  14
ATOM     10  C   UNL     1       2.516   5.044  20.178  0.00  0.00    +0.000 A 
ATOM     11  C   UNL     1       3.247   5.246  19.007  0.00  0.00    +0.000 A 
ATOM     12  C   UNL     1       3.238   6.487  18.381  0.00  0.00    +0.000 A 
ATOM     13  C   UNL     1       2.453   7.514  18.904  0.00  0.00    +0.000 A 
ATOM     14  C   UNL     1       1.723   7.358  20.084  0.00  0.00    +0.000 A 
ATOM     15  C   UNL     1       1.763   6.098  20.708  0.00  0.00    +0.000 A 
BRANCH  10  17
ATOM     16  C   UNL     1       1.454   3.180  21.216  0.00  0.00    +0.000 C 
ATOM     17  O   UNL     1       2.635   3.788  20.711  0.00  0.00    +0.000 OA
ENDBRANCH  10  17
BRANCH  12  18
ATOM     18  O   UNL     1       4.016   6.620  17.261  0.00  0.00    +0.000 OA
ATOM     19  C   UNL     1       4.941   5.552  17.055  0.00  0.00    +0.000 C 
ENDBRANCH  12  18
ENDBRANCH   1  14
BRANCH   6  20
ATOM     20  C   UNL     1      -1.013  12.747  20.706  0.00  0.00    +0.000 A 
ATOM     21  O   UNL     1      -0.479  13.995  20.952  0.00  0.00    +0.000 OA
ATOM     22  C   UNL     1      -0.621  14.675  19.779  0.00  0.00    +0.000 A 
ATOM     23  C   UNL     1      -0.233  16.100  19.780  0.00  0.00    +0.000 C 
ATOM     24  N   UNL     1      -1.120  13.971  18.799  0.00  0.00    +0.000 NA
ATOM     25  C   UNL     1      -1.394  12.740  19.372  0.00  0.00    +0.000 A 
BRANCH  25  26
ATOM     26  C   UNL     1      -2.080  11.705  18.619  0.00  0.00    +0.000 A 
ATOM     27  C   UNL     1      -1.326  10.808  17.848  0.00  0.00    +0.000 A 
ATOM     28  C   UNL     1      -1.953   9.910  16.979  0.00  0.00    +0.000 A 
ATOM     29  C   UNL     1      -3.344   9.890  16.883  0.00  0.00    +0.000 A 
ATOM     30  C   UNL     1      -4.105  10.749  17.672  0.00  0.00    +0.000 A 
ATOM     31  C   UNL     1      -3.474  11.652  18.525  0.00  0.00    +0.000 A 
ATOM     32  F   UNL     1      -4.247  12.528  19.185  0.00  0.00    +0.000 F 
ENDBRANCH  25  26
ENDBRANCH   6  20
TORSDOF 5
ENDMDL
