MODEL 1
REMARK VINA RESULT:      -8.6      0.000      0.000
REMARK  Name = 
REMARK  5 active torsions:
REMARK  status: ('A' for Active; 'I' for Inactive)
REMARK    1  A    between atoms: C_1  and  C_2
REMARK    2  A    between atoms: C_5  and  C_6
REMARK    3  A    between atoms: C_9  and  C_10
REMARK    4  A    between atoms: C_15  and  S_16
REMARK    5  A    between atoms: S_16  and  N_19
REMARK                            x       y       z     vdW  Elec       q    Type
REMARK                         _______ _______ _______ _____ _____    ______ ____
ROOT
ATOM      1  C   UNL     1      -1.183  11.571  23.087  0.00  0.00    +0.000 C 
ATOM      2  C   UNL     1      -0.506  10.562  22.211  0.00  0.00    +0.000 A 
ATOM      3  C   UNL     1      -0.460   9.233  22.676  0.00  0.00    +0.000 A 
ATOM      4  C   UNL     1       0.241   8.222  21.997  0.00  0.00    +0.000 A 
ATOM      5  C   UNL     1       0.958   8.496  20.839  0.00  0.00    +0.000 A 
ATOM      6  C   UNL     1       0.881   9.859  20.316  0.00  0.00    +0.000 A 
ATOM      7  C   UNL     1       0.115  10.901  21.001  0.00  0.00    +0.000 A 
ENDROOT
BRANCH   5   8
ATOM      8  C   UNL     1       1.741   7.346  20.270  0.00  0.00    +0.000 A 
ATOM      9  C   UNL     1       2.728   7.160  19.329  0.00  0.00    +0.000 A 
ATOM     10  N   UNL     1       3.103   5.835  19.229  0.00  0.00    +0.000 NA
ATOM     11  C   UNL     1       2.334   5.194  20.093  0.00  0.00    +0.000 A 
ATOM     12  O   UNL     1       1.460   6.043  20.750  0.00  0.00    +0.000 OA
BRANCH  11  13
ATOM     13  C   UNL     1       2.524   3.663  20.315  0.00  0.00    +0.000 C 
ATOM     14  C   UNL     1       2.290   3.056  21.689  0.00  0.00    +0.000 C 
ATOM     15  C   UNL     1       1.362   2.721  20.575  0.00  0.00    +0.000 C 
ENDBRANCH  11  13
ENDBRANCH   5   8
BRANCH   7  16
ATOM     16  S   UNL     1      -0.122  12.771  20.322  0.00  0.00    +0.000 S 
ATOM     17  O   UNL     1      -0.138  13.659  21.465  0.00  0.00    +0.000 OA
ATOM     18  O   UNL     1       0.918  12.899  19.301  0.00  0.00    +0.000 OA
BRANCH  16  19
ATOM     19  N   UNL     1      -1.722  12.743  19.511  0.00  0.00    +0.000 N 
ATOM     20  C   UNL     1      -2.632  13.350  20.500  0.00  0.00    +0.000 C 
ATOM     21  C   UNL     1      -4.095  13.101  20.443  0.00  0.00    +0.000 C 
ATOM     22  C   UNL     1      -4.673  12.423  19.254  0.00  0.00    +0.000 C 
ATOM     23  C   UNL     1      -3.717  11.639  18.427  0.00  0.00    +0.000 A 
ATOM     24  C   UNL     1      -4.407  10.870  17.435  0.00  0.00    +0.000 A 
ATOM     25  C   UNL     1      -3.729  10.071  16.549  0.00  0.00    +0.000 A 
ATOM     26  C   UNL     1      -2.338  10.085  16.659  0.00  0.00    +0.000 A 
ATOM     27  C   UNL     1      -1.631  10.877  17.655  0.00  0.00    +0.000 A 
ATOM     28  C   UNL     1      -2.303  11.669  18.601  0.00  0.00    +0.000 A 
ENDBRANCH  16  19
ENDBRANCH   7  16
TORSDOF 4
ENDMDL
MODEL 2
REMARK VINA RESULT:      -8.5      2.765      4.077
REMARK  Name = 
REMARK  5 active torsions:
REMARK  status: ('A' for Active; 'I' for Inactive)
REMARK    1  A    between atoms: C_1  and  C_2
REMARK    2  A    between atoms: C_5  and  C_6
REMARK    3  A    between atoms: C_9  and  C_10
REMARK    4  A    between atoms: C_15  and  S_16
REMARK    5  A    between atoms: S_16  and  N_19
REMARK                            x       y       z     vdW  Elec       q    Type
REMARK                         _______ _______ _______ _____ _____    ______ ____
ROOT
ATOM      1  C   UNL     1       0.521   9.008  21.901  0.00  0.00    +0.000 C 
ATOM      2  C   UNL     1       1.149   8.248  20.773  0.00  0.00    +0.000 A 
ATOM      3  C   UNL     1       1.442   6.889  20.997  0.00  0.00    +0.000 A 
ATOM      4  C   UNL     1       2.129   6.102  20.058  0.00  0.00    +0.000 A 
ATOM      5  C   UNL     1       2.587   6.643  18.863  0.00  0.00    +0.000 A 
ATOM      6  C   UNL     1       2.248   8.039  18.592  0.00  0.00    +0.000 A 
ATOM      7  C   UNL     1       1.495   8.845  19.554  0.00  0.00    +0.000 A 
ENDROOT
BRANCH   5   8
ATOM      8  C   UNL     1       3.392   5.717  17.994  0.00  0.00    +0.000 A 
ATOM      9  C   UNL     1       3.597   4.362  17.876  0.00  0.00    +0.000 A 
ATOM     10  N   UNL     1       4.460   4.057  16.843  0.00  0.00    +0.000 NA
ATOM     11  C   UNL     1       4.808   5.226  16.331  0.00  0.00    +0.000 A 
ATOM     12  O   UNL     1       4.218   6.288  16.995  0.00  0.00    +0.000 OA
BRANCH  11  13
ATOM     13  C   UNL     1       5.733   5.280  15.078  0.00  0.00    +0.000 C 
ATOM     14  C   UNL     1       7.164   4.774  15.164  0.00  0.00    +0.000 C 
ATOM     15  C   UNL     1       6.177   4.034  14.332  0.00  0.00    +0.000 C 
ENDBRANCH  11  13
ENDBRANCH   5   8
BRANCH   7  16
ATOM     16  S   UNL     1       0.910  10.736  19.241  0.00  0.00    +0.000 S 
ATOM     17  O   UNL     1       1.189  11.491  20.445  0.00  0.00    +0.000 OA
ATOM     18  O   UNL     1       1.558  11.091  17.979  0.00  0.00    +0.000 OA
BRANCH  16  19
ATOM     19  N   UNL     1      -0.858  10.607  18.962  0.00  0.00    +0.000 N 
ATOM     20  C   UNL     1      -0.961   9.997  17.623  0.00  0.00    +0.000 C 
ATOM     21  C   UNL     1      -2.199  10.140  16.814  0.00  0.00    +0.000 C 
ATOM     22  C   UNL     1      -3.420  10.706  17.445  0.00  0.00    +0.000 C 
ATOM     23  C   UNL     1      -3.200  11.505  18.680  0.00  0.00    +0.000 A 
ATOM     24  C   UNL     1      -4.405  12.165  19.086  0.00  0.00    +0.000 A 
ATOM     25  C   UNL     1      -4.446  12.955  20.206  0.00  0.00    +0.000 A 
ATOM     26  C   UNL     1      -3.257  13.044  20.931  0.00  0.00    +0.000 A 
ATOM     27  C   UNL     1      -2.034  12.363  20.532  0.00  0.00    +0.000 A 
ATOM     28  C   UNL     1      -1.954  11.582  19.366  0.00  0.00    +0.000 A 
ENDBRANCH  16  19
ENDBRANCH   7  16
TORSDOF 4
ENDMDL
MODEL 3
REMARK VINA RESULT:      -8.4      4.335      9.360
REMARK  Name = 
REMARK  5 active torsions:
REMARK  status: ('A' for Active; 'I' for Inactive)
REMARK    1  A    between atoms: C_1  and  C_2
REMARK    2  A    between atoms: C_5  and  C_6
REMARK    3  A    between atoms: C_9  and  C_10
REMARK    4  A    between atoms: C_15  and  S_16
REMARK    5  A    between atoms: S_16  and  N_19
REMARK                            x       y       z     vdW  Elec       q    Type
REMARK                         _______ _______ _______ _____ _____    ______ ____
ROOT
ATOM      1  C   UNL     1       1.886   2.627  20.918  0.00  0.00    +0.000 C 
ATOM      2  C   UNL     1       2.109   4.012  20.394  0.00  0.00    +0.000 A 
ATOM      3  C   UNL     1       1.203   5.010  20.805  0.00  0.00    +0.000 A 
ATOM      4  C   UNL     1       1.242   6.318  20.296  0.00  0.00    +0.000 A 
ATOM      5  C   UNL     1       2.166   6.687  19.326  0.00  0.00    +0.000 A 
ATOM      6  C   UNL     1       3.146   5.678  18.925  0.00  0.00    +0.000 A 
ATOM      7  C   UNL     1       3.130   4.328  19.488  0.00  0.00    +0.000 A 
ENDROOT
BRANCH   5   8
ATOM      8  C   UNL     1       2.035   8.088  18.799  0.00  0.00    +0.000 A 
ATOM      9  C   UNL     1       2.535   8.826  17.751  0.00  0.00    +0.000 A 
ATOM     10  N   UNL     1       2.033  10.112  17.739  0.00  0.00    +0.000 NA
ATOM     11  C   UNL     1       1.236  10.180  18.793  0.00  0.00    +0.000 A 
ATOM     12  O   UNL     1       1.203   8.992  19.504  0.00  0.00    +0.000 OA
BRANCH  11  13
ATOM     13  C   UNL     1       0.422  11.480  19.069  0.00  0.00    +0.000 C 
ATOM     14  C   UNL     1      -1.013  11.600  18.581  0.00  0.00    +0.000 C 
ATOM     15  C   UNL     1      -0.743  11.528  20.042  0.00  0.00    +0.000 C 
ENDBRANCH  11  13
ENDBRANCH   5   8
BRANCH   7  16
ATOM     16  S   UNL     1       4.477   2.904  19.067  0.00  0.00    +0.000 S 
ATOM     17  O   UNL     1       4.917   2.327  20.319  0.00  0.00    +0.000 OA
ATOM     18  O   UNL     1       3.800   2.076  18.069  0.00  0.00    +0.000 OA
BRANCH  16  19
ATOM     19  N   UNL     1       5.814   3.791  18.265  0.00  0.00    +0.000 N 
ATOM     20  C   UNL     1       6.253   4.766  19.282  0.00  0.00    +0.000 C 
ATOM     21  C   UNL     1       6.998   5.991  18.892  0.00  0.00    +0.000 C 
ATOM     22  C   UNL     1       7.501   6.125  17.501  0.00  0.00    +0.000 C 
ATOM     23  C   UNL     1       6.842   5.259  16.487  0.00  0.00    +0.000 A 
ATOM     24  C   UNL     1       7.258   5.611  15.162  0.00  0.00    +0.000 A 
ATOM     25  C   UNL     1       6.786   4.941  14.061  0.00  0.00    +0.000 A 
ATOM     26  C   UNL     1       5.910   3.887  14.321  0.00  0.00    +0.000 A 
ATOM     27  C   UNL     1       5.497   3.514  15.666  0.00  0.00    +0.000 A 
ATOM     28  C   UNL     1       5.932   4.210  16.806  0.00  0.00    +0.000 A 
ENDBRANCH  16  19
ENDBRANCH   7  16
TORSDOF 4
ENDMDL
MODEL 4
REMARK VINA RESULT:      -8.4      6.088      9.386
REMARK  Name = 
REMARK  5 active torsions:
REMARK  status: ('A' for Active; 'I' for Inactive)
REMARK    1  A    between atoms: C_1  and  C_2
REMARK    2  A    between atoms: C_5  and  C_6
REMARK    3  A    between atoms: C_9  and  C_10
REMARK    4  A    between atoms: C_15  and  S_16
REMARK    5  A    between atoms: S_16  and  N_19
REMARK                            x       y       z     vdW  Elec       q    Type
REMARK                         _______ _______ _______ _____ _____    ______ ____
ROOT
ATOM      1  C   UNL     1       6.845   5.245  19.086  0.00  0.00    +0.000 C 
ATOM      2  C   UNL     1       6.519   4.697  17.731  0.00  0.00    +0.000 A 
ATOM      3  C   UNL     1       7.390   5.031  16.675  0.00  0.00    +0.000 A 
ATOM      4  C   UNL     1       7.131   4.669  15.343  0.00  0.00    +0.000 A 
ATOM      5  C   UNL     1       5.972   3.986  14.994  0.00  0.00    +0.000 A 
ATOM      6  C   UNL     1       5.082   3.588  16.083  0.00  0.00    +0.000 A 
ATOM      7  C   UNL     1       5.375   3.929  17.476  0.00  0.00    +0.000 A 
ENDROOT
BRANCH   5   8
ATOM      8  C   UNL     1       5.773   3.748  13.523  0.00  0.00    +0.000 A 
ATOM      9  C   UNL     1       6.560   3.520  12.418  0.00  0.00    +0.000 A 
ATOM     10  N   UNL     1       5.808   3.342  11.275  0.00  0.00    +0.000 NA
ATOM     11  C   UNL     1       4.551   3.481  11.665  0.00  0.00    +0.000 A 
ATOM     12  O   UNL     1       4.449   3.755  13.019  0.00  0.00    +0.000 OA
BRANCH  11  13
ATOM     13  C   UNL     1       3.393   3.272  10.644  0.00  0.00    +0.000 C 
ATOM     14  C   UNL     1       2.773   4.467   9.939  0.00  0.00    +0.000 C 
ATOM     15  C   UNL     1       3.567   3.487   9.151  0.00  0.00    +0.000 C 
ENDBRANCH  11  13
ENDBRANCH   5   8
BRANCH   7  16
ATOM     16  S   UNL     1       4.265   3.358  19.044  0.00  0.00    +0.000 S 
ATOM     17  O   UNL     1       3.234   2.467  18.555  0.00  0.00    +0.000 OA
ATOM     18  O   UNL     1       5.255   2.885  20.011  0.00  0.00    +0.000 OA
BRANCH  16  19
ATOM     19  N   UNL     1       3.552   4.887  19.655  0.00  0.00    +0.000 N 
ATOM     20  C   UNL     1       2.665   4.452  20.750  0.00  0.00    +0.000 C 
ATOM     21  C   UNL     1       1.545   5.313  21.211  0.00  0.00    +0.000 C 
ATOM     22  C   UNL     1       1.455   6.713  20.722  0.00  0.00    +0.000 C 
ATOM     23  C   UNL     1       2.205   7.014  19.474  0.00  0.00    +0.000 A 
ATOM     24  C   UNL     1       1.888   8.324  18.987  0.00  0.00    +0.000 A 
ATOM     25  C   UNL     1       2.467   8.824  17.849  0.00  0.00    +0.000 A 
ATOM     26  C   UNL     1       3.398   7.993  17.224  0.00  0.00    +0.000 A 
ATOM     27  C   UNL     1       3.736   6.668  17.724  0.00  0.00    +0.000 A 
ATOM     28  C   UNL     1       3.126   6.116  18.863  0.00  0.00    +0.000 A 
ENDBRANCH  16  19
ENDBRANCH   7  16
TORSDOF 4
ENDMDL
MODEL 5
REMARK VINA RESULT:      -8.4      1.231      1.412
REMARK  Name = 
REMARK  5 active torsions:
REMARK  status: ('A' for Active; 'I' for Inactive)
REMARK    1  A    between atoms: C_1  and  C_2
REMARK    2  A    between atoms: C_5  and  C_6
REMARK    3  A    between atoms: C_9  and  C_10
REMARK    4  A    between atoms: C_15  and  S_16
REMARK    5  A    between atoms: S_16  and  N_19
REMARK                            x       y       z     vdW  Elec       q    Type
REMARK                         _______ _______ _______ _____ _____    ______ ____
ROOT
ATOM      1  C   UNL     1      -1.133  10.941  23.074  0.00  0.00    +0.000 C 
ATOM      2  C   UNL     1      -0.409  10.273  21.945  0.00  0.00    +0.000 A 
ATOM      3  C   UNL     1      -0.174   8.889  22.059  0.00  0.00    +0.000 A 
ATOM      4  C   UNL     1       0.588   8.174  21.121  0.00  0.00    +0.000 A 
ATOM      5  C   UNL     1       1.182   8.812  20.039  0.00  0.00    +0.000 A 
ATOM      6  C   UNL     1       0.908  10.240  19.877  0.00  0.00    +0.000 A 
ATOM      7  C   UNL     1       0.078  10.973  20.834  0.00  0.00    +0.000 A 
ENDROOT
BRANCH   5   8
ATOM      8  C   UNL     1       2.050   7.949  19.168  0.00  0.00    +0.000 A 
ATOM      9  C   UNL     1       2.797   8.093  18.022  0.00  0.00    +0.000 A 
ATOM     10  N   UNL     1       3.434   6.921  17.668  0.00  0.00    +0.000 NA
ATOM     11  C   UNL     1       3.066   6.040  18.584  0.00  0.00    +0.000 A 
ATOM     12  O   UNL     1       2.202   6.584  19.520  0.00  0.00    +0.000 OA
BRANCH  11  13
ATOM     13  C   UNL     1       3.653   4.597  18.554  0.00  0.00    +0.000 C 
ATOM     14  C   UNL     1       2.745   3.409  18.277  0.00  0.00    +0.000 C 
ATOM     15  C   UNL     1       3.776   3.788  17.274  0.00  0.00    +0.000 C 
ENDBRANCH  11  13
ENDBRANCH   5   8
BRANCH   7  16
ATOM     16  S   UNL     1      -0.425  12.906  20.654  0.00  0.00    +0.000 S 
ATOM     17  O   UNL     1      -0.518  13.464  21.987  0.00  0.00    +0.000 OA
ATOM     18  O   UNL     1       0.553  13.427  19.700  0.00  0.00    +0.000 OA
BRANCH  16  19
ATOM     19  N   UNL     1      -2.034  12.867  19.863  0.00  0.00    +0.000 N 
ATOM     20  C   UNL     1      -2.972  13.204  20.950  0.00  0.00    +0.000 C 
ATOM     21  C   UNL     1      -4.408  12.833  20.861  0.00  0.00    +0.000 C 
ATOM     22  C   UNL     1      -4.949  12.320  19.576  0.00  0.00    +0.000 C 
ATOM     23  C   UNL     1      -3.945  11.785  18.618  0.00  0.00    +0.000 A 
ATOM     24  C   UNL     1      -4.585  11.138  17.511  0.00  0.00    +0.000 A 
ATOM     25  C   UNL     1      -3.858  10.573  16.494  0.00  0.00    +0.000 A 
ATOM     26  C   UNL     1      -2.472  10.699  16.595  0.00  0.00    +0.000 A 
ATOM     27  C   UNL     1      -1.817  11.369  17.708  0.00  0.00    +0.000 A 
ATOM     28  C   UNL     1      -2.536  11.918  18.784  0.00  0.00    +0.000 A 
ENDBRANCH  16  19
ENDBRANCH   7  16
TORSDOF 4
ENDMDL
MODEL 6
REMARK VINA RESULT:      -8.2      1.343      1.613
REMARK  Name = 
REMARK  5 active torsions:
REMARK  status: ('A' for Active; 'I' for Inactive)
REMARK    1  A    between atoms: C_1  and  C_2
REMARK    2  A    between atoms: C_5  and  C_6
REMARK    3  A    between atoms: C_9  and  C_10
REMARK    4  A    between atoms: C_15  and  S_16
REMARK    5  A    between atoms: S_16  and  N_19
REMARK                            x       y       z     vdW  Elec       q    Type
REMARK                         _______ _______ _______ _____ _____    ______ ____
ROOT
ATOM      1  C   UNL     1      -0.245  10.354  22.521  0.00  0.00    +0.000 C 
ATOM      2  C   UNL     1       0.428   9.590  21.421  0.00  0.00    +0.000 A 
ATOM      3  C   UNL     1       0.485   8.189  21.552  0.00  0.00    +0.000 A 
ATOM      4  C   UNL     1       1.183   7.376  20.644  0.00  0.00    +0.000 A 
ATOM      5  C   UNL     1       1.888   7.925  19.580  0.00  0.00    +0.000 A 
ATOM      6  C   UNL     1       1.799   9.374  19.401  0.00  0.00    +0.000 A 
ATOM      7  C   UNL     1       1.035  10.214  20.324  0.00  0.00    +0.000 A 
ENDROOT
BRANCH   5   8
ATOM      8  C   UNL     1       2.670   6.951  18.744  0.00  0.00    +0.000 A 
ATOM      9  C   UNL     1       3.617   7.005  17.748  0.00  0.00    +0.000 A 
ATOM     10  N   UNL     1       4.018   5.747  17.346  0.00  0.00    +0.000 NA
ATOM     11  C   UNL     1       3.303   4.909  18.080  0.00  0.00    +0.000 A 
ATOM     12  O   UNL     1       2.440   5.567  18.939  0.00  0.00    +0.000 OA
BRANCH  11  13
ATOM     13  C   UNL     1       3.537   3.373  17.954  0.00  0.00    +0.000 C 
ATOM     14  C   UNL     1       3.007   2.431  19.023  0.00  0.00    +0.000 C 
ATOM     15  C   UNL     1       2.415   2.393  17.659  0.00  0.00    +0.000 C 
ENDBRANCH  11  13
ENDBRANCH   5   8
BRANCH   7  16
ATOM     16  S   UNL     1       0.783  12.192  20.117  0.00  0.00    +0.000 S 
ATOM     17  O   UNL     1       0.922  12.795  21.425  0.00  0.00    +0.000 OA
ATOM     18  O   UNL     1       1.706  12.544  19.038  0.00  0.00    +0.000 OA
BRANCH  16  19
ATOM     19  N   UNL     1      -0.898  12.357  19.511  0.00  0.00    +0.000 N 
ATOM     20  C   UNL     1      -1.593  13.084  20.590  0.00  0.00    +0.000 C 
ATOM     21  C   UNL     1      -3.072  13.022  20.721  0.00  0.00    +0.000 C 
ATOM     22  C   UNL     1      -3.874  12.410  19.630  0.00  0.00    +0.000 C 
ATOM     23  C   UNL     1      -3.135  11.503  18.712  0.00  0.00    +0.000 A 
ATOM     24  C   UNL     1      -4.035  10.818  17.832  0.00  0.00    +0.000 A 
ATOM     25  C   UNL     1      -3.578   9.932  16.890  0.00  0.00    +0.000 A 
ATOM     26  C   UNL     1      -2.193   9.771  16.827  0.00  0.00    +0.000 A 
ATOM     27  C   UNL     1      -1.274  10.477  17.706  0.00  0.00    +0.000 A 
ATOM     28  C   UNL     1      -1.718  11.357  18.708  0.00  0.00    +0.000 A 
ENDBRANCH  16  19
ENDBRANCH   7  16
TORSDOF 4
ENDMDL
MODEL 7
REMARK VINA RESULT:      -8.1      1.129      2.453
REMARK  Name = 
REMARK  5 active torsions:
REMARK  status: ('A' for Active; 'I' for Inactive)
REMARK    1  A    between atoms: C_1  and  C_2
REMARK    2  A    between atoms: C_5  and  C_6
REMARK    3  A    between atoms: C_9  and  C_10
REMARK    4  A    between atoms: C_15  and  S_16
REMARK    5  A    between atoms: S_16  and  N_19
REMARK                            x       y       z     vdW  Elec       q    Type
REMARK                         _______ _______ _______ _____ _____    ______ ____
ROOT
ATOM      1  C   UNL     1      -0.975  12.149  22.475  0.00  0.00    +0.000 C 
ATOM      2  C   UNL     1      -0.412  10.967  21.747  0.00  0.00    +0.000 A 
ATOM      3  C   UNL     1       0.075   9.901  22.528  0.00  0.00    +0.000 A 
ATOM      4  C   UNL     1       0.725   8.790  21.966  0.00  0.00    +0.000 A 
ATOM      5  C   UNL     1       0.951   8.705  20.597  0.00  0.00    +0.000 A 
ATOM      6  C   UNL     1       0.408   9.779  19.766  0.00  0.00    +0.000 A 
ATOM      7  C   UNL     1      -0.306  10.914  20.351  0.00  0.00    +0.000 A 
ENDROOT
BRANCH   5   8
ATOM      8  C   UNL     1       1.743   7.512  20.140  0.00  0.00    +0.000 A 
ATOM      9  C   UNL     1       2.779   7.257  19.272  0.00  0.00    +0.000 A 
ATOM     10  N   UNL     1       3.132   5.923  19.266  0.00  0.00    +0.000 NA
ATOM     11  C   UNL     1       2.301   5.344  20.117  0.00  0.00    +0.000 A 
ATOM     12  O   UNL     1       1.407   6.243  20.673  0.00  0.00    +0.000 OA
BRANCH  11  13
ATOM     13  C   UNL     1       2.447   3.825  20.433  0.00  0.00    +0.000 C 
ATOM     14  C   UNL     1       2.142   3.303  21.828  0.00  0.00    +0.000 C 
ATOM     15  C   UNL     1       1.253   2.923  20.696  0.00  0.00    +0.000 C 
ENDBRANCH  11  13
ENDBRANCH   5   8
BRANCH   7  16
ATOM     16  S   UNL     1      -1.158  12.389  19.293  0.00  0.00    +0.000 S 
ATOM     17  O   UNL     1      -1.116  13.591  20.098  0.00  0.00    +0.000 OA
ATOM     18  O   UNL     1      -0.462  12.334  18.008  0.00  0.00    +0.000 OA
BRANCH  16  19
ATOM     19  N   UNL     1      -2.848  11.836  19.055  0.00  0.00    +0.000 N 
ATOM     20  C   UNL     1      -2.916  11.513  17.617  0.00  0.00    +0.000 C 
ATOM     21  C   UNL     1      -4.220  11.472  16.907  0.00  0.00    +0.000 C 
ATOM     22  C   UNL     1      -5.479  11.535  17.692  0.00  0.00    +0.000 C 
ATOM     23  C   UNL     1      -5.359  12.090  19.067  0.00  0.00    +0.000 A 
ATOM     24  C   UNL     1      -6.651  12.292  19.654  0.00  0.00    +0.000 A 
ATOM     25  C   UNL     1      -6.789  12.790  20.925  0.00  0.00    +0.000 A 
ATOM     26  C   UNL     1      -5.601  13.052  21.608  0.00  0.00    +0.000 A 
ATOM     27  C   UNL     1      -4.287  12.833  21.022  0.00  0.00    +0.000 A 
ATOM     28  C   UNL     1      -4.117  12.365  19.708  0.00  0.00    +0.000 A 
ENDBRANCH  16  19
ENDBRANCH   7  16
TORSDOF 4
ENDMDL
MODEL 8
REMARK VINA RESULT:      -8.1      6.340      9.544
REMARK  Name = 
REMARK  5 active torsions:
REMARK  status: ('A' for Active; 'I' for Inactive)
REMARK    1  A    between atoms: C_1  and  C_2
REMARK    2  A    between atoms: C_5  and  C_6
REMARK    3  A    between atoms: C_9  and  C_10
REMARK    4  A    between atoms: C_15  and  S_16
REMARK    5  A    between atoms: S_16  and  N_19
REMARK                            x       y       z     vdW  Elec       q    Type
REMARK                         _______ _______ _______ _____ _____    ______ ____
ROOT
ATOM      1  C   UNL     1       6.433   4.420  18.471  0.00  0.00    +0.000 C 
ATOM      2  C   UNL     1       7.044   5.777  18.295  0.00  0.00    +0.000 A 
ATOM      3  C   UNL     1       8.079   6.137  19.180  0.00  0.00    +0.000 A 
ATOM      4  C   UNL     1       8.653   7.418  19.185  0.00  0.00    +0.000 A 
ATOM      5  C   UNL     1       8.199   8.415  18.331  0.00  0.00    +0.000 A 
ATOM      6  C   UNL     1       7.158   8.045  17.372  0.00  0.00    +0.000 A 
ATOM      7  C   UNL     1       6.592   6.696  17.339  0.00  0.00    +0.000 A 
ENDROOT
BRANCH   5   8
ATOM      8  C   UNL     1       8.832   9.766  18.508  0.00  0.00    +0.000 A 
ATOM      9  C   UNL     1       9.362  10.750  17.705  0.00  0.00    +0.000 A 
ATOM     10  N   UNL     1       9.801  11.834  18.438  0.00  0.00    +0.000 NA
ATOM     11  C   UNL     1       9.563  11.516  19.699  0.00  0.00    +0.000 A 
ATOM     12  O   UNL     1       8.996  10.259  19.826  0.00  0.00    +0.000 OA
BRANCH  11  13
ATOM     13  C   UNL     1       9.865  12.545  20.830  0.00  0.00    +0.000 C 
ATOM     14  C   UNL     1       8.783  13.507  21.296  0.00  0.00    +0.000 C 
ATOM     15  C   UNL     1       9.259  12.440  22.218  0.00  0.00    +0.000 C 
ENDBRANCH  11  13
ENDBRANCH   5   8
BRANCH   7  16
ATOM     16  S   UNL     1       5.227   6.068  16.012  0.00  0.00    +0.000 S 
ATOM     17  O   UNL     1       5.068   7.106  15.016  0.00  0.00    +0.000 OA
ATOM     18  O   UNL     1       5.708   4.741  15.627  0.00  0.00    +0.000 OA
BRANCH  16  19
ATOM     19  N   UNL     1       3.730   5.876  16.981  0.00  0.00    +0.000 N 
ATOM     20  C   UNL     1       3.632   7.140  17.736  0.00  0.00    +0.000 C 
ATOM     21  C   UNL     1       2.829   7.223  18.983  0.00  0.00    +0.000 C 
ATOM     22  C   UNL     1       1.939   6.093  19.352  0.00  0.00    +0.000 C 
ATOM     23  C   UNL     1       2.250   4.787  18.712  0.00  0.00    +0.000 A 
ATOM     24  C   UNL     1       1.467   3.733  19.287  0.00  0.00    +0.000 A 
ATOM     25  C   UNL     1       1.579   2.438  18.849  0.00  0.00    +0.000 A 
ATOM     26  C   UNL     1       2.472   2.226  17.798  0.00  0.00    +0.000 A 
ATOM     27  C   UNL     1       3.258   3.295  17.200  0.00  0.00    +0.000 A 
ATOM     28  C   UNL     1       3.194   4.622  17.658  0.00  0.00    +0.000 A 
ENDBRANCH  16  19
ENDBRANCH   7  16
TORSDOF 4
ENDMDL
MODEL 9
REMARK VINA RESULT:      -8.1      4.279      9.315
REMARK  Name = 
REMARK  5 active torsions:
REMARK  status: ('A' for Active; 'I' for Inactive)
REMARK    1  A    between atoms: C_1  and  C_2
REMARK    2  A    between atoms: C_5  and  C_6
REMARK    3  A    between atoms: C_9  and  C_10
REMARK    4  A    between atoms: C_15  and  S_16
REMARK    5  A    between atoms: S_16  and  N_19
REMARK                            x       y       z     vdW  Elec       q    Type
REMARK                         _______ _______ _______ _____ _____    ______ ____
ROOT
ATOM      1  C   UNL     1       1.623   3.396  21.021  0.00  0.00    +0.000 C 
ATOM      2  C   UNL     1       1.856   4.734  20.389  0.00  0.00    +0.000 A 
ATOM      3  C   UNL     1       1.456   5.870  21.119  0.00  0.00    +0.000 A 
ATOM      4  C   UNL     1       1.522   7.169  20.588  0.00  0.00    +0.000 A 
ATOM      5  C   UNL     1       1.959   7.394  19.288  0.00  0.00    +0.000 A 
ATOM      6  C   UNL     1       2.425   6.231  18.533  0.00  0.00    +0.000 A 
ATOM      7  C   UNL     1       2.395   4.884  19.104  0.00  0.00    +0.000 A 
ENDROOT
BRANCH   5   8
ATOM      8  C   UNL     1       1.887   8.818  18.813  0.00  0.00    +0.000 A 
ATOM      9  C   UNL     1       2.385   9.564  17.770  0.00  0.00    +0.000 A 
ATOM     10  N   UNL     1       1.958  10.875  17.822  0.00  0.00    +0.000 NA
ATOM     11  C   UNL     1       1.211  10.950  18.911  0.00  0.00    +0.000 A 
ATOM     12  O   UNL     1       1.139   9.742  19.584  0.00  0.00    +0.000 OA
BRANCH  11  13
ATOM     13  C   UNL     1       0.486  12.283  19.264  0.00  0.00    +0.000 C 
ATOM     14  C   UNL     1       1.004  13.157  20.396  0.00  0.00    +0.000 C 
ATOM     15  C   UNL     1       1.098  13.647  18.994  0.00  0.00    +0.000 C 
ENDBRANCH  11  13
ENDBRANCH   5   8
BRANCH   7  16
ATOM     16  S   UNL     1       3.088   3.244  18.184  0.00  0.00    +0.000 S 
ATOM     17  O   UNL     1       3.007   2.144  19.122  0.00  0.00    +0.000 OA
ATOM     18  O   UNL     1       2.330   3.207  16.933  0.00  0.00    +0.000 OA
BRANCH  16  19
ATOM     19  N   UNL     1       4.796   3.641  17.809  0.00  0.00    +0.000 N 
ATOM     20  C   UNL     1       5.308   4.226  19.063  0.00  0.00    +0.000 C 
ATOM     21  C   UNL     1       6.505   5.106  19.061  0.00  0.00    +0.000 C 
ATOM     22  C   UNL     1       7.324   5.218  17.826  0.00  0.00    +0.000 C 
ATOM     23  C   UNL     1       6.650   4.817  16.563  0.00  0.00    +0.000 A 
ATOM     24  C   UNL     1       7.452   5.153  15.424  0.00  0.00    +0.000 A 
ATOM     25  C   UNL     1       7.036   4.871  14.147  0.00  0.00    +0.000 A 
ATOM     26  C   UNL     1       5.810   4.214  14.038  0.00  0.00    +0.000 A 
ATOM     27  C   UNL     1       4.999   3.856  15.192  0.00  0.00    +0.000 A 
ATOM     28  C   UNL     1       5.381   4.171  16.508  0.00  0.00    +0.000 A 
ENDBRANCH  16  19
ENDBRANCH   7  16
TORSDOF 4
ENDMDL
