MODEL 1
REMARK VINA RESULT:      -9.3      0.000      0.000
REMARK  Name = 
REMARK  10 active torsions:
REMARK  status: ('A' for Active; 'I' for Inactive)
REMARK    1  A    between atoms: C_1  and  C_2
REMARK    2  A    between atoms: C_2  and  C_3
REMARK    3  A    between atoms: C_2  and  N_17
REMARK    4  A    between atoms: C_6  and  C_7
REMARK    5  A    between atoms: N_11  and  C_12
REMARK    6  A    between atoms: C_20  and  C_21
REMARK    7  A    between atoms: C_20  and  C_25
REMARK    8  A    between atoms: C_21  and  C_22
REMARK    9  A    between atoms: C_22  and  C_23
REMARK   10  A    between atoms: C_23  and  O_24
REMARK                            x       y       z     vdW  Elec       q    Type
REMARK                         _______ _______ _______ _____ _____    ______ ____
ROOT
ATOM      1  N   UNL     1       5.314   4.658  17.895  0.00  0.00    +0.000 N 
ATOM      2  C   UNL     1       4.299   5.072  16.943  0.00  0.00    +0.000 C 
ATOM      3  C   UNL     1       2.981   4.388  17.202  0.00  0.00    +0.000 C 
ATOM      4  C   UNL     1       2.598   4.606  18.667  0.00  0.00    +0.000 C 
ATOM      5  O   UNL     1       3.672   4.103  19.494  0.00  0.00    +0.000 OA
ATOM      6  C   UNL     1       4.992   4.273  19.192  0.00  0.00    +0.000 C 
ATOM      7  O   UNL     1       5.832   4.047  20.057  0.00  0.00    +0.000 OA
ENDROOT
BRANCH   4   8
ATOM      8  C   UNL     1       2.344   6.101  18.971  0.00  0.00    +0.000 A 
ATOM      9  C   UNL     1       1.984   6.517  20.268  0.00  0.00    +0.000 A 
ATOM     10  C   UNL     1       1.627   7.843  20.525  0.00  0.00    +0.000 A 
ATOM     11  C   UNL     1       1.620   8.769  19.492  0.00  0.00    +0.000 A 
ATOM     12  F   UNL     1       1.237  10.029  19.734  0.00  0.00    +0.000 F 
ATOM     13  C   UNL     1       2.005   8.403  18.213  0.00  0.00    +0.000 A 
ATOM     14  C   UNL     1       2.382   7.082  17.957  0.00  0.00    +0.000 A 
ENDBRANCH   4   8
BRANCH   1  16
ATOM     15  C   UNL     1       7.028   4.370  16.111  0.00  0.00    +0.000 C 
ATOM     16  C   UNL     1       6.740   4.823  17.547  0.00  0.00    +0.000 C 
BRANCH  16  17
ATOM     17  C   UNL     1       7.276   6.220  17.847  0.00  0.00    +0.000 A 
ATOM     18  C   UNL     1       8.151   6.480  18.914  0.00  0.00    +0.000 A 
ATOM     19  C   UNL     1       8.648   7.767  19.142  0.00  0.00    +0.000 A 
ATOM     20  C   UNL     1       8.254   8.830  18.324  0.00  0.00    +0.000 A 
ATOM     21  C   UNL     1       7.353   8.592  17.282  0.00  0.00    +0.000 A 
ATOM     22  C   UNL     1       6.878   7.298  17.040  0.00  0.00    +0.000 A 
BRANCH  20  23
ATOM     23  C   UNL     1       8.814  10.174  18.531  0.00  0.00    +0.000 A 
ATOM     24  C   UNL     1       9.619  10.351  19.584  0.00  0.00    +0.000 A 
ATOM     25  C   UNL     1      10.181  11.691  19.813  0.00  0.00    +0.000 A 
ATOM     26  O   UNL     1      10.930  11.879  20.765  0.00  0.00    +0.000 OA
ATOM     27  N   UNL     1       9.792  12.653  18.908  0.00  0.00    +0.000 N 
ATOM     28  C   UNL     1      10.260  14.014  19.052  0.00  0.00    +0.000 C 
ATOM     29  C   UNL     1       8.968  12.330  17.861  0.00  0.00    +0.000 A 
ATOM     30  N   UNL     1       8.475  11.160  17.639  0.00  0.00    +0.000 NA
ENDBRANCH  20  23
ENDBRANCH  16  17
ENDBRANCH   1  16
BRANCH   4  31
ATOM     31  C   UNL     1       1.327   3.777  19.017  0.00  0.00    +0.000 C 
BRANCH  31  32
ATOM     32  C   UNL     1       1.574   2.552  19.920  0.00  0.00    +0.000 C 
BRANCH  32  33
ATOM     33  C   UNL     1       1.462   2.896  21.403  0.00  0.00    +0.000 C 
BRANCH  33  34
ATOM     34  O   UNL     1       2.685   2.653  22.076  0.00  0.00    +0.000 OA
ATOM     35  H   UNL     1       2.920   3.466  22.558  0.00  0.00    +0.000 HD
ENDBRANCH  33  34
ENDBRANCH  32  33
ENDBRANCH  31  32
ENDBRANCH   4  31
TORSDOF 8
ENDMDL
MODEL 2
REMARK VINA RESULT:      -9.3      0.903      1.357
REMARK  Name = 
REMARK  10 active torsions:
REMARK  status: ('A' for Active; 'I' for Inactive)
REMARK    1  A    between atoms: C_1  and  C_2
REMARK    2  A    between atoms: C_2  and  C_3
REMARK    3  A    between atoms: C_2  and  N_17
REMARK    4  A    between atoms: C_6  and  C_7
REMARK    5  A    between atoms: N_11  and  C_12
REMARK    6  A    between atoms: C_20  and  C_21
REMARK    7  A    between atoms: C_20  and  C_25
REMARK    8  A    between atoms: C_21  and  C_22
REMARK    9  A    between atoms: C_22  and  C_23
REMARK   10  A    between atoms: C_23  and  O_24
REMARK                            x       y       z     vdW  Elec       q    Type
REMARK                         _______ _______ _______ _____ _____    ______ ____
ROOT
ATOM      1  N   UNL     1       5.158   4.708  17.934  0.00  0.00    +0.000 N 
ATOM      2  C   UNL     1       4.084   5.050  17.020  0.00  0.00    +0.000 C 
ATOM      3  C   UNL     1       2.781   4.412  17.427  0.00  0.00    +0.000 C 
ATOM      4  C   UNL     1       2.502   4.764  18.889  0.00  0.00    +0.000 C 
ATOM      5  O   UNL     1       3.625   4.320  19.683  0.00  0.00    +0.000 OA
ATOM      6  C   UNL     1       4.923   4.444  19.278  0.00  0.00    +0.000 C 
ATOM      7  O   UNL     1       5.819   4.284  20.101  0.00  0.00    +0.000 OA
ENDROOT
BRANCH   4   8
ATOM      8  C   UNL     1       2.281   6.284  19.075  0.00  0.00    +0.000 A 
ATOM      9  C   UNL     1       1.908   6.805  20.329  0.00  0.00    +0.000 A 
ATOM     10  C   UNL     1       1.581   8.155  20.478  0.00  0.00    +0.000 A 
ATOM     11  C   UNL     1       1.620   9.001  19.378  0.00  0.00    +0.000 A 
ATOM     12  F   UNL     1       1.266  10.285  19.517  0.00  0.00    +0.000 F 
ATOM     13  C   UNL     1       2.019   8.530  18.138  0.00  0.00    +0.000 A 
ATOM     14  C   UNL     1       2.365   7.184  17.991  0.00  0.00    +0.000 A 
ENDBRANCH   4   8
BRANCH   1  16
ATOM     15  C   UNL     1       6.707   4.420  16.005  0.00  0.00    +0.000 C 
ATOM     16  C   UNL     1       6.558   4.820  17.477  0.00  0.00    +0.000 C 
BRANCH  16  17
ATOM     17  C   UNL     1       7.188   6.174  17.790  0.00  0.00    +0.000 A 
ATOM     18  C   UNL     1       6.929   7.323  17.026  0.00  0.00    +0.000 A 
ATOM     19  C   UNL     1       7.500   8.555  17.360  0.00  0.00    +0.000 A 
ATOM     20  C   UNL     1       8.368   8.658  18.451  0.00  0.00    +0.000 A 
ATOM     21  C   UNL     1       8.665   7.513  19.197  0.00  0.00    +0.000 A 
ATOM     22  C   UNL     1       8.072   6.288  18.877  0.00  0.00    +0.000 A 
BRANCH  20  23
ATOM     23  C   UNL     1       8.930   9.962  18.834  0.00  0.00    +0.000 A 
ATOM     24  C   UNL     1       9.211  10.825  17.851  0.00  0.00    +0.000 A 
ATOM     25  C   UNL     1       9.781  12.131  18.214  0.00  0.00    +0.000 A 
ATOM     26  O   UNL     1      10.039  12.945  17.334  0.00  0.00    +0.000 OA
ATOM     27  N   UNL     1       9.994  12.326  19.560  0.00  0.00    +0.000 N 
ATOM     28  C   UNL     1      10.579  13.562  20.031  0.00  0.00    +0.000 C 
ATOM     29  C   UNL     1       9.647  11.356  20.466  0.00  0.00    +0.000 A 
ATOM     30  N   UNL     1       9.135  10.211  20.168  0.00  0.00    +0.000 NA
ENDBRANCH  20  23
ENDBRANCH  16  17
ENDBRANCH   1  16
BRANCH   4  31
ATOM     31  C   UNL     1       1.251   3.988  19.397  0.00  0.00    +0.000 C 
BRANCH  31  32
ATOM     32  C   UNL     1       1.543   2.598  19.996  0.00  0.00    +0.000 C 
BRANCH  32  33
ATOM     33  C   UNL     1       1.428   2.589  21.517  0.00  0.00    +0.000 C 
BRANCH  33  34
ATOM     34  O   UNL     1       2.707   2.658  22.124  0.00  0.00    +0.000 OA
ATOM     35  H   UNL     1       3.247   3.276  21.599  0.00  0.00    +0.000 HD
ENDBRANCH  33  34
ENDBRANCH  32  33
ENDBRANCH  31  32
ENDBRANCH   4  31
TORSDOF 8
ENDMDL
MODEL 3
REMARK VINA RESULT:      -8.9      0.344      1.215
REMARK  Name = 
REMARK  10 active torsions:
REMARK  status: ('A' for Active; 'I' for Inactive)
REMARK    1  A    between atoms: C_1  and  C_2
REMARK    2  A    between atoms: C_2  and  C_3
REMARK    3  A    between atoms: C_2  and  N_17
REMARK    4  A    between atoms: C_6  and  C_7
REMARK    5  A    between atoms: N_11  and  C_12
REMARK    6  A    between atoms: C_20  and  C_21
REMARK    7  A    between atoms: C_20  and  C_25
REMARK    8  A    between atoms: C_21  and  C_22
REMARK    9  A    between atoms: C_22  and  C_23
REMARK   10  A    between atoms: C_23  and  O_24
REMARK                            x       y       z     vdW  Elec       q    Type
REMARK                         _______ _______ _______ _____ _____    ______ ____
ROOT
ATOM      1  N   UNL     1       5.214   4.525  17.914  0.00  0.00    +0.000 N 
ATOM      2  C   UNL     1       4.152   4.756  16.952  0.00  0.00    +0.000 C 
ATOM      3  C   UNL     1       2.873   4.069  17.358  0.00  0.00    +0.000 C 
ATOM      4  C   UNL     1       2.530   4.485  18.790  0.00  0.00    +0.000 C 
ATOM      5  O   UNL     1       3.650   4.149  19.639  0.00  0.00    +0.000 OA
ATOM      6  C   UNL     1       4.951   4.323  19.264  0.00  0.00    +0.000 C 
ATOM      7  O   UNL     1       5.828   4.258  20.120  0.00  0.00    +0.000 OA
ENDROOT
BRANCH   4   8
ATOM      8  C   UNL     1       2.221   5.998  18.883  0.00  0.00    +0.000 A 
ATOM      9  C   UNL     1       2.277   6.812  17.734  0.00  0.00    +0.000 A 
ATOM     10  C   UNL     1       2.127   8.197  17.827  0.00  0.00    +0.000 A 
ATOM     11  C   UNL     1       1.924   8.788  19.066  0.00  0.00    +0.000 A 
ATOM     12  F   UNL     1       1.823  10.121  19.156  0.00  0.00    +0.000 F 
ATOM     13  C   UNL     1       1.827   8.015  20.211  0.00  0.00    +0.000 A 
ATOM     14  C   UNL     1       1.956   6.626  20.118  0.00  0.00    +0.000 A 
ENDBRANCH   4   8
BRANCH   1  16
ATOM     15  C   UNL     1       6.844   4.185  16.062  0.00  0.00    +0.000 C 
ATOM     16  C   UNL     1       6.619   4.691  17.491  0.00  0.00    +0.000 C 
BRANCH  16  17
ATOM     17  C   UNL     1       7.153   6.104  17.711  0.00  0.00    +0.000 A 
ATOM     18  C   UNL     1       6.766   7.191  16.911  0.00  0.00    +0.000 A 
ATOM     19  C   UNL     1       7.252   8.478  17.160  0.00  0.00    +0.000 A 
ATOM     20  C   UNL     1       8.161   8.701  18.199  0.00  0.00    +0.000 A 
ATOM     21  C   UNL     1       8.583   7.620  18.979  0.00  0.00    +0.000 A 
ATOM     22  C   UNL     1       8.076   6.338  18.745  0.00  0.00    +0.000 A 
BRANCH  20  23
ATOM     23  C   UNL     1       8.634  10.061  18.495  0.00  0.00    +0.000 A 
ATOM     24  C   UNL     1       9.339  10.238  19.618  0.00  0.00    +0.000 A 
ATOM     25  C   UNL     1       9.814  11.593  19.935  0.00  0.00    +0.000 A 
ATOM     26  O   UNL     1      10.470  11.782  20.953  0.00  0.00    +0.000 OA
ATOM     27  N   UNL     1       9.455  12.568  19.031  0.00  0.00    +0.000 N 
ATOM     28  C   UNL     1       9.842  13.943  19.256  0.00  0.00    +0.000 C 
ATOM     29  C   UNL     1       8.738  12.244  17.909  0.00  0.00    +0.000 A 
ATOM     30  N   UNL     1       8.323  11.061  17.608  0.00  0.00    +0.000 NA
ENDBRANCH  20  23
ENDBRANCH  16  17
ENDBRANCH   1  16
BRANCH   4  31
ATOM     31  C   UNL     1       1.307   3.669  19.305  0.00  0.00    +0.000 C 
BRANCH  31  32
ATOM     32  C   UNL     1       1.660   2.416  20.132  0.00  0.00    +0.000 C 
BRANCH  32  33
ATOM     33  C   UNL     1       1.382   2.611  21.620  0.00  0.00    +0.000 C 
BRANCH  33  34
ATOM     34  O   UNL     1       2.489   3.211  22.270  0.00  0.00    +0.000 OA
ATOM     35  H   UNL     1       2.153   3.664  23.063  0.00  0.00    +0.000 HD
ENDBRANCH  33  34
ENDBRANCH  32  33
ENDBRANCH  31  32
ENDBRANCH   4  31
TORSDOF 8
ENDMDL
MODEL 4
REMARK VINA RESULT:      -8.7      1.213      1.415
REMARK  Name = 
REMARK  10 active torsions:
REMARK  status: ('A' for Active; 'I' for Inactive)
REMARK    1  A    between atoms: C_1  and  C_2
REMARK    2  A    between atoms: C_2  and  C_3
REMARK    3  A    between atoms: C_2  and  N_17
REMARK    4  A    between atoms: C_6  and  C_7
REMARK    5  A    between atoms: N_11  and  C_12
REMARK    6  A    between atoms: C_20  and  C_21
REMARK    7  A    between atoms: C_20  and  C_25
REMARK    8  A    between atoms: C_21  and  C_22
REMARK    9  A    between atoms: C_22  and  C_23
REMARK   10  A    between atoms: C_23  and  O_24
REMARK                            x       y       z     vdW  Elec       q    Type
REMARK                         _______ _______ _______ _____ _____    ______ ____
ROOT
ATOM      1  N   UNL     1       5.318   5.062  17.832  0.00  0.00    +0.000 N 
ATOM      2  C   UNL     1       4.213   5.342  16.934  0.00  0.00    +0.000 C 
ATOM      3  C   UNL     1       2.951   4.643  17.367  0.00  0.00    +0.000 C 
ATOM      4  C   UNL     1       2.678   4.993  18.831  0.00  0.00    +0.000 C 
ATOM      5  O   UNL     1       3.835   4.614  19.610  0.00  0.00    +0.000 OA
ATOM      6  C   UNL     1       5.118   4.799  19.183  0.00  0.00    +0.000 C 
ATOM      7  O   UNL     1       6.034   4.691  19.992  0.00  0.00    +0.000 OA
ENDROOT
BRANCH   4   8
ATOM      8  C   UNL     1       2.384   6.502  19.009  0.00  0.00    +0.000 A 
ATOM      9  C   UNL     1       1.981   7.011  20.259  0.00  0.00    +0.000 A 
ATOM     10  C   UNL     1       1.590   8.344  20.400  0.00  0.00    +0.000 A 
ATOM     11  C   UNL     1       1.592   9.185  19.296  0.00  0.00    +0.000 A 
ATOM     12  F   UNL     1       1.176  10.452  19.428  0.00  0.00    +0.000 F 
ATOM     13  C   UNL     1       2.018   8.728  18.060  0.00  0.00    +0.000 A 
ATOM     14  C   UNL     1       2.429   7.399  17.921  0.00  0.00    +0.000 A 
ENDBRANCH   4   8
BRANCH   1  16
ATOM     15  C   UNL     1       6.812   5.005  15.841  0.00  0.00    +0.000 C 
ATOM     16  C   UNL     1       6.703   5.241  17.352  0.00  0.00    +0.000 C 
BRANCH  16  17
ATOM     17  C   UNL     1       7.329   6.561  17.793  0.00  0.00    +0.000 A 
ATOM     18  C   UNL     1       8.206   6.653  18.886  0.00  0.00    +0.000 A 
ATOM     19  C   UNL     1       8.785   7.874  19.244  0.00  0.00    +0.000 A 
ATOM     20  C   UNL     1       8.476   9.038  18.534  0.00  0.00    +0.000 A 
ATOM     21  C   UNL     1       7.574   8.966  17.468  0.00  0.00    +0.000 A 
ATOM     22  C   UNL     1       7.015   7.739  17.095  0.00  0.00    +0.000 A 
BRANCH  20  23
ATOM     23  C   UNL     1       9.122  10.313  18.877  0.00  0.00    +0.000 A 
ATOM     24  C   UNL     1       9.380  11.163  17.875  0.00  0.00    +0.000 A 
ATOM     25  C   UNL     1      10.034  12.439  18.198  0.00  0.00    +0.000 A 
ATOM     26  O   UNL     1      10.274  13.240  17.301  0.00  0.00    +0.000 OA
ATOM     27  N   UNL     1      10.340  12.624  19.527  0.00  0.00    +0.000 N 
ATOM     28  C   UNL     1      11.012  13.831  19.956  0.00  0.00    +0.000 C 
ATOM     29  C   UNL     1      10.005  11.673  20.456  0.00  0.00    +0.000 A 
ATOM     30  N   UNL     1       9.422  10.553  20.194  0.00  0.00    +0.000 NA
ENDBRANCH  20  23
ENDBRANCH  16  17
ENDBRANCH   1  16
BRANCH   4  31
ATOM     31  C   UNL     1       1.476   4.160  19.366  0.00  0.00    +0.000 C 
BRANCH  31  32
ATOM     32  C   UNL     1       1.225   2.828  18.631  0.00  0.00    +0.000 C 
BRANCH  32  33
ATOM     33  C   UNL     1       2.003   1.672  19.252  0.00  0.00    +0.000 C 
BRANCH  33  34
ATOM     34  O   UNL     1       3.058   1.254  18.402  0.00  0.00    +0.000 OA
ATOM     35  H   UNL     1       3.695   1.987  18.345  0.00  0.00    +0.000 HD
ENDBRANCH  33  34
ENDBRANCH  32  33
ENDBRANCH  31  32
ENDBRANCH   4  31
TORSDOF 8
ENDMDL
MODEL 5
REMARK VINA RESULT:      -8.1      1.180      1.816
REMARK  Name = 
REMARK  10 active torsions:
REMARK  status: ('A' for Active; 'I' for Inactive)
REMARK    1  A    between atoms: C_1  and  C_2
REMARK    2  A    between atoms: C_2  and  C_3
REMARK    3  A    between atoms: C_2  and  N_17
REMARK    4  A    between atoms: C_6  and  C_7
REMARK    5  A    between atoms: N_11  and  C_12
REMARK    6  A    between atoms: C_20  and  C_21
REMARK    7  A    between atoms: C_20  and  C_25
REMARK    8  A    between atoms: C_21  and  C_22
REMARK    9  A    between atoms: C_22  and  C_23
REMARK   10  A    between atoms: C_23  and  O_24
REMARK                            x       y       z     vdW  Elec       q    Type
REMARK                         _______ _______ _______ _____ _____    ______ ____
ROOT
ATOM      1  N   UNL     1       5.261   4.720  17.822  0.00  0.00    +0.000 N 
ATOM      2  C   UNL     1       4.203   4.959  16.858  0.00  0.00    +0.000 C 
ATOM      3  C   UNL     1       2.919   4.280  17.260  0.00  0.00    +0.000 C 
ATOM      4  C   UNL     1       2.575   4.696  18.691  0.00  0.00    +0.000 C 
ATOM      5  O   UNL     1       3.691   4.353  19.543  0.00  0.00    +0.000 OA
ATOM      6  C   UNL     1       4.994   4.518  19.172  0.00  0.00    +0.000 C 
ATOM      7  O   UNL     1       5.869   4.448  20.029  0.00  0.00    +0.000 OA
ENDROOT
BRANCH   4   8
ATOM      8  C   UNL     1       2.276   6.211  18.785  0.00  0.00    +0.000 A 
ATOM      9  C   UNL     1       2.399   7.037  17.650  0.00  0.00    +0.000 A 
ATOM     10  C   UNL     1       2.258   8.423  17.751  0.00  0.00    +0.000 A 
ATOM     11  C   UNL     1       1.995   9.003  18.984  0.00  0.00    +0.000 A 
ATOM     12  F   UNL     1       1.902  10.335  19.083  0.00  0.00    +0.000 F 
ATOM     13  C   UNL     1       1.831   8.218  20.113  0.00  0.00    +0.000 A 
ATOM     14  C   UNL     1       1.953   6.830  20.011  0.00  0.00    +0.000 A 
ENDBRANCH   4   8
BRANCH   1  16
ATOM     15  C   UNL     1       6.868   4.488  15.934  0.00  0.00    +0.000 C 
ATOM     16  C   UNL     1       6.669   4.877  17.403  0.00  0.00    +0.000 C 
BRANCH  16  17
ATOM     17  C   UNL     1       7.248   6.249  17.737  0.00  0.00    +0.000 A 
ATOM     18  C   UNL     1       6.938   7.401  16.998  0.00  0.00    +0.000 A 
ATOM     19  C   UNL     1       7.464   8.648  17.351  0.00  0.00    +0.000 A 
ATOM     20  C   UNL     1       8.338   8.763  18.437  0.00  0.00    +0.000 A 
ATOM     21  C   UNL     1       8.685   7.617  19.157  0.00  0.00    +0.000 A 
ATOM     22  C   UNL     1       8.138   6.375  18.818  0.00  0.00    +0.000 A 
BRANCH  20  23
ATOM     23  C   UNL     1       8.852  10.080  18.840  0.00  0.00    +0.000 A 
ATOM     24  C   UNL     1       8.932  11.027  17.898  0.00  0.00    +0.000 A 
ATOM     25  C   UNL     1       9.452  12.347  18.280  0.00  0.00    +0.000 A 
ATOM     26  O   UNL     1       9.527  13.236  17.438  0.00  0.00    +0.000 OA
ATOM     27  N   UNL     1       9.834  12.470  19.597  0.00  0.00    +0.000 N 
ATOM     28  C   UNL     1      10.388  13.716  20.079  0.00  0.00    +0.000 C 
ATOM     29  C   UNL     1       9.685  11.418  20.464  0.00  0.00    +0.000 A 
ATOM     30  N   UNL     1       9.221  10.257  20.150  0.00  0.00    +0.000 NA
ENDBRANCH  20  23
ENDBRANCH  16  17
ENDBRANCH   1  16
BRANCH   4  31
ATOM     31  C   UNL     1       1.346   3.888  19.203  0.00  0.00    +0.000 C 
BRANCH  31  32
ATOM     32  C   UNL     1       1.227   2.457  18.644  0.00  0.00    +0.000 C 
BRANCH  32  33
ATOM     33  C   UNL     1       2.172   1.483  19.343  0.00  0.00    +0.000 C 
BRANCH  33  34
ATOM     34  O   UNL     1       3.303   1.205  18.535  0.00  0.00    +0.000 OA
ATOM     35  H   UNL     1       3.597   0.301  18.746  0.00  0.00    +0.000 HD
ENDBRANCH  33  34
ENDBRANCH  32  33
ENDBRANCH  31  32
ENDBRANCH   4  31
TORSDOF 8
ENDMDL
MODEL 6
REMARK VINA RESULT:      -7.8      1.293      1.694
REMARK  Name = 
REMARK  10 active torsions:
REMARK  status: ('A' for Active; 'I' for Inactive)
REMARK    1  A    between atoms: C_1  and  C_2
REMARK    2  A    between atoms: C_2  and  C_3
REMARK    3  A    between atoms: C_2  and  N_17
REMARK    4  A    between atoms: C_6  and  C_7
REMARK    5  A    between atoms: N_11  and  C_12
REMARK    6  A    between atoms: C_20  and  C_21
REMARK    7  A    between atoms: C_20  and  C_25
REMARK    8  A    between atoms: C_21  and  C_22
REMARK    9  A    between atoms: C_22  and  C_23
REMARK   10  A    between atoms: C_23  and  O_24
REMARK                            x       y       z     vdW  Elec       q    Type
REMARK                         _______ _______ _______ _____ _____    ______ ____
ROOT
ATOM      1  N   UNL     1       5.530   5.450  17.832  0.00  0.00    +0.000 N 
ATOM      2  C   UNL     1       4.427   5.653  16.912  0.00  0.00    +0.000 C 
ATOM      3  C   UNL     1       3.183   4.933  17.366  0.00  0.00    +0.000 C 
ATOM      4  C   UNL     1       2.884   5.340  18.810  0.00  0.00    +0.000 C 
ATOM      5  O   UNL     1       4.044   5.034  19.616  0.00  0.00    +0.000 OA
ATOM      6  C   UNL     1       5.325   5.242  19.191  0.00  0.00    +0.000 C 
ATOM      7  O   UNL     1       6.236   5.201  20.013  0.00  0.00    +0.000 OA
ENDROOT
BRANCH   4   8
ATOM      8  C   UNL     1       2.539   6.845  18.915  0.00  0.00    +0.000 A 
ATOM      9  C   UNL     1       2.012   7.376  20.109  0.00  0.00    +0.000 A 
ATOM     10  C   UNL     1       1.578   8.702  20.174  0.00  0.00    +0.000 A 
ATOM     11  C   UNL     1       1.661   9.513  19.051  0.00  0.00    +0.000 A 
ATOM     12  F   UNL     1       1.205  10.771  19.107  0.00  0.00    +0.000 F 
ATOM     13  C   UNL     1       2.208   9.034  17.873  0.00  0.00    +0.000 A 
ATOM     14  C   UNL     1       2.662   7.713  17.810  0.00  0.00    +0.000 A 
ENDBRANCH   4   8
BRANCH   1  16
ATOM     15  C   UNL     1       7.045   5.360  15.857  0.00  0.00    +0.000 C 
ATOM     16  C   UNL     1       6.914   5.653  17.356  0.00  0.00    +0.000 C 
BRANCH  16  17
ATOM     17  C   UNL     1       7.495   7.008  17.749  0.00  0.00    +0.000 A 
ATOM     18  C   UNL     1       7.151   8.198  17.088  0.00  0.00    +0.000 A 
ATOM     19  C   UNL     1       7.680   9.427  17.495  0.00  0.00    +0.000 A 
ATOM     20  C   UNL     1       8.590   9.488  18.555  0.00  0.00    +0.000 A 
ATOM     21  C   UNL     1       8.970   8.305  19.196  0.00  0.00    +0.000 A 
ATOM     22  C   UNL     1       8.420   7.080  18.804  0.00  0.00    +0.000 A 
BRANCH  20  23
ATOM     23  C   UNL     1       9.109  10.784  19.016  0.00  0.00    +0.000 A 
ATOM     24  C   UNL     1       9.354  11.716  18.087  0.00  0.00    +0.000 A 
ATOM     25  C   UNL     1       9.882  13.016  18.529  0.00  0.00    +0.000 A 
ATOM     26  O   UNL     1      10.106  13.891  17.700  0.00  0.00    +0.000 OA
ATOM     27  N   UNL     1      10.095  13.134  19.884  0.00  0.00    +0.000 N 
ATOM     28  C   UNL     1      10.639  14.358  20.428  0.00  0.00    +0.000 C 
ATOM     29  C   UNL     1       9.785  12.099  20.728  0.00  0.00    +0.000 A 
ATOM     30  N   UNL     1       9.312  10.958  20.362  0.00  0.00    +0.000 NA
ENDBRANCH  20  23
ENDBRANCH  16  17
ENDBRANCH   1  16
BRANCH   4  31
ATOM     31  C   UNL     1       1.704   4.493  19.371  0.00  0.00    +0.000 C 
BRANCH  31  32
ATOM     32  C   UNL     1       1.296   3.286  18.504  0.00  0.00    +0.000 C 
BRANCH  32  33
ATOM     33  C   UNL     1       0.649   2.176  19.328  0.00  0.00    +0.000 C 
BRANCH  33  34
ATOM     34  O   UNL     1       0.556   2.544  20.693  0.00  0.00    +0.000 OA
ATOM     35  H   UNL     1       1.446   2.811  20.986  0.00  0.00    +0.000 HD
ENDBRANCH  33  34
ENDBRANCH  32  33
ENDBRANCH  31  32
ENDBRANCH   4  31
TORSDOF 8
ENDMDL
MODEL 7
REMARK VINA RESULT:      -7.7      0.994      1.036
REMARK  Name = 
REMARK  10 active torsions:
REMARK  status: ('A' for Active; 'I' for Inactive)
REMARK    1  A    between atoms: C_1  and  C_2
REMARK    2  A    between atoms: C_2  and  C_3
REMARK    3  A    between atoms: C_2  and  N_17
REMARK    4  A    between atoms: C_6  and  C_7
REMARK    5  A    between atoms: N_11  and  C_12
REMARK    6  A    between atoms: C_20  and  C_21
REMARK    7  A    between atoms: C_20  and  C_25
REMARK    8  A    between atoms: C_21  and  C_22
REMARK    9  A    between atoms: C_22  and  C_23
REMARK   10  A    between atoms: C_23  and  O_24
REMARK                            x       y       z     vdW  Elec       q    Type
REMARK                         _______ _______ _______ _____ _____    ______ ____
ROOT
ATOM      1  N   UNL     1       5.650   5.021  18.093  0.00  0.00    +0.000 N 
ATOM      2  C   UNL     1       4.912   5.623  16.998  0.00  0.00    +0.000 C 
ATOM      3  C   UNL     1       3.579   4.952  16.789  0.00  0.00    +0.000 C 
ATOM      4  C   UNL     1       2.828   4.935  18.121  0.00  0.00    +0.000 C 
ATOM      5  O   UNL     1       3.656   4.263  19.098  0.00  0.00    +0.000 OA
ATOM      6  C   UNL     1       5.007   4.436  19.178  0.00  0.00    +0.000 C 
ATOM      7  O   UNL     1       5.597   4.040  20.178  0.00  0.00    +0.000 OA
ENDROOT
BRANCH   4   8
ATOM      8  C   UNL     1       2.488   6.366  18.600  0.00  0.00    +0.000 A 
ATOM      9  C   UNL     1       2.202   6.618  19.957  0.00  0.00    +0.000 A 
ATOM     10  C   UNL     1       1.769   7.877  20.378  0.00  0.00    +0.000 A 
ATOM     11  C   UNL     1       1.613   8.899  19.453  0.00  0.00    +0.000 A 
ATOM     12  F   UNL     1       1.158  10.093  19.854  0.00  0.00    +0.000 F 
ATOM     13  C   UNL     1       1.921   8.697  18.118  0.00  0.00    +0.000 A 
ATOM     14  C   UNL     1       2.373   7.443  17.697  0.00  0.00    +0.000 A 
ENDBRANCH   4   8
BRANCH   1  16
ATOM     15  C   UNL     1       7.828   4.374  17.075  0.00  0.00    +0.000 C 
ATOM     16  C   UNL     1       7.115   5.193  18.156  0.00  0.00    +0.000 C 
BRANCH  16  17
ATOM     17  C   UNL     1       7.551   6.655  18.177  0.00  0.00    +0.000 A 
ATOM     18  C   UNL     1       8.455   7.161  19.126  0.00  0.00    +0.000 A 
ATOM     19  C   UNL     1       8.856   8.500  19.097  0.00  0.00    +0.000 A 
ATOM     20  C   UNL     1       8.337   9.372  18.135  0.00  0.00    +0.000 A 
ATOM     21  C   UNL     1       7.407   8.890  17.209  0.00  0.00    +0.000 A 
ATOM     22  C   UNL     1       7.027   7.544  17.223  0.00  0.00    +0.000 A 
BRANCH  20  23
ATOM     23  C   UNL     1       8.795  10.767  18.071  0.00  0.00    +0.000 A 
ATOM     24  C   UNL     1      10.035  11.030  18.502  0.00  0.00    +0.000 A 
ATOM     25  C   UNL     1      10.508  12.421  18.454  0.00  0.00    +0.000 A 
ATOM     26  O   UNL     1      11.643  12.688  18.833  0.00  0.00    +0.000 OA
ATOM     27  N   UNL     1       9.595  13.336  17.980  0.00  0.00    +0.000 N 
ATOM     28  C   UNL     1       9.940  14.739  17.917  0.00  0.00    +0.000 C 
ATOM     29  C   UNL     1       8.356  12.927  17.557  0.00  0.00    +0.000 A 
ATOM     30  N   UNL     1       7.928  11.711  17.581  0.00  0.00    +0.000 NA
ENDBRANCH  20  23
ENDBRANCH  16  17
ENDBRANCH   1  16
BRANCH   4  31
ATOM     31  C   UNL     1       1.518   4.103  17.987  0.00  0.00    +0.000 C 
BRANCH  31  32
ATOM     32  C   UNL     1       1.658   2.604  18.320  0.00  0.00    +0.000 C 
BRANCH  32  33
ATOM     33  C   UNL     1       1.180   2.280  19.732  0.00  0.00    +0.000 C 
BRANCH  33  34
ATOM     34  O   UNL     1       0.706   3.444  20.388  0.00  0.00    +0.000 OA
ATOM     35  H   UNL     1       1.031   3.415  21.305  0.00  0.00    +0.000 HD
ENDBRANCH  33  34
ENDBRANCH  32  33
ENDBRANCH  31  32
ENDBRANCH   4  31
TORSDOF 8
ENDMDL
MODEL 8
REMARK VINA RESULT:      -7.6      0.895      1.324
REMARK  Name = 
REMARK  10 active torsions:
REMARK  status: ('A' for Active; 'I' for Inactive)
REMARK    1  A    between atoms: C_1  and  C_2
REMARK    2  A    between atoms: C_2  and  C_3
REMARK    3  A    between atoms: C_2  and  N_17
REMARK    4  A    between atoms: C_6  and  C_7
REMARK    5  A    between atoms: N_11  and  C_12
REMARK    6  A    between atoms: C_20  and  C_21
REMARK    7  A    between atoms: C_20  and  C_25
REMARK    8  A    between atoms: C_21  and  C_22
REMARK    9  A    between atoms: C_22  and  C_23
REMARK   10  A    between atoms: C_23  and  O_24
REMARK                            x       y       z     vdW  Elec       q    Type
REMARK                         _______ _______ _______ _____ _____    ______ ____
ROOT
ATOM      1  N   UNL     1       5.399   4.991  17.869  0.00  0.00    +0.000 N 
ATOM      2  C   UNL     1       4.207   5.013  17.041  0.00  0.00    +0.000 C 
ATOM      3  C   UNL     1       3.081   4.231  17.666  0.00  0.00    +0.000 C 
ATOM      4  C   UNL     1       2.867   4.740  19.093  0.00  0.00    +0.000 C 
ATOM      5  O   UNL     1       4.115   4.611  19.810  0.00  0.00    +0.000 OA
ATOM      6  C   UNL     1       5.330   4.890  19.254  0.00  0.00    +0.000 C 
ATOM      7  O   UNL     1       6.306   5.004  19.988  0.00  0.00    +0.000 OA
ENDROOT
BRANCH   4   8
ATOM      8  C   UNL     1       2.392   6.212  19.105  0.00  0.00    +0.000 A 
ATOM      9  C   UNL     1       2.506   7.011  17.950  0.00  0.00    +0.000 A 
ATOM     10  C   UNL     1       2.201   8.373  17.986  0.00  0.00    +0.000 A 
ATOM     11  C   UNL     1       1.781   8.957  19.172  0.00  0.00    +0.000 A 
ATOM     12  F   UNL     1       1.530  10.271  19.212  0.00  0.00    +0.000 F 
ATOM     13  C   UNL     1       1.622   8.194  20.317  0.00  0.00    +0.000 A 
ATOM     14  C   UNL     1       1.908   6.826  20.279  0.00  0.00    +0.000 A 
ENDBRANCH   4   8
BRANCH   1  16
ATOM     15  C   UNL     1       6.687   5.033  15.738  0.00  0.00    +0.000 C 
ATOM     16  C   UNL     1       6.712   5.270  17.252  0.00  0.00    +0.000 C 
BRANCH  16  17
ATOM     17  C   UNL     1       7.279   6.635  17.630  0.00  0.00    +0.000 A 
ATOM     18  C   UNL     1       8.253   6.798  18.629  0.00  0.00    +0.000 A 
ATOM     19  C   UNL     1       8.773   8.061  18.929  0.00  0.00    +0.000 A 
ATOM     20  C   UNL     1       8.307   9.194  18.256  0.00  0.00    +0.000 A 
ATOM     21  C   UNL     1       7.310   9.050  17.286  0.00  0.00    +0.000 A 
ATOM     22  C   UNL     1       6.810   7.782  16.969  0.00  0.00    +0.000 A 
BRANCH  20  23
ATOM     23  C   UNL     1       8.888  10.516  18.534  0.00  0.00    +0.000 A 
ATOM     24  C   UNL     1       9.745  10.609  19.558  0.00  0.00    +0.000 A 
ATOM     25  C   UNL     1      10.329  11.925  19.857  0.00  0.00    +0.000 A 
ATOM     26  O   UNL     1      11.125  12.037  20.784  0.00  0.00    +0.000 OA
ATOM     27  N   UNL     1       9.906  12.954  19.047  0.00  0.00    +0.000 N 
ATOM     28  C   UNL     1      10.393  14.298  19.268  0.00  0.00    +0.000 C 
ATOM     29  C   UNL     1       9.030  12.715  18.020  0.00  0.00    +0.000 A 
ATOM     30  N   UNL     1       8.516  11.567  17.736  0.00  0.00    +0.000 NA
ENDBRANCH  20  23
ENDBRANCH  16  17
ENDBRANCH   1  16
BRANCH   4  31
ATOM     31  C   UNL     1       1.824   3.848  19.829  0.00  0.00    +0.000 C 
BRANCH  31  32
ATOM     32  C   UNL     1       2.052   2.329  19.692  0.00  0.00    +0.000 C 
BRANCH  32  33
ATOM     33  C   UNL     1       0.835   1.614  19.112  0.00  0.00    +0.000 C 
BRANCH  33  34
ATOM     34  O   UNL     1       0.086   2.480  18.276  0.00  0.00    +0.000 OA
ATOM     35  H   UNL     1      -0.757   2.664  18.726  0.00  0.00    +0.000 HD
ENDBRANCH  33  34
ENDBRANCH  32  33
ENDBRANCH  31  32
ENDBRANCH   4  31
TORSDOF 8
ENDMDL
MODEL 9
REMARK VINA RESULT:      -7.4      1.273      1.431
REMARK  Name = 
REMARK  10 active torsions:
REMARK  status: ('A' for Active; 'I' for Inactive)
REMARK    1  A    between atoms: C_1  and  C_2
REMARK    2  A    between atoms: C_2  and  C_3
REMARK    3  A    between atoms: C_2  and  N_17
REMARK    4  A    between atoms: C_6  and  C_7
REMARK    5  A    between atoms: N_11  and  C_12
REMARK    6  A    between atoms: C_20  and  C_21
REMARK    7  A    between atoms: C_20  and  C_25
REMARK    8  A    between atoms: C_21  and  C_22
REMARK    9  A    between atoms: C_22  and  C_23
REMARK   10  A    between atoms: C_23  and  O_24
REMARK                            x       y       z     vdW  Elec       q    Type
REMARK                         _______ _______ _______ _____ _____    ______ ____
ROOT
ATOM      1  N   UNL     1       5.591   5.089  18.145  0.00  0.00    +0.000 N 
ATOM      2  C   UNL     1       4.856   5.738  17.075  0.00  0.00    +0.000 C 
ATOM      3  C   UNL     1       3.516   5.088  16.845  0.00  0.00    +0.000 C 
ATOM      4  C   UNL     1       2.768   5.028  18.179  0.00  0.00    +0.000 C 
ATOM      5  O   UNL     1       3.592   4.313  19.127  0.00  0.00    +0.000 OA
ATOM      6  C   UNL     1       4.946   4.470  19.210  0.00  0.00    +0.000 C 
ATOM      7  O   UNL     1       5.534   4.032  20.193  0.00  0.00    +0.000 OA
ENDROOT
BRANCH   4   8
ATOM      8  C   UNL     1       2.443   6.444  18.711  0.00  0.00    +0.000 A 
ATOM      9  C   UNL     1       2.163   6.648  20.077  0.00  0.00    +0.000 A 
ATOM     10  C   UNL     1       1.744   7.895  20.545  0.00  0.00    +0.000 A 
ATOM     11  C   UNL     1       1.595   8.952  19.659  0.00  0.00    +0.000 A 
ATOM     12  F   UNL     1       1.152  10.134  20.106  0.00  0.00    +0.000 F 
ATOM     13  C   UNL     1       1.897   8.796  18.316  0.00  0.00    +0.000 A 
ATOM     14  C   UNL     1       2.336   7.555  17.848  0.00  0.00    +0.000 A 
ENDBRANCH   4   8
BRANCH   1  16
ATOM     15  C   UNL     1       7.765   4.399  17.145  0.00  0.00    +0.000 C 
ATOM     16  C   UNL     1       7.058   5.245  18.210  0.00  0.00    +0.000 C 
BRANCH  16  17
ATOM     17  C   UNL     1       7.512   6.701  18.208  0.00  0.00    +0.000 A 
ATOM     18  C   UNL     1       8.441   7.205  19.133  0.00  0.00    +0.000 A 
ATOM     19  C   UNL     1       8.857   8.539  19.083  0.00  0.00    +0.000 A 
ATOM     20  C   UNL     1       8.328   9.408  18.123  0.00  0.00    +0.000 A 
ATOM     21  C   UNL     1       7.373   8.928  17.222  0.00  0.00    +0.000 A 
ATOM     22  C   UNL     1       6.978   7.587  17.257  0.00  0.00    +0.000 A 
BRANCH  20  23
ATOM     23  C   UNL     1       8.801  10.798  18.037  0.00  0.00    +0.000 A 
ATOM     24  C   UNL     1       7.890  11.744  17.779  0.00  0.00    +0.000 A 
ATOM     25  C   UNL     1       8.345  13.138  17.680  0.00  0.00    +0.000 A 
ATOM     26  O   UNL     1       7.531  14.026  17.453  0.00  0.00    +0.000 OA
ATOM     27  N   UNL     1       9.699  13.328  17.846  0.00  0.00    +0.000 N 
ATOM     28  C   UNL     1      10.263  14.655  17.741  0.00  0.00    +0.000 C 
ATOM     29  C   UNL     1      10.520  12.266  18.121  0.00  0.00    +0.000 A 
ATOM     30  N   UNL     1      10.139  11.039  18.222  0.00  0.00    +0.000 NA
ENDBRANCH  20  23
ENDBRANCH  16  17
ENDBRANCH   1  16
BRANCH   4  31
ATOM     31  C   UNL     1       1.450   4.215  18.017  0.00  0.00    +0.000 C 
BRANCH  31  32
ATOM     32  C   UNL     1       1.414   2.872  18.774  0.00  0.00    +0.000 C 
BRANCH  32  33
ATOM     33  C   UNL     1       0.901   3.029  20.203  0.00  0.00    +0.000 C 
BRANCH  33  34
ATOM     34  O   UNL     1       1.962   2.929  21.138  0.00  0.00    +0.000 OA
ATOM     35  H   UNL     1       2.301   2.017  21.100  0.00  0.00    +0.000 HD
ENDBRANCH  33  34
ENDBRANCH  32  33
ENDBRANCH  31  32
ENDBRANCH   4  31
TORSDOF 8
ENDMDL
