MODEL 1
REMARK VINA RESULT:      -7.4      0.000      0.000
REMARK  Name = 
REMARK  7 active torsions:
REMARK  status: ('A' for Active; 'I' for Inactive)
REMARK    1  A    between atoms: C_2  and  O_3
REMARK    2  A    between atoms: C_2  and  C_4
REMARK    3  A    between atoms: C_4  and  C_5
REMARK    4  A    between atoms: C_5  and  N_6
REMARK    5  A    between atoms: N_6  and  C_7
REMARK    6  A    between atoms: C_16  and  C_17
REMARK    7  A    between atoms: C_17  and  O_19
REMARK                            x       y       z     vdW  Elec       q    Type
REMARK                         _______ _______ _______ _____ _____    ______ ____
ROOT
ATOM      1  C   UNL     1       4.991   3.984  17.432  0.00  0.00    +0.000 A 
ATOM      2  C   UNL     1       3.755   3.314  17.457  0.00  0.00    +0.000 A 
ATOM      3  C   UNL     1       2.847   3.450  18.522  0.00  0.00    +0.000 A 
ATOM      4  C   UNL     1       1.591   2.824  18.486  0.00  0.00    +0.000 A 
ATOM      5  C   UNL     1       0.687   2.980  19.536  0.00  0.00    +0.000 A 
ATOM      6  C   UNL     1       1.036   3.748  20.642  0.00  0.00    +0.000 A 
ATOM      7  C   UNL     1       2.284   4.371  20.695  0.00  0.00    +0.000 A 
ATOM      8  C   UNL     1       3.194   4.241  19.635  0.00  0.00    +0.000 A 
ATOM      9  C   UNL     1       4.438   4.884  19.647  0.00  0.00    +0.000 A 
ATOM     10  C   UNL     1       5.327   4.765  18.564  0.00  0.00    +0.000 A 
ENDROOT
BRANCH   1  11
ATOM     11  N   UNL     1       5.894   3.876  16.334  0.00  0.00    +0.000 N 
ATOM     12  H   UNL     1       6.746   4.395  16.586  0.00  0.00    +0.000 HD
BRANCH  11  13
ATOM     13  C   UNL     1       5.404   4.328  15.013  0.00  0.00    +0.000 C 
BRANCH  13  14
ATOM     14  C   UNL     1       6.431   4.029  13.928  0.00  0.00    +0.000 C 
BRANCH  14  16
ATOM     15  O   UNL     1       7.990   5.545  12.856  0.00  0.00    +0.000 OA
ATOM     16  C   UNL     1       7.456   5.131  13.875  0.00  0.00    +0.000 C 
BRANCH  16  17
ATOM     17  O   UNL     1       7.741   5.640  15.094  0.00  0.00    +0.000 OA
ATOM     18  H   UNL     1       8.695   5.766  15.268  0.00  0.00    +0.000 HD
ENDBRANCH  16  17
ENDBRANCH  14  16
ENDBRANCH  13  14
ENDBRANCH  11  13
ENDBRANCH   1  11
BRANCH  10  19
ATOM     19  C   UNL     1       6.610   5.515  18.688  0.00  0.00    +0.000 C 
ATOM     20  O   UNL     1       7.073   6.199  17.789  0.00  0.00    +0.000 OA
BRANCH  19  21
ATOM     21  O   UNL     1       7.196   5.396  19.899  0.00  0.00    +0.000 OA
ATOM     22  H   UNL     1       6.597   5.699  20.621  0.00  0.00    +0.000 HD
ENDBRANCH  19  21
ENDBRANCH  10  19
TORSDOF 7
ENDMDL
MODEL 2
REMARK VINA RESULT:      -7.4      1.710      3.175
REMARK  Name = 
REMARK  7 active torsions:
REMARK  status: ('A' for Active; 'I' for Inactive)
REMARK    1  A    between atoms: C_2  and  O_3
REMARK    2  A    between atoms: C_2  and  C_4
REMARK    3  A    between atoms: C_4  and  C_5
REMARK    4  A    between atoms: C_5  and  N_6
REMARK    5  A    between atoms: N_6  and  C_7
REMARK    6  A    between atoms: C_16  and  C_17
REMARK    7  A    between atoms: C_17  and  O_19
REMARK                            x       y       z     vdW  Elec       q    Type
REMARK                         _______ _______ _______ _____ _____    ______ ____
ROOT
ATOM      1  C   UNL     1       5.381   4.115  18.414  0.00  0.00    +0.000 A 
ATOM      2  C   UNL     1       4.637   3.955  19.596  0.00  0.00    +0.000 A 
ATOM      3  C   UNL     1       3.279   3.591  19.585  0.00  0.00    +0.000 A 
ATOM      4  C   UNL     1       2.579   3.371  20.783  0.00  0.00    +0.000 A 
ATOM      5  C   UNL     1       1.239   2.990  20.766  0.00  0.00    +0.000 A 
ATOM      6  C   UNL     1       0.576   2.843  19.551  0.00  0.00    +0.000 A 
ATOM      7  C   UNL     1       1.256   3.065  18.353  0.00  0.00    +0.000 A 
ATOM      8  C   UNL     1       2.612   3.427  18.355  0.00  0.00    +0.000 A 
ATOM      9  C   UNL     1       3.326   3.621  17.167  0.00  0.00    +0.000 A 
ATOM     10  C   UNL     1       4.691   3.956  17.187  0.00  0.00    +0.000 A 
ENDROOT
BRANCH   1  11
ATOM     11  N   UNL     1       6.768   4.446  18.425  0.00  0.00    +0.000 N 
ATOM     12  H   UNL     1       7.285   3.591  18.672  0.00  0.00    +0.000 HD
BRANCH  11  13
ATOM     13  C   UNL     1       7.188   5.557  19.307  0.00  0.00    +0.000 C 
BRANCH  13  14
ATOM     14  C   UNL     1       7.990   6.590  18.526  0.00  0.00    +0.000 C 
BRANCH  14  16
ATOM     15  O   UNL     1       6.344   7.733  17.161  0.00  0.00    +0.000 OA
ATOM     16  C   UNL     1       7.270   6.941  17.250  0.00  0.00    +0.000 C 
BRANCH  16  17
ATOM     17  O   UNL     1       7.758   6.281  16.176  0.00  0.00    +0.000 OA
ATOM     18  H   UNL     1       7.163   6.275  15.399  0.00  0.00    +0.000 HD
ENDBRANCH  16  17
ENDBRANCH  14  16
ENDBRANCH  13  14
ENDBRANCH  11  13
ENDBRANCH   1  11
BRANCH  10  19
ATOM     19  C   UNL     1       5.345   4.115  15.855  0.00  0.00    +0.000 C 
ATOM     20  O   UNL     1       5.161   5.081  15.133  0.00  0.00    +0.000 OA
BRANCH  19  21
ATOM     21  O   UNL     1       6.186   3.107  15.538  0.00  0.00    +0.000 OA
ATOM     22  H   UNL     1       7.113   3.427  15.442  0.00  0.00    +0.000 HD
ENDBRANCH  19  21
ENDBRANCH  10  19
TORSDOF 7
ENDMDL
MODEL 3
REMARK VINA RESULT:      -7.3      1.637      3.758
REMARK  Name = 
REMARK  7 active torsions:
REMARK  status: ('A' for Active; 'I' for Inactive)
REMARK    1  A    between atoms: C_2  and  O_3
REMARK    2  A    between atoms: C_2  and  C_4
REMARK    3  A    between atoms: C_4  and  C_5
REMARK    4  A    between atoms: C_5  and  N_6
REMARK    5  A    between atoms: N_6  and  C_7
REMARK    6  A    between atoms: C_16  and  C_17
REMARK    7  A    between atoms: C_17  and  O_19
REMARK                            x       y       z     vdW  Elec       q    Type
REMARK                         _______ _______ _______ _____ _____    ______ ____
ROOT
ATOM      1  C   UNL     1       5.205   5.789  16.779  0.00  0.00    +0.000 A 
ATOM      2  C   UNL     1       4.149   5.933  17.695  0.00  0.00    +0.000 A 
ATOM      3  C   UNL     1       3.235   4.897  17.958  0.00  0.00    +0.000 A 
ATOM      4  C   UNL     1       2.232   5.046  18.929  0.00  0.00    +0.000 A 
ATOM      5  C   UNL     1       1.342   4.008  19.200  0.00  0.00    +0.000 A 
ATOM      6  C   UNL     1       1.433   2.814  18.491  0.00  0.00    +0.000 A 
ATOM      7  C   UNL     1       2.421   2.654  17.517  0.00  0.00    +0.000 A 
ATOM      8  C   UNL     1       3.337   3.683  17.250  0.00  0.00    +0.000 A 
ATOM      9  C   UNL     1       4.359   3.534  16.305  0.00  0.00    +0.000 A 
ATOM     10  C   UNL     1       5.285   4.565  16.070  0.00  0.00    +0.000 A 
ENDROOT
BRANCH   1  11
ATOM     11  N   UNL     1       6.154   6.825  16.542  0.00  0.00    +0.000 N 
ATOM     12  H   UNL     1       6.936   6.411  16.016  0.00  0.00    +0.000 HD
BRANCH  11  13
ATOM     13  C   UNL     1       6.672   7.548  17.724  0.00  0.00    +0.000 C 
BRANCH  13  14
ATOM     14  C   UNL     1       7.986   6.937  18.196  0.00  0.00    +0.000 C 
BRANCH  14  16
ATOM     15  O   UNL     1       7.312   5.583  20.090  0.00  0.00    +0.000 OA
ATOM     16  C   UNL     1       7.717   5.655  18.940  0.00  0.00    +0.000 C 
BRANCH  16  17
ATOM     17  O   UNL     1       7.970   4.556  18.195  0.00  0.00    +0.000 OA
ATOM     18  H   UNL     1       8.485   4.727  17.381  0.00  0.00    +0.000 HD
ENDBRANCH  16  17
ENDBRANCH  14  16
ENDBRANCH  13  14
ENDBRANCH  11  13
ENDBRANCH   1  11
BRANCH  10  19
ATOM     19  C   UNL     1       6.339   4.277  15.054  0.00  0.00    +0.000 C 
ATOM     20  O   UNL     1       6.103   3.749  13.980  0.00  0.00    +0.000 OA
BRANCH  19  21
ATOM     21  O   UNL     1       7.574   4.685  15.419  0.00  0.00    +0.000 OA
ATOM     22  H   UNL     1       7.591   5.651  15.614  0.00  0.00    +0.000 HD
ENDBRANCH  19  21
ENDBRANCH  10  19
TORSDOF 7
ENDMDL
MODEL 4
REMARK VINA RESULT:      -7.3      1.742      3.401
REMARK  Name = 
REMARK  7 active torsions:
REMARK  status: ('A' for Active; 'I' for Inactive)
REMARK    1  A    between atoms: C_2  and  O_3
REMARK    2  A    between atoms: C_2  and  C_4
REMARK    3  A    between atoms: C_4  and  C_5
REMARK    4  A    between atoms: C_5  and  N_6
REMARK    5  A    between atoms: N_6  and  C_7
REMARK    6  A    between atoms: C_16  and  C_17
REMARK    7  A    between atoms: C_17  and  O_19
REMARK                            x       y       z     vdW  Elec       q    Type
REMARK                         _______ _______ _______ _____ _____    ______ ____
ROOT
ATOM      1  C   UNL     1       4.299   5.732  17.229  0.00  0.00    +0.000 A 
ATOM      2  C   UNL     1       3.373   5.935  18.267  0.00  0.00    +0.000 A 
ATOM      3  C   UNL     1       2.585   4.893  18.787  0.00  0.00    +0.000 A 
ATOM      4  C   UNL     1       1.719   5.111  19.870  0.00  0.00    +0.000 A 
ATOM      5  C   UNL     1       0.955   4.070  20.394  0.00  0.00    +0.000 A 
ATOM      6  C   UNL     1       1.034   2.801  19.828  0.00  0.00    +0.000 A 
ATOM      7  C   UNL     1       1.884   2.570  18.746  0.00  0.00    +0.000 A 
ATOM      8  C   UNL     1       2.675   3.605  18.223  0.00  0.00    +0.000 A 
ATOM      9  C   UNL     1       3.563   3.391  17.161  0.00  0.00    +0.000 A 
ATOM     10  C   UNL     1       4.369   4.433  16.669  0.00  0.00    +0.000 A 
ENDROOT
BRANCH   1  11
ATOM     11  N   UNL     1       5.126   6.779  16.729  0.00  0.00    +0.000 N 
ATOM     12  H   UNL     1       5.486   6.477  15.814  0.00  0.00    +0.000 HD
BRANCH  11  13
ATOM     13  C   UNL     1       6.247   7.219  17.588  0.00  0.00    +0.000 C 
BRANCH  13  14
ATOM     14  C   UNL     1       7.480   6.356  17.348  0.00  0.00    +0.000 C 
BRANCH  14  16
ATOM     15  O   UNL     1       7.190   5.345  19.532  0.00  0.00    +0.000 OA
ATOM     16  C   UNL     1       7.533   5.245  18.364  0.00  0.00    +0.000 C 
BRANCH  16  17
ATOM     17  O   UNL     1       8.006   4.088  17.849  0.00  0.00    +0.000 OA
ATOM     18  H   UNL     1       8.957   3.928  18.017  0.00  0.00    +0.000 HD
ENDBRANCH  16  17
ENDBRANCH  14  16
ENDBRANCH  13  14
ENDBRANCH  11  13
ENDBRANCH   1  11
BRANCH  10  19
ATOM     19  C   UNL     1       5.288   4.073  15.550  0.00  0.00    +0.000 C 
ATOM     20  O   UNL     1       5.333   4.691  14.499  0.00  0.00    +0.000 OA
BRANCH  19  21
ATOM     21  O   UNL     1       6.091   3.022  15.822  0.00  0.00    +0.000 OA
ATOM     22  H   UNL     1       5.615   2.327  16.333  0.00  0.00    +0.000 HD
ENDBRANCH  19  21
ENDBRANCH  10  19
TORSDOF 7
ENDMDL
MODEL 5
REMARK VINA RESULT:      -7.2      0.785      1.202
REMARK  Name = 
REMARK  7 active torsions:
REMARK  status: ('A' for Active; 'I' for Inactive)
REMARK    1  A    between atoms: C_2  and  O_3
REMARK    2  A    between atoms: C_2  and  C_4
REMARK    3  A    between atoms: C_4  and  C_5
REMARK    4  A    between atoms: C_5  and  N_6
REMARK    5  A    between atoms: N_6  and  C_7
REMARK    6  A    between atoms: C_16  and  C_17
REMARK    7  A    between atoms: C_17  and  O_19
REMARK                            x       y       z     vdW  Elec       q    Type
REMARK                         _______ _______ _______ _____ _____    ______ ____
ROOT
ATOM      1  C   UNL     1       5.152   3.942  17.710  0.00  0.00    +0.000 A 
ATOM      2  C   UNL     1       3.928   3.255  17.637  0.00  0.00    +0.000 A 
ATOM      3  C   UNL     1       2.892   3.463  18.565  0.00  0.00    +0.000 A 
ATOM      4  C   UNL     1       1.655   2.814  18.427  0.00  0.00    +0.000 A 
ATOM      5  C   UNL     1       0.625   3.040  19.338  0.00  0.00    +0.000 A 
ATOM      6  C   UNL     1       0.827   3.904  20.411  0.00  0.00    +0.000 A 
ATOM      7  C   UNL     1       2.054   4.551  20.566  0.00  0.00    +0.000 A 
ATOM      8  C   UNL     1       3.091   4.349  19.642  0.00  0.00    +0.000 A 
ATOM      9  C   UNL     1       4.319   5.013  19.755  0.00  0.00    +0.000 A 
ATOM     10  C   UNL     1       5.338   4.821  18.805  0.00  0.00    +0.000 A 
ENDROOT
BRANCH   1  11
ATOM     11  N   UNL     1       6.187   3.760  16.747  0.00  0.00    +0.000 N 
ATOM     12  H   UNL     1       6.681   4.657  16.653  0.00  0.00    +0.000 HD
BRANCH  11  13
ATOM     13  C   UNL     1       5.784   3.268  15.411  0.00  0.00    +0.000 C 
BRANCH  13  14
ATOM     14  C   UNL     1       5.678   4.422  14.422  0.00  0.00    +0.000 C 
BRANCH  14  16
ATOM     15  O   UNL     1       7.583   5.756  15.105  0.00  0.00    +0.000 OA
ATOM     16  C   UNL     1       6.374   5.638  14.976  0.00  0.00    +0.000 C 
BRANCH  16  17
ATOM     17  O   UNL     1       5.513   6.620  15.325  0.00  0.00    +0.000 OA
ATOM     18  H   UNL     1       5.660   7.470  14.864  0.00  0.00    +0.000 HD
ENDBRANCH  16  17
ENDBRANCH  14  16
ENDBRANCH  13  14
ENDBRANCH  11  13
ENDBRANCH   1  11
BRANCH  10  19
ATOM     19  C   UNL     1       6.590   5.601  19.024  0.00  0.00    +0.000 C 
ATOM     20  O   UNL     1       7.325   5.428  19.982  0.00  0.00    +0.000 OA
BRANCH  19  21
ATOM     21  O   UNL     1       6.853   6.494  18.046  0.00  0.00    +0.000 OA
ATOM     22  H   UNL     1       6.565   7.402  18.298  0.00  0.00    +0.000 HD
ENDBRANCH  19  21
ENDBRANCH  10  19
TORSDOF 7
ENDMDL
MODEL 6
REMARK VINA RESULT:      -7.1      1.399      1.670
REMARK  Name = 
REMARK  7 active torsions:
REMARK  status: ('A' for Active; 'I' for Inactive)
REMARK    1  A    between atoms: C_2  and  O_3
REMARK    2  A    between atoms: C_2  and  C_4
REMARK    3  A    between atoms: C_4  and  C_5
REMARK    4  A    between atoms: C_5  and  N_6
REMARK    5  A    between atoms: N_6  and  C_7
REMARK    6  A    between atoms: C_16  and  C_17
REMARK    7  A    between atoms: C_17  and  O_19
REMARK                            x       y       z     vdW  Elec       q    Type
REMARK                         _______ _______ _______ _____ _____    ______ ____
ROOT
ATOM      1  C   UNL     1       5.299   3.896  16.868  0.00  0.00    +0.000 A 
ATOM      2  C   UNL     1       3.955   3.511  17.004  0.00  0.00    +0.000 A 
ATOM      3  C   UNL     1       3.184   3.853  18.130  0.00  0.00    +0.000 A 
ATOM      4  C   UNL     1       1.824   3.514  18.207  0.00  0.00    +0.000 A 
ATOM      5  C   UNL     1       1.061   3.874  19.316  0.00  0.00    +0.000 A 
ATOM      6  C   UNL     1       1.654   4.562  20.370  0.00  0.00    +0.000 A 
ATOM      7  C   UNL     1       3.007   4.900  20.312  0.00  0.00    +0.000 A 
ATOM      8  C   UNL     1       3.781   4.563  19.191  0.00  0.00    +0.000 A 
ATOM      9  C   UNL     1       5.131   4.922  19.091  0.00  0.00    +0.000 A 
ATOM     10  C   UNL     1       5.884   4.600  17.948  0.00  0.00    +0.000 A 
ENDROOT
BRANCH   1  11
ATOM     11  N   UNL     1       6.068   3.583  15.709  0.00  0.00    +0.000 N 
ATOM     12  H   UNL     1       7.050   3.500  16.005  0.00  0.00    +0.000 HD
BRANCH  11  13
ATOM     13  C   UNL     1       5.967   4.512  14.562  0.00  0.00    +0.000 C 
BRANCH  13  14
ATOM     14  C   UNL     1       5.320   3.823  13.367  0.00  0.00    +0.000 C 
BRANCH  14  16
ATOM     15  O   UNL     1       7.265   4.199  11.970  0.00  0.00    +0.000 OA
ATOM     16  C   UNL     1       6.373   3.458  12.354  0.00  0.00    +0.000 C 
BRANCH  16  17
ATOM     17  O   UNL     1       6.240   2.193  11.894  0.00  0.00    +0.000 OA
ATOM     18  H   UNL     1       5.706   2.113  11.078  0.00  0.00    +0.000 HD
ENDBRANCH  16  17
ENDBRANCH  14  16
ENDBRANCH  13  14
ENDBRANCH  11  13
ENDBRANCH   1  11
BRANCH  10  19
ATOM     19  C   UNL     1       7.305   5.056  17.954  0.00  0.00    +0.000 C 
ATOM     20  O   UNL     1       7.640   6.191  18.252  0.00  0.00    +0.000 OA
BRANCH  19  21
ATOM     21  O   UNL     1       8.189   4.087  17.633  0.00  0.00    +0.000 OA
ATOM     22  H   UNL     1       8.503   4.179  16.703  0.00  0.00    +0.000 HD
ENDBRANCH  19  21
ENDBRANCH  10  19
TORSDOF 7
ENDMDL
MODEL 7
REMARK VINA RESULT:      -7.1      2.588      3.262
REMARK  Name = 
REMARK  7 active torsions:
REMARK  status: ('A' for Active; 'I' for Inactive)
REMARK    1  A    between atoms: C_2  and  O_3
REMARK    2  A    between atoms: C_2  and  C_4
REMARK    3  A    between atoms: C_4  and  C_5
REMARK    4  A    between atoms: C_5  and  N_6
REMARK    5  A    between atoms: N_6  and  C_7
REMARK    6  A    between atoms: C_16  and  C_17
REMARK    7  A    between atoms: C_17  and  O_19
REMARK                            x       y       z     vdW  Elec       q    Type
REMARK                         _______ _______ _______ _____ _____    ______ ____
ROOT
ATOM      1  C   UNL     1       4.226   4.240  17.758  0.00  0.00    +0.000 A 
ATOM      2  C   UNL     1       3.758   5.540  17.498  0.00  0.00    +0.000 A 
ATOM      3  C   UNL     1       3.023   6.278  18.443  0.00  0.00    +0.000 A 
ATOM      4  C   UNL     1       2.629   7.600  18.181  0.00  0.00    +0.000 A 
ATOM      5  C   UNL     1       1.919   8.334  19.129  0.00  0.00    +0.000 A 
ATOM      6  C   UNL     1       1.578   7.748  20.345  0.00  0.00    +0.000 A 
ATOM      7  C   UNL     1       1.956   6.432  20.616  0.00  0.00    +0.000 A 
ATOM      8  C   UNL     1       2.691   5.690  19.679  0.00  0.00    +0.000 A 
ATOM      9  C   UNL     1       3.113   4.381  19.942  0.00  0.00    +0.000 A 
ATOM     10  C   UNL     1       3.873   3.662  19.002  0.00  0.00    +0.000 A 
ENDROOT
BRANCH   1  11
ATOM     11  N   UNL     1       5.004   3.508  16.816  0.00  0.00    +0.000 N 
ATOM     12  H   UNL     1       5.914   3.312  17.254  0.00  0.00    +0.000 HD
BRANCH  11  13
ATOM     13  C   UNL     1       5.211   4.125  15.487  0.00  0.00    +0.000 C 
BRANCH  13  14
ATOM     14  C   UNL     1       6.694   4.175  15.141  0.00  0.00    +0.000 C 
BRANCH  14  16
ATOM     15  O   UNL     1       8.064   4.238  17.140  0.00  0.00    +0.000 OA
ATOM     16  C   UNL     1       7.459   4.832  16.260  0.00  0.00    +0.000 C 
BRANCH  16  17
ATOM     17  O   UNL     1       7.419   6.182  16.199  0.00  0.00    +0.000 OA
ATOM     18  H   UNL     1       8.106   6.582  15.628  0.00  0.00    +0.000 HD
ENDBRANCH  16  17
ENDBRANCH  14  16
ENDBRANCH  13  14
ENDBRANCH  11  13
ENDBRANCH   1  11
BRANCH  10  19
ATOM     19  C   UNL     1       4.280   2.286  19.408  0.00  0.00    +0.000 C 
ATOM     20  O   UNL     1       4.844   2.040  20.462  0.00  0.00    +0.000 OA
BRANCH  19  21
ATOM     21  O   UNL     1       3.936   1.331  18.517  0.00  0.00    +0.000 OA
ATOM     22  H   UNL     1       2.961   1.198  18.489  0.00  0.00    +0.000 HD
ENDBRANCH  19  21
ENDBRANCH  10  19
TORSDOF 7
ENDMDL
MODEL 8
REMARK VINA RESULT:      -7.1      4.423      7.168
REMARK  Name = 
REMARK  7 active torsions:
REMARK  status: ('A' for Active; 'I' for Inactive)
REMARK    1  A    between atoms: C_2  and  O_3
REMARK    2  A    between atoms: C_2  and  C_4
REMARK    3  A    between atoms: C_4  and  C_5
REMARK    4  A    between atoms: C_5  and  N_6
REMARK    5  A    between atoms: N_6  and  C_7
REMARK    6  A    between atoms: C_16  and  C_17
REMARK    7  A    between atoms: C_17  and  O_19
REMARK                            x       y       z     vdW  Elec       q    Type
REMARK                         _______ _______ _______ _____ _____    ______ ____
ROOT
ATOM      1  C   UNL     1       2.465   6.015  19.889  0.00  0.00    +0.000 A 
ATOM      2  C   UNL     1       3.215   6.658  18.889  0.00  0.00    +0.000 A 
ATOM      3  C   UNL     1       3.880   5.947  17.874  0.00  0.00    +0.000 A 
ATOM      4  C   UNL     1       4.563   6.620  16.848  0.00  0.00    +0.000 A 
ATOM      5  C   UNL     1       5.203   5.911  15.834  0.00  0.00    +0.000 A 
ATOM      6  C   UNL     1       5.183   4.519  15.842  0.00  0.00    +0.000 A 
ATOM      7  C   UNL     1       4.514   3.836  16.859  0.00  0.00    +0.000 A 
ATOM      8  C   UNL     1       3.846   4.539  17.875  0.00  0.00    +0.000 A 
ATOM      9  C   UNL     1       3.138   3.879  18.885  0.00  0.00    +0.000 A 
ATOM     10  C   UNL     1       2.451   4.599  19.879  0.00  0.00    +0.000 A 
ENDROOT
BRANCH   1  11
ATOM     11  N   UNL     1       1.758   6.737  20.895  0.00  0.00    +0.000 N 
ATOM     12  H   UNL     1       0.889   6.222  21.089  0.00  0.00    +0.000 HD
BRANCH  11  13
ATOM     13  C   UNL     1       1.448   8.155  20.612  0.00  0.00    +0.000 C 
BRANCH  13  14
ATOM     14  C   UNL     1       0.286   8.634  21.475  0.00  0.00    +0.000 C 
BRANCH  14  16
ATOM     15  O   UNL     1       0.123   9.866  23.556  0.00  0.00    +0.000 OA
ATOM     16  C   UNL     1       0.812   9.319  22.709  0.00  0.00    +0.000 C 
BRANCH  16  17
ATOM     17  O   UNL     1       2.160   9.269  22.801  0.00  0.00    +0.000 OA
ATOM     18  H   UNL     1       2.504   8.510  23.314  0.00  0.00    +0.000 HD
ENDBRANCH  16  17
ENDBRANCH  14  16
ENDBRANCH  13  14
ENDBRANCH  11  13
ENDBRANCH   1  11
BRANCH  10  19
ATOM     19  C   UNL     1       1.716   3.781  20.887  0.00  0.00    +0.000 C 
ATOM     20  O   UNL     1       2.140   3.570  22.012  0.00  0.00    +0.000 OA
BRANCH  19  21
ATOM     21  O   UNL     1       0.522   3.324  20.452  0.00  0.00    +0.000 OA
ATOM     22  H   UNL     1       0.174   2.611  21.036  0.00  0.00    +0.000 HD
ENDBRANCH  19  21
ENDBRANCH  10  19
TORSDOF 7
ENDMDL
MODEL 9
REMARK VINA RESULT:      -7.0      1.822      3.333
REMARK  Name = 
REMARK  7 active torsions:
REMARK  status: ('A' for Active; 'I' for Inactive)
REMARK    1  A    between atoms: C_2  and  O_3
REMARK    2  A    between atoms: C_2  and  C_4
REMARK    3  A    between atoms: C_4  and  C_5
REMARK    4  A    between atoms: C_5  and  N_6
REMARK    5  A    between atoms: N_6  and  C_7
REMARK    6  A    between atoms: C_16  and  C_17
REMARK    7  A    between atoms: C_17  and  O_19
REMARK                            x       y       z     vdW  Elec       q    Type
REMARK                         _______ _______ _______ _____ _____    ______ ____
ROOT
ATOM      1  C   UNL     1       4.646   5.242  18.284  0.00  0.00    +0.000 A 
ATOM      2  C   UNL     1       3.746   5.163  19.361  0.00  0.00    +0.000 A 
ATOM      3  C   UNL     1       2.687   4.237  19.389  0.00  0.00    +0.000 A 
ATOM      4  C   UNL     1       1.846   4.134  20.508  0.00  0.00    +0.000 A 
ATOM      5  C   UNL     1       0.811   3.201  20.539  0.00  0.00    +0.000 A 
ATOM      6  C   UNL     1       0.593   2.372  19.443  0.00  0.00    +0.000 A 
ATOM      7  C   UNL     1       1.417   2.468  18.320  0.00  0.00    +0.000 A 
ATOM      8  C   UNL     1       2.476   3.388  18.285  0.00  0.00    +0.000 A 
ATOM      9  C   UNL     1       3.339   3.479  17.186  0.00  0.00    +0.000 A 
ATOM     10  C   UNL     1       4.412   4.387  17.180  0.00  0.00    +0.000 A 
ENDROOT
BRANCH   1  11
ATOM     11  N   UNL     1       5.743   6.152  18.274  0.00  0.00    +0.000 N 
ATOM     12  H   UNL     1       6.008   6.302  17.291  0.00  0.00    +0.000 HD
BRANCH  11  13
ATOM     13  C   UNL     1       6.937   5.779  19.063  0.00  0.00    +0.000 C 
BRANCH  13  14
ATOM     14  C   UNL     1       8.123   6.662  18.696  0.00  0.00    +0.000 C 
BRANCH  14  16
ATOM     15  O   UNL     1       7.573   8.678  17.468  0.00  0.00    +0.000 OA
ATOM     16  C   UNL     1       7.796   7.477  17.472  0.00  0.00    +0.000 C 
BRANCH  16  17
ATOM     17  O   UNL     1       7.773   6.736  16.342  0.00  0.00    +0.000 OA
ATOM     18  H   UNL     1       6.920   6.290  16.167  0.00  0.00    +0.000 HD
ENDBRANCH  16  17
ENDBRANCH  14  16
ENDBRANCH  13  14
ENDBRANCH  11  13
ENDBRANCH   1  11
BRANCH  10  19
ATOM     19  C   UNL     1       5.272   4.373  15.960  0.00  0.00    +0.000 C 
ATOM     20  O   UNL     1       5.860   3.378  15.570  0.00  0.00    +0.000 OA
BRANCH  19  21
ATOM     21  O   UNL     1       5.310   5.555  15.308  0.00  0.00    +0.000 OA
ATOM     22  H   UNL     1       4.424   5.986  15.291  0.00  0.00    +0.000 HD
ENDBRANCH  19  21
ENDBRANCH  10  19
TORSDOF 7
ENDMDL
