MODEL 1
REMARK VINA RESULT:      -6.7      0.000      0.000
REMARK  Name = 
REMARK  6 active torsions:
REMARK  status: ('A' for Active; 'I' for Inactive)
REMARK    1  A    between atoms: C_1  and  C_2
REMARK    2  A    between atoms: C_2  and  C_4
REMARK    3  A    between atoms: C_10  and  C_11
REMARK    4  A    between atoms: C_14  and  O_15
REMARK    5  A    between atoms: C_18  and  C_19
REMARK    6  A    between atoms: C_23  and  C_24
REMARK                            x       y       z     vdW  Elec       q    Type
REMARK                         _______ _______ _______ _____ _____    ______ ____
ROOT
ATOM      1  C   UNL     1       2.832   2.934  20.424  0.00  0.00    +0.000 C 
ATOM      2  C   UNL     1       1.778   3.406  21.372  0.00  0.00    +0.000 C 
ATOM      3  C   UNL     1       0.723   3.679  20.350  0.00  0.00    +0.000 C 
ATOM      4  C   UNL     1       1.319   3.785  18.826  0.00  0.00    +0.000 C 
ATOM      5  C   UNL     1       2.215   4.499  17.745  0.00  0.00    +0.000 C 
ATOM      6  C   UNL     1       2.119   6.007  17.700  0.00  0.00    +0.000 C 
ATOM      7  C   UNL     1       3.429   6.718  17.466  0.00  0.00    +0.000 C 
ATOM      8  C   UNL     1       3.268   8.212  17.521  0.00  0.00    +0.000 C 
ATOM      9  C   UNL     1       4.640   6.103  17.362  0.00  0.00    +0.000 C 
ATOM     10  C   UNL     1       5.864   6.838  17.904  0.00  0.00    +0.000 C 
ATOM     11  C   UNL     1       7.042   6.010  18.404  0.00  0.00    +0.000 C 
ATOM     12  C   UNL     1       7.330   4.826  17.475  0.00  0.00    +0.000 C 
ATOM     13  C   UNL     1       6.115   3.931  17.371  0.00  0.00    +0.000 C 
ATOM     14  C   UNL     1       4.795   4.656  16.900  0.00  0.00    +0.000 C 
ATOM     15  C   UNL     1       4.807   4.579  15.358  0.00  0.00    +0.000 C 
ATOM     16  C   UNL     1       3.639   3.859  17.509  0.00  0.00    +0.000 C 
ATOM     17  C   UNL     1       3.490   2.456  16.938  0.00  0.00    +0.000 C 
ATOM     18  C   UNL     1       3.004   1.643  18.098  0.00  0.00    +0.000 C 
ATOM     19  C   UNL     1       1.965   2.411  18.949  0.00  0.00    +0.000 C 
ATOM     20  C   UNL     1       0.646   1.708  18.329  0.00  0.00    +0.000 C 
ENDROOT
BRANCH   1  22
ATOM     21  C   UNL     1       2.947   5.666  20.778  0.00  0.00    +0.000 C 
ATOM     22  C   UNL     1       3.683   4.345  20.583  0.00  0.00    +0.000 C 
ATOM     23  O   UNL     1       4.854   4.486  20.257  0.00  0.00    +0.000 OA
ENDBRANCH   1  22
BRANCH  11  24
ATOM     24  O   UNL     1       6.869   5.516  19.742  0.00  0.00    +0.000 OA
ATOM     25  H   UNL     1       7.693   5.672  20.227  0.00  0.00    +0.000 HD
ENDBRANCH  11  24
TORSDOF 2
ENDMDL
MODEL 2
REMARK VINA RESULT:      -6.6      9.394     12.517
REMARK  Name = 
REMARK  6 active torsions:
REMARK  status: ('A' for Active; 'I' for Inactive)
REMARK    1  A    between atoms: C_1  and  C_2
REMARK    2  A    between atoms: C_2  and  C_4
REMARK    3  A    between atoms: C_10  and  C_11
REMARK    4  A    between atoms: C_14  and  O_15
REMARK    5  A    between atoms: C_18  and  C_19
REMARK    6  A    between atoms: C_23  and  C_24
REMARK                            x       y       z     vdW  Elec       q    Type
REMARK                         _______ _______ _______ _____ _____    ______ ____
ROOT
ATOM      1  C   UNL     1      11.251  12.959  17.913  0.00  0.00    +0.000 C 
ATOM      2  C   UNL     1      12.326  12.116  18.516  0.00  0.00    +0.000 C 
ATOM      3  C   UNL     1      11.467  11.416  19.518  0.00  0.00    +0.000 C 
ATOM      4  C   UNL     1      10.035  12.171  19.775  0.00  0.00    +0.000 C 
ATOM      5  C   UNL     1       9.203  13.409  20.281  0.00  0.00    +0.000 C 
ATOM      6  C   UNL     1       9.629  13.991  21.610  0.00  0.00    +0.000 C 
ATOM      7  C   UNL     1       9.590  15.497  21.684  0.00  0.00    +0.000 C 
ATOM      8  C   UNL     1      10.109  16.003  23.002  0.00  0.00    +0.000 C 
ATOM      9  C   UNL     1       9.269  16.318  20.647  0.00  0.00    +0.000 C 
ATOM     10  C   UNL     1       9.979  17.668  20.557  0.00  0.00    +0.000 C 
ATOM     11  C   UNL     1      10.166  18.296  19.180  0.00  0.00    +0.000 C 
ATOM     12  C   UNL     1       8.911  18.142  18.317  0.00  0.00    +0.000 C 
ATOM     13  C   UNL     1       8.568  16.679  18.142  0.00  0.00    +0.000 C 
ATOM     14  C   UNL     1       8.379  15.876  19.487  0.00  0.00    +0.000 C 
ATOM     15  C   UNL     1       6.889  16.034  19.859  0.00  0.00    +0.000 C 
ATOM     16  C   UNL     1       8.743  14.425  19.164  0.00  0.00    +0.000 C 
ATOM     17  C   UNL     1       7.772  13.744  18.211  0.00  0.00    +0.000 C 
ATOM     18  C   UNL     1       8.637  12.818  17.412  0.00  0.00    +0.000 C 
ATOM     19  C   UNL     1       9.710  12.130  18.287  0.00  0.00    +0.000 C 
ATOM     20  C   UNL     1       8.940  10.719  18.469  0.00  0.00    +0.000 C 
ENDROOT
BRANCH   1  22
ATOM     21  C   UNL     1      12.082  15.588  17.872  0.00  0.00    +0.000 C 
ATOM     22  C   UNL     1      11.815  14.318  18.672  0.00  0.00    +0.000 C 
ATOM     23  O   UNL     1      12.332  14.325  19.781  0.00  0.00    +0.000 OA
ENDBRANCH   1  22
BRANCH  11  24
ATOM     24  O   UNL     1      11.292  17.769  18.458  0.00  0.00    +0.000 OA
ATOM     25  H   UNL     1      11.641  18.473  17.894  0.00  0.00    +0.000 HD
ENDBRANCH  11  24
TORSDOF 2
ENDMDL
MODEL 3
REMARK VINA RESULT:      -6.6      9.376     12.101
REMARK  Name = 
REMARK  6 active torsions:
REMARK  status: ('A' for Active; 'I' for Inactive)
REMARK    1  A    between atoms: C_1  and  C_2
REMARK    2  A    between atoms: C_2  and  C_4
REMARK    3  A    between atoms: C_10  and  C_11
REMARK    4  A    between atoms: C_14  and  O_15
REMARK    5  A    between atoms: C_18  and  C_19
REMARK    6  A    between atoms: C_23  and  C_24
REMARK                            x       y       z     vdW  Elec       q    Type
REMARK                         _______ _______ _______ _____ _____    ______ ____
ROOT
ATOM      1  C   UNL     1      10.496  12.684  20.895  0.00  0.00    +0.000 C 
ATOM      2  C   UNL     1       9.729  11.446  21.229  0.00  0.00    +0.000 C 
ATOM      3  C   UNL     1       9.514  10.981  19.826  0.00  0.00    +0.000 C 
ATOM      4  C   UNL     1       9.764  12.159  18.714  0.00  0.00    +0.000 C 
ATOM      5  C   UNL     1       9.379  13.541  18.063  0.00  0.00    +0.000 C 
ATOM      6  C   UNL     1       7.904  13.765  17.816  0.00  0.00    +0.000 C 
ATOM      7  C   UNL     1       7.421  15.165  18.101  0.00  0.00    +0.000 C 
ATOM      8  C   UNL     1       5.933  15.289  17.917  0.00  0.00    +0.000 C 
ATOM      9  C   UNL     1       8.193  16.168  18.604  0.00  0.00    +0.000 C 
ATOM     10  C   UNL     1       7.534  17.177  19.543  0.00  0.00    +0.000 C 
ATOM     11  C   UNL     1       8.402  17.859  20.594  0.00  0.00    +0.000 C 
ATOM     12  C   UNL     1       9.761  18.269  20.021  0.00  0.00    +0.000 C 
ATOM     13  C   UNL     1      10.498  17.057  19.495  0.00  0.00    +0.000 C 
ATOM     14  C   UNL     1       9.708  16.216  18.419  0.00  0.00    +0.000 C 
ATOM     15  C   UNL     1      10.066  16.848  17.055  0.00  0.00    +0.000 C 
ATOM     16  C   UNL     1      10.227  14.782  18.544  0.00  0.00    +0.000 C 
ATOM     17  C   UNL     1      11.679  14.613  18.123  0.00  0.00    +0.000 C 
ATOM     18  C   UNL     1      12.199  13.545  19.035  0.00  0.00    +0.000 C 
ATOM     19  C   UNL     1      11.164  12.418  19.256  0.00  0.00    +0.000 C 
ATOM     20  C   UNL     1      11.794  11.363  18.204  0.00  0.00    +0.000 C 
ENDROOT
BRANCH   1  22
ATOM     21  C   UNL     1       9.350  14.795  22.249  0.00  0.00    +0.000 C 
ATOM     22  C   UNL     1       9.199  13.649  21.255  0.00  0.00    +0.000 C 
ATOM     23  O   UNL     1       8.034  13.353  21.028  0.00  0.00    +0.000 OA
ENDBRANCH   1  22
BRANCH  11  24
ATOM     24  O   UNL     1       8.617  17.058  21.768  0.00  0.00    +0.000 OA
ATOM     25  H   UNL     1       8.962  17.635  22.465  0.00  0.00    +0.000 HD
ENDBRANCH  11  24
TORSDOF 2
ENDMDL
MODEL 4
REMARK VINA RESULT:      -6.4      9.562     12.783
REMARK  Name = 
REMARK  6 active torsions:
REMARK  status: ('A' for Active; 'I' for Inactive)
REMARK    1  A    between atoms: C_1  and  C_2
REMARK    2  A    between atoms: C_2  and  C_4
REMARK    3  A    between atoms: C_10  and  C_11
REMARK    4  A    between atoms: C_14  and  O_15
REMARK    5  A    between atoms: C_18  and  C_19
REMARK    6  A    between atoms: C_23  and  C_24
REMARK                            x       y       z     vdW  Elec       q    Type
REMARK                         _______ _______ _______ _____ _____    ______ ____
ROOT
ATOM      1  C   UNL     1      10.933  13.581  16.938  0.00  0.00    +0.000 C 
ATOM      2  C   UNL     1      12.332  13.066  17.044  0.00  0.00    +0.000 C 
ATOM      3  C   UNL     1      12.113  12.189  18.233  0.00  0.00    +0.000 C 
ATOM      4  C   UNL     1      10.736  12.545  19.049  0.00  0.00    +0.000 C 
ATOM      5  C   UNL     1       9.866  13.532  19.915  0.00  0.00    +0.000 C 
ATOM      6  C   UNL     1      10.590  14.237  21.040  0.00  0.00    +0.000 C 
ATOM      7  C   UNL     1      10.201  15.681  21.237  0.00  0.00    +0.000 C 
ATOM      8  C   UNL     1      11.023  16.337  22.311  0.00  0.00    +0.000 C 
ATOM      9  C   UNL     1       9.321  16.363  20.453  0.00  0.00    +0.000 C 
ATOM     10  C   UNL     1       9.579  17.850  20.214  0.00  0.00    +0.000 C 
ATOM     11  C   UNL     1       9.077  18.471  18.916  0.00  0.00    +0.000 C 
ATOM     12  C   UNL     1       7.675  17.970  18.558  0.00  0.00    +0.000 C 
ATOM     13  C   UNL     1       7.675  16.465  18.408  0.00  0.00    +0.000 C 
ATOM     14  C   UNL     1       8.209  15.673  19.665  0.00  0.00    +0.000 C 
ATOM     15  C   UNL     1       6.975  15.441  20.563  0.00  0.00    +0.000 C 
ATOM     16  C   UNL     1       8.783  14.363  19.122  0.00  0.00    +0.000 C 
ATOM     17  C   UNL     1       7.736  13.426  18.538  0.00  0.00    +0.000 C 
ATOM     18  C   UNL     1       8.448  12.743  17.412  0.00  0.00    +0.000 C 
ATOM     19  C   UNL     1       9.906  12.383  17.782  0.00  0.00    +0.000 C 
ATOM     20  C   UNL     1       9.642  10.824  18.123  0.00  0.00    +0.000 C 
ENDROOT
BRANCH   1  22
ATOM     21  C   UNL     1      11.067  16.329  16.758  0.00  0.00    +0.000 C 
ATOM     22  C   UNL     1      11.373  15.059  17.543  0.00  0.00    +0.000 C 
ATOM     23  O   UNL     1      12.198  15.223  18.430  0.00  0.00    +0.000 OA
ENDBRANCH   1  22
BRANCH  11  24
ATOM     24  O   UNL     1       9.950  18.242  17.796  0.00  0.00    +0.000 OA
ATOM     25  H   UNL     1       9.504  18.564  16.999  0.00  0.00    +0.000 HD
ENDBRANCH  11  24
TORSDOF 2
ENDMDL
MODEL 5
REMARK VINA RESULT:      -6.2      8.858     12.348
REMARK  Name = 
REMARK  6 active torsions:
REMARK  status: ('A' for Active; 'I' for Inactive)
REMARK    1  A    between atoms: C_1  and  C_2
REMARK    2  A    between atoms: C_2  and  C_4
REMARK    3  A    between atoms: C_10  and  C_11
REMARK    4  A    between atoms: C_14  and  O_15
REMARK    5  A    between atoms: C_18  and  C_19
REMARK    6  A    between atoms: C_23  and  C_24
REMARK                            x       y       z     vdW  Elec       q    Type
REMARK                         _______ _______ _______ _____ _____    ______ ____
ROOT
ATOM      1  C   UNL     1       9.019  16.274  18.105  0.00  0.00    +0.000 C 
ATOM      2  C   UNL     1       7.969  17.175  18.670  0.00  0.00    +0.000 C 
ATOM      3  C   UNL     1       8.672  17.493  19.949  0.00  0.00    +0.000 C 
ATOM      4  C   UNL     1       9.883  16.444  20.294  0.00  0.00    +0.000 C 
ATOM      5  C   UNL     1      10.390  14.995  20.653  0.00  0.00    +0.000 C 
ATOM      6  C   UNL     1       9.595  14.261  21.709  0.00  0.00    +0.000 C 
ATOM      7  C   UNL     1       9.396  12.790  21.443  0.00  0.00    +0.000 C 
ATOM      8  C   UNL     1       8.526  12.148  22.487  0.00  0.00    +0.000 C 
ATOM      9  C   UNL     1       9.821  12.137  20.326  0.00  0.00    +0.000 C 
ATOM     10  C   UNL     1       8.962  10.990  19.796  0.00  0.00    +0.000 C 
ATOM     11  C   UNL     1       9.002  10.686  18.303  0.00  0.00    +0.000 C 
ATOM     12  C   UNL     1      10.428  10.762  17.753  0.00  0.00    +0.000 C 
ATOM     13  C   UNL     1      11.011  12.138  17.984  0.00  0.00    +0.000 C 
ATOM     14  C   UNL     1      11.005  12.617  19.488  0.00  0.00    +0.000 C 
ATOM     15  C   UNL     1      12.333  12.109  20.090  0.00  0.00    +0.000 C 
ATOM     16  C   UNL     1      10.939  14.145  19.441  0.00  0.00    +0.000 C 
ATOM     17  C   UNL     1      12.188  14.799  18.871  0.00  0.00    +0.000 C 
ATOM     18  C   UNL     1      11.670  16.008  18.156  0.00  0.00    +0.000 C 
ATOM     19  C   UNL     1      10.539  16.708  18.944  0.00  0.00    +0.000 C 
ATOM     20  C   UNL     1      11.445  17.884  19.586  0.00  0.00    +0.000 C 
ENDROOT
BRANCH   1  22
ATOM     21  C   UNL     1       7.119  14.921  19.575  0.00  0.00    +0.000 C 
ATOM     22  C   UNL     1       8.107  14.927  18.414  0.00  0.00    +0.000 C 
ATOM     23  O   UNL     1       8.358  13.810  17.984  0.00  0.00    +0.000 OA
ENDBRANCH   1  22
BRANCH  11  24
ATOM     24  O   UNL     1       8.157  11.547  17.521  0.00  0.00    +0.000 OA
ATOM     25  H   UNL     1       8.035  12.372  18.012  0.00  0.00    +0.000 HD
ENDBRANCH  11  24
TORSDOF 2
ENDMDL
MODEL 6
REMARK VINA RESULT:      -6.2     10.105     12.481
REMARK  Name = 
REMARK  6 active torsions:
REMARK  status: ('A' for Active; 'I' for Inactive)
REMARK    1  A    between atoms: C_1  and  C_2
REMARK    2  A    between atoms: C_2  and  C_4
REMARK    3  A    between atoms: C_10  and  C_11
REMARK    4  A    between atoms: C_14  and  O_15
REMARK    5  A    between atoms: C_18  and  C_19
REMARK    6  A    between atoms: C_23  and  C_24
REMARK                            x       y       z     vdW  Elec       q    Type
REMARK                         _______ _______ _______ _____ _____    ______ ____
ROOT
ATOM      1  C   UNL     1      11.092  12.951  20.058  0.00  0.00    +0.000 C 
ATOM      2  C   UNL     1      10.762  11.504  19.887  0.00  0.00    +0.000 C 
ATOM      3  C   UNL     1      10.489  11.552  18.419  0.00  0.00    +0.000 C 
ATOM      4  C   UNL     1      10.233  13.072  17.864  0.00  0.00    +0.000 C 
ATOM      5  C   UNL     1       9.384  14.399  17.823  0.00  0.00    +0.000 C 
ATOM      6  C   UNL     1       7.886  14.220  17.716  0.00  0.00    +0.000 C 
ATOM      7  C   UNL     1       7.073  15.183  18.544  0.00  0.00    +0.000 C 
ATOM      8  C   UNL     1       5.601  14.889  18.455  0.00  0.00    +0.000 C 
ATOM      9  C   UNL     1       7.594  16.115  19.389  0.00  0.00    +0.000 C 
ATOM     10  C   UNL     1       6.819  16.438  20.665  0.00  0.00    +0.000 C 
ATOM     11  C   UNL     1       7.599  16.917  21.884  0.00  0.00    +0.000 C 
ATOM     12  C   UNL     1       8.690  17.918  21.494  0.00  0.00    +0.000 C 
ATOM     13  C   UNL     1       9.656  17.290  20.514  0.00  0.00    +0.000 C 
ATOM     14  C   UNL     1       8.991  16.706  19.208  0.00  0.00    +0.000 C 
ATOM     15  C   UNL     1       8.956  17.877  18.202  0.00  0.00    +0.000 C 
ATOM     16  C   UNL     1       9.907  15.572  18.742  0.00  0.00    +0.000 C 
ATOM     17  C   UNL     1      11.271  16.040  18.260  0.00  0.00    +0.000 C 
ATOM     18  C   UNL     1      12.197  14.933  18.661  0.00  0.00    +0.000 C 
ATOM     19  C   UNL     1      11.565  13.540  18.436  0.00  0.00    +0.000 C 
ATOM     20  C   UNL     1      12.310  13.210  17.038  0.00  0.00    +0.000 C 
ENDROOT
BRANCH   1  22
ATOM     21  C   UNL     1       9.597  14.004  22.122  0.00  0.00    +0.000 C 
ATOM     22  C   UNL     1       9.641  13.250  20.798  0.00  0.00    +0.000 C 
ATOM     23  O   UNL     1       8.600  12.660  20.541  0.00  0.00    +0.000 OA
ENDBRANCH   1  22
BRANCH  11  24
ATOM     24  O   UNL     1       8.198  15.850  22.637  0.00  0.00    +0.000 OA
ATOM     25  H   UNL     1       7.552  15.132  22.703  0.00  0.00    +0.000 HD
ENDBRANCH  11  24
TORSDOF 2
ENDMDL
MODEL 7
REMARK VINA RESULT:      -6.2      7.846     10.618
REMARK  Name = 
REMARK  6 active torsions:
REMARK  status: ('A' for Active; 'I' for Inactive)
REMARK    1  A    between atoms: C_1  and  C_2
REMARK    2  A    between atoms: C_2  and  C_4
REMARK    3  A    between atoms: C_10  and  C_11
REMARK    4  A    between atoms: C_14  and  O_15
REMARK    5  A    between atoms: C_18  and  C_19
REMARK    6  A    between atoms: C_23  and  C_24
REMARK                            x       y       z     vdW  Elec       q    Type
REMARK                         _______ _______ _______ _____ _____    ______ ____
ROOT
ATOM      1  C   UNL     1      -0.996  10.094  19.416  0.00  0.00    +0.000 C 
ATOM      2  C   UNL     1      -0.138   9.996  18.196  0.00  0.00    +0.000 C 
ATOM      3  C   UNL     1       1.151  10.373  18.849  0.00  0.00    +0.000 C 
ATOM      4  C   UNL     1       0.944  11.101  20.303  0.00  0.00    +0.000 C 
ATOM      5  C   UNL     1       0.424  12.303  21.180  0.00  0.00    +0.000 C 
ATOM      6  C   UNL     1       0.722  13.686  20.647  0.00  0.00    +0.000 C 
ATOM      7  C   UNL     1      -0.394  14.686  20.821  0.00  0.00    +0.000 C 
ATOM      8  C   UNL     1      -0.058  16.009  20.191  0.00  0.00    +0.000 C 
ATOM      9  C   UNL     1      -1.616  14.402  21.349  0.00  0.00    +0.000 C 
ATOM     10  C   UNL     1      -2.828  15.147  20.791  0.00  0.00    +0.000 C 
ATOM     11  C   UNL     1      -4.186  14.459  20.841  0.00  0.00    +0.000 C 
ATOM     12  C   UNL     1      -4.402  13.738  22.175  0.00  0.00    +0.000 C 
ATOM     13  C   UNL     1      -3.323  12.702  22.395  0.00  0.00    +0.000 C 
ATOM     14  C   UNL     1      -1.847  13.256  22.332  0.00  0.00    +0.000 C 
ATOM     15  C   UNL     1      -1.511  13.704  23.772  0.00  0.00    +0.000 C 
ATOM     16  C   UNL     1      -0.977  12.084  21.874  0.00  0.00    +0.000 C 
ATOM     17  C   UNL     1      -0.883  10.953  22.888  0.00  0.00    +0.000 C 
ATOM     18  C   UNL     1      -0.789   9.718  22.046  0.00  0.00    +0.000 C 
ATOM     19  C   UNL     1       0.115   9.928  20.809  0.00  0.00    +0.000 C 
ATOM     20  C   UNL     1       1.439   9.219  21.411  0.00  0.00    +0.000 C 
ENDROOT
BRANCH   1  22
ATOM     21  C   UNL     1      -3.186  11.659  18.821  0.00  0.00    +0.000 C 
ATOM     22  C   UNL     1      -1.670  11.513  18.894  0.00  0.00    +0.000 C 
ATOM     23  O   UNL     1      -1.069  12.373  18.266  0.00  0.00    +0.000 OA
ENDBRANCH   1  22
BRANCH  11  24
ATOM     24  O   UNL     1      -4.394  13.522  19.771  0.00  0.00    +0.000 OA
ATOM     25  H   UNL     1      -3.601  13.521  19.216  0.00  0.00    +0.000 HD
ENDBRANCH  11  24
TORSDOF 2
ENDMDL
MODEL 8
REMARK VINA RESULT:      -6.0      9.165     12.171
REMARK  Name = 
REMARK  6 active torsions:
REMARK  status: ('A' for Active; 'I' for Inactive)
REMARK    1  A    between atoms: C_1  and  C_2
REMARK    2  A    between atoms: C_2  and  C_4
REMARK    3  A    between atoms: C_10  and  C_11
REMARK    4  A    between atoms: C_14  and  O_15
REMARK    5  A    between atoms: C_18  and  C_19
REMARK    6  A    between atoms: C_23  and  C_24
REMARK                            x       y       z     vdW  Elec       q    Type
REMARK                         _______ _______ _______ _____ _____    ______ ____
ROOT
ATOM      1  C   UNL     1      10.290  11.815  20.486  0.00  0.00    +0.000 C 
ATOM      2  C   UNL     1       9.329  10.740  20.097  0.00  0.00    +0.000 C 
ATOM      3  C   UNL     1       9.251  11.083  18.645  0.00  0.00    +0.000 C 
ATOM      4  C   UNL     1       9.805  12.589  18.311  0.00  0.00    +0.000 C 
ATOM      5  C   UNL     1       9.699  14.155  18.442  0.00  0.00    +0.000 C 
ATOM      6  C   UNL     1       8.315  14.739  18.268  0.00  0.00    +0.000 C 
ATOM      7  C   UNL     1       7.984  15.873  19.206  0.00  0.00    +0.000 C 
ATOM      8  C   UNL     1       6.566  16.342  19.034  0.00  0.00    +0.000 C 
ATOM      9  C   UNL     1       8.804  16.331  20.193  0.00  0.00    +0.000 C 
ATOM     10  C   UNL     1       8.160  16.841  21.480  0.00  0.00    +0.000 C 
ATOM     11  C   UNL     1       8.955  16.738  22.777  0.00  0.00    +0.000 C 
ATOM     12  C   UNL     1      10.423  17.121  22.567  0.00  0.00    +0.000 C 
ATOM     13  C   UNL     1      11.060  16.220  21.533  0.00  0.00    +0.000 C 
ATOM     14  C   UNL     1      10.324  16.186  20.138  0.00  0.00    +0.000 C 
ATOM     15  C   UNL     1      10.946  17.335  19.313  0.00  0.00    +0.000 C 
ATOM     16  C   UNL     1      10.628  14.813  19.536  0.00  0.00    +0.000 C 
ATOM     17  C   UNL     1      12.089  14.612  19.165  0.00  0.00    +0.000 C 
ATOM     18  C   UNL     1      12.333  13.158  19.425  0.00  0.00    +0.000 C 
ATOM     19  C   UNL     1      11.138  12.282  18.981  0.00  0.00    +0.000 C 
ATOM     20  C   UNL     1      11.764  11.796  17.572  0.00  0.00    +0.000 C 
ENDROOT
BRANCH   1  22
ATOM     21  C   UNL     1       9.202  13.045  22.702  0.00  0.00    +0.000 C 
ATOM     22  C   UNL     1       9.094  12.693  21.222  0.00  0.00    +0.000 C 
ATOM     23  O   UNL     1       7.968  12.840  20.769  0.00  0.00    +0.000 OA
ENDBRANCH   1  22
BRANCH  11  24
ATOM     24  O   UNL     1       8.898  15.436  23.382  0.00  0.00    +0.000 OA
ATOM     25  H   UNL     1       7.987  15.279  23.670  0.00  0.00    +0.000 HD
ENDBRANCH  11  24
TORSDOF 2
ENDMDL
MODEL 9
REMARK VINA RESULT:      -6.0     10.173     12.429
REMARK  Name = 
REMARK  6 active torsions:
REMARK  status: ('A' for Active; 'I' for Inactive)
REMARK    1  A    between atoms: C_1  and  C_2
REMARK    2  A    between atoms: C_2  and  C_4
REMARK    3  A    between atoms: C_10  and  C_11
REMARK    4  A    between atoms: C_14  and  O_15
REMARK    5  A    between atoms: C_18  and  C_19
REMARK    6  A    between atoms: C_23  and  C_24
REMARK                            x       y       z     vdW  Elec       q    Type
REMARK                         _______ _______ _______ _____ _____    ______ ____
ROOT
ATOM      1  C   UNL     1      11.225  12.809  19.087  0.00  0.00    +0.000 C 
ATOM      2  C   UNL     1      10.963  12.004  17.856  0.00  0.00    +0.000 C 
ATOM      3  C   UNL     1      10.640  13.150  16.954  0.00  0.00    +0.000 C 
ATOM      4  C   UNL     1      10.292  14.529  17.768  0.00  0.00    +0.000 C 
ATOM      5  C   UNL     1       9.377  15.354  18.750  0.00  0.00    +0.000 C 
ATOM      6  C   UNL     1       7.887  15.240  18.517  0.00  0.00    +0.000 C 
ATOM      7  C   UNL     1       7.054  15.166  19.772  0.00  0.00    +0.000 C 
ATOM      8  C   UNL     1       5.596  14.966  19.461  0.00  0.00    +0.000 C 
ATOM      9  C   UNL     1       7.555  15.136  21.038  0.00  0.00    +0.000 C 
ATOM     10  C   UNL     1       6.805  14.314  22.085  0.00  0.00    +0.000 C 
ATOM     11  C   UNL     1       7.599  13.723  23.244  0.00  0.00    +0.000 C 
ATOM     12  C   UNL     1       8.627  14.721  23.787  0.00  0.00    +0.000 C 
ATOM     13  C   UNL     1       9.591  15.131  22.697  0.00  0.00    +0.000 C 
ATOM     14  C   UNL     1       8.914  15.729  21.403  0.00  0.00    +0.000 C 
ATOM     15  C   UNL     1       8.789  17.246  21.665  0.00  0.00    +0.000 C 
ATOM     16  C   UNL     1       9.870  15.420  20.249  0.00  0.00    +0.000 C 
ATOM     17  C   UNL     1      11.193  16.166  20.328  0.00  0.00    +0.000 C 
ATOM     18  C   UNL     1      12.185  15.206  19.746  0.00  0.00    +0.000 C 
ATOM     19  C   UNL     1      11.617  14.460  18.517  0.00  0.00    +0.000 C 
ATOM     20  C   UNL     1      12.332  15.369  17.387  0.00  0.00    +0.000 C 
ENDROOT
BRANCH   1  22
ATOM     21  C   UNL     1       9.740  11.846  21.201  0.00  0.00    +0.000 C 
ATOM     22  C   UNL     1       9.785  12.347  19.762  0.00  0.00    +0.000 C 
ATOM     23  O   UNL     1       8.778  12.079  19.123  0.00  0.00    +0.000 OA
ENDBRANCH   1  22
BRANCH  11  24
ATOM     24  O   UNL     1       8.274  12.499  22.911  0.00  0.00    +0.000 OA
ATOM     25  H   UNL     1       8.773  12.211  23.690  0.00  0.00    +0.000 HD
ENDBRANCH  11  24
TORSDOF 2
ENDMDL
