MODEL 1
REMARK VINA RESULT:      -7.2      0.000      0.000
REMARK  Name = 
REMARK  12 active torsions:
REMARK  status: ('A' for Active; 'I' for Inactive)
REMARK    1  A    between atoms: C_1  and  C_2
REMARK    2  A    between atoms: C_2  and  C_3
REMARK    3  A    between atoms: C_2  and  C_4
REMARK    4  A    between atoms: C_2  and  O_5
REMARK    5  A    between atoms: O_5  and  C_6
REMARK    6  A    between atoms: N_8  and  C_9
REMARK    7  A    between atoms: C_9  and  C_10
REMARK    8  A    between atoms: C_10  and  O_11
REMARK    9  A    between atoms: O_11  and  C_12
REMARK   10  A    between atoms: C_12  and  C_14
REMARK   11  A    between atoms: C_15  and  C_16
REMARK   12  A    between atoms: C_16  and  C_18
REMARK                            x       y       z     vdW  Elec       q    Type
REMARK                         _______ _______ _______ _____ _____    ______ ____
ROOT
ATOM      1  C   UNL     1       7.751   7.184  17.746  0.00  0.00    +0.000 C 
ATOM      2  O   UNL     1       7.817   7.254  16.531  0.00  0.00    +0.000 OA
ENDROOT
BRANCH   1   3
ATOM      3  C   UNL     1       8.222   8.218  18.682  0.00  0.00    +0.000 C 
ATOM      4  C   UNL     1       8.600   9.409  18.210  0.00  0.00    +0.000 C 
BRANCH   4   5
ATOM      5  C   UNL     1       9.209  10.390  19.143  0.00  0.00    +0.000 C 
ATOM      6  O   UNL     1       9.356  10.146  20.334  0.00  0.00    +0.000 OA
BRANCH   5   7
ATOM      7  C   UNL     1       9.684  11.668  18.559  0.00  0.00    +0.000 A 
ATOM      8  C   UNL     1      10.762  11.700  17.665  0.00  0.00    +0.000 A 
ATOM      9  C   UNL     1      11.194  12.918  17.135  0.00  0.00    +0.000 A 
ATOM     10  C   UNL     1      10.544  14.099  17.490  0.00  0.00    +0.000 A 
ATOM     11 BR   UNL     1      11.148  15.741  16.780  0.00  0.00    +0.000 Br
ATOM     12  C   UNL     1       9.455  14.073  18.359  0.00  0.00    +0.000 A 
ATOM     13  C   UNL     1       9.018  12.855  18.891  0.00  0.00    +0.000 A 
ENDBRANCH   5   7
ENDBRANCH   4   5
ENDBRANCH   1   3
BRANCH   1  14
ATOM     14  O   UNL     1       7.431   6.097  18.485  0.00  0.00    +0.000 OA
BRANCH  14  15
ATOM     15  C   UNL     1       7.452   4.861  17.752  0.00  0.00    +0.000 C 
BRANCH  15  16
ATOM     16  C   UNL     1       6.006   4.549  17.349  0.00  0.00    +0.000 C 
BRANCH  16  19
ATOM     17  C   UNL     1       4.145   3.391  18.403  0.00  0.00    +0.000 C 
ATOM     18  O   UNL     1       4.045   2.584  17.489  0.00  0.00    +0.000 OA
ATOM     19  N   UNL     1       5.107   4.351  18.456  0.00  0.00    +0.000 N 
ATOM     20  H   UNL     1       5.078   4.997  19.232  0.00  0.00    +0.000 HD
BRANCH  17  21
ATOM     21  O   UNL     1       3.325   3.485  19.476  0.00  0.00    +0.000 OA
BRANCH  21  23
ATOM     22  C   UNL     1       1.251   4.317  20.507  0.00  0.00    +0.000 C 
ATOM     23  C   UNL     1       1.907   3.717  19.257  0.00  0.00    +0.000 C 
ATOM     24  C   UNL     1       1.198   2.440  18.783  0.00  0.00    +0.000 C 
ATOM     25  C   UNL     1       1.818   4.758  18.129  0.00  0.00    +0.000 C 
ENDBRANCH  21  23
ENDBRANCH  17  21
ENDBRANCH  16  19
ENDBRANCH  15  16
ENDBRANCH  14  15
ENDBRANCH   1  14
TORSDOF 9
ENDMDL
MODEL 2
REMARK VINA RESULT:      -7.1      1.398      1.746
REMARK  Name = 
REMARK  12 active torsions:
REMARK  status: ('A' for Active; 'I' for Inactive)
REMARK    1  A    between atoms: C_1  and  C_2
REMARK    2  A    between atoms: C_2  and  C_3
REMARK    3  A    between atoms: C_2  and  C_4
REMARK    4  A    between atoms: C_2  and  O_5
REMARK    5  A    between atoms: O_5  and  C_6
REMARK    6  A    between atoms: N_8  and  C_9
REMARK    7  A    between atoms: C_9  and  C_10
REMARK    8  A    between atoms: C_10  and  O_11
REMARK    9  A    between atoms: O_11  and  C_12
REMARK   10  A    between atoms: C_12  and  C_14
REMARK   11  A    between atoms: C_15  and  C_16
REMARK   12  A    between atoms: C_16  and  C_18
REMARK                            x       y       z     vdW  Elec       q    Type
REMARK                         _______ _______ _______ _____ _____    ______ ____
ROOT
ATOM      1  C   UNL     1       7.309   7.259  17.039  0.00  0.00    +0.000 C 
ATOM      2  O   UNL     1       7.882   6.588  16.198  0.00  0.00    +0.000 OA
ENDROOT
BRANCH   1   3
ATOM      3  C   UNL     1       7.973   8.091  18.056  0.00  0.00    +0.000 C 
ATOM      4  C   UNL     1       8.230   9.375  17.790  0.00  0.00    +0.000 C 
BRANCH   4   5
ATOM      5  C   UNL     1       9.028  10.163  18.763  0.00  0.00    +0.000 C 
ATOM      6  O   UNL     1       9.260   9.752  19.893  0.00  0.00    +0.000 OA
BRANCH   5   7
ATOM      7  C   UNL     1       9.579  11.455  18.289  0.00  0.00    +0.000 A 
ATOM      8  C   UNL     1      10.877  11.541  17.767  0.00  0.00    +0.000 A 
ATOM      9  C   UNL     1      11.376  12.772  17.335  0.00  0.00    +0.000 A 
ATOM     10  C   UNL     1      10.576  13.911  17.416  0.00  0.00    +0.000 A 
ATOM     11 BR   UNL     1      11.268  15.573  16.843  0.00  0.00    +0.000 Br
ATOM     12  C   UNL     1       9.276  13.830  17.910  0.00  0.00    +0.000 A 
ATOM     13  C   UNL     1       8.772  12.599  18.343  0.00  0.00    +0.000 A 
ENDBRANCH   5   7
ENDBRANCH   4   5
ENDBRANCH   1   3
BRANCH   1  14
ATOM     14  O   UNL     1       5.992   7.234  17.344  0.00  0.00    +0.000 OA
BRANCH  14  15
ATOM     15  C   UNL     1       5.157   6.697  16.305  0.00  0.00    +0.000 C 
BRANCH  15  16
ATOM     16  C   UNL     1       4.938   5.214  16.622  0.00  0.00    +0.000 C 
BRANCH  16  19
ATOM     17  C   UNL     1       4.627   4.375  18.883  0.00  0.00    +0.000 C 
ATOM     18  O   UNL     1       5.815   4.118  19.022  0.00  0.00    +0.000 OA
ATOM     19  N   UNL     1       4.110   4.966  17.774  0.00  0.00    +0.000 N 
ATOM     20  H   UNL     1       3.109   5.096  17.740  0.00  0.00    +0.000 HD
BRANCH  17  21
ATOM     21  O   UNL     1       3.644   4.101  19.774  0.00  0.00    +0.000 OA
BRANCH  21  23
ATOM     22  C   UNL     1       3.030   2.048  18.563  0.00  0.00    +0.000 C 
ATOM     23  C   UNL     1       3.203   2.725  19.929  0.00  0.00    +0.000 C 
ATOM     24  C   UNL     1       1.933   2.638  20.786  0.00  0.00    +0.000 C 
ATOM     25  C   UNL     1       4.333   1.999  20.677  0.00  0.00    +0.000 C 
ENDBRANCH  21  23
ENDBRANCH  17  21
ENDBRANCH  16  19
ENDBRANCH  15  16
ENDBRANCH  14  15
ENDBRANCH   1  14
TORSDOF 9
ENDMDL
MODEL 3
REMARK VINA RESULT:      -7.1      4.983      7.792
REMARK  Name = 
REMARK  12 active torsions:
REMARK  status: ('A' for Active; 'I' for Inactive)
REMARK    1  A    between atoms: C_1  and  C_2
REMARK    2  A    between atoms: C_2  and  C_3
REMARK    3  A    between atoms: C_2  and  C_4
REMARK    4  A    between atoms: C_2  and  O_5
REMARK    5  A    between atoms: O_5  and  C_6
REMARK    6  A    between atoms: N_8  and  C_9
REMARK    7  A    between atoms: C_9  and  C_10
REMARK    8  A    between atoms: C_10  and  O_11
REMARK    9  A    between atoms: O_11  and  C_12
REMARK   10  A    between atoms: C_12  and  C_14
REMARK   11  A    between atoms: C_15  and  C_16
REMARK   12  A    between atoms: C_16  and  C_18
REMARK                            x       y       z     vdW  Elec       q    Type
REMARK                         _______ _______ _______ _____ _____    ______ ____
ROOT
ATOM      1  C   UNL     1       1.854   4.535  18.136  0.00  0.00    +0.000 C 
ATOM      2  O   UNL     1       1.416   3.632  17.445  0.00  0.00    +0.000 OA
ENDROOT
BRANCH   1   3
ATOM      3  C   UNL     1       1.677   5.971  17.868  0.00  0.00    +0.000 C 
ATOM      4  C   UNL     1       2.332   6.865  18.615  0.00  0.00    +0.000 C 
BRANCH   4   5
ATOM      5  C   UNL     1       2.034   8.307  18.432  0.00  0.00    +0.000 C 
ATOM      6  O   UNL     1       2.352   8.912  17.416  0.00  0.00    +0.000 OA
BRANCH   5   7
ATOM      7  C   UNL     1       1.283   8.981  19.519  0.00  0.00    +0.000 A 
ATOM      8  C   UNL     1       1.283   8.470  20.824  0.00  0.00    +0.000 A 
ATOM      9  C   UNL     1       0.561   9.120  21.828  0.00  0.00    +0.000 A 
ATOM     10  C   UNL     1      -0.151  10.280  21.530  0.00  0.00    +0.000 A 
ATOM     11 BR   UNL     1      -1.137  11.140  22.893  0.00  0.00    +0.000 Br
ATOM     12  C   UNL     1      -0.137  10.808  20.241  0.00  0.00    +0.000 A 
ATOM     13  C   UNL     1       0.586  10.162  19.233  0.00  0.00    +0.000 A 
ENDBRANCH   5   7
ENDBRANCH   4   5
ENDBRANCH   1   3
BRANCH   1  14
ATOM     14  O   UNL     1       2.739   4.427  19.153  0.00  0.00    +0.000 OA
BRANCH  14  15
ATOM     15  C   UNL     1       3.117   3.076  19.465  0.00  0.00    +0.000 C 
BRANCH  15  16
ATOM     16  C   UNL     1       4.577   3.110  19.928  0.00  0.00    +0.000 C 
BRANCH  16  19
ATOM     17  C   UNL     1       6.308   4.441  18.857  0.00  0.00    +0.000 C 
ATOM     18  O   UNL     1       6.325   5.266  19.760  0.00  0.00    +0.000 OA
ATOM     19  N   UNL     1       5.534   3.323  18.874  0.00  0.00    +0.000 N 
ATOM     20  H   UNL     1       5.561   2.726  18.059  0.00  0.00    +0.000 HD
BRANCH  17  21
ATOM     21  O   UNL     1       7.016   4.507  17.705  0.00  0.00    +0.000 OA
BRANCH  21  23
ATOM     22  C   UNL     1       7.118   5.155  15.333  0.00  0.00    +0.000 C 
ATOM     23  C   UNL     1       6.712   5.564  16.755  0.00  0.00    +0.000 C 
ATOM     24  C   UNL     1       7.344   6.897  17.180  0.00  0.00    +0.000 C 
ATOM     25  C   UNL     1       5.184   5.731  16.782  0.00  0.00    +0.000 C 
ENDBRANCH  21  23
ENDBRANCH  17  21
ENDBRANCH  16  19
ENDBRANCH  15  16
ENDBRANCH  14  15
ENDBRANCH   1  14
TORSDOF 9
ENDMDL
MODEL 4
REMARK VINA RESULT:      -6.9      1.253      1.890
REMARK  Name = 
REMARK  12 active torsions:
REMARK  status: ('A' for Active; 'I' for Inactive)
REMARK    1  A    between atoms: C_1  and  C_2
REMARK    2  A    between atoms: C_2  and  C_3
REMARK    3  A    between atoms: C_2  and  C_4
REMARK    4  A    between atoms: C_2  and  O_5
REMARK    5  A    between atoms: O_5  and  C_6
REMARK    6  A    between atoms: N_8  and  C_9
REMARK    7  A    between atoms: C_9  and  C_10
REMARK    8  A    between atoms: C_10  and  O_11
REMARK    9  A    between atoms: O_11  and  C_12
REMARK   10  A    between atoms: C_12  and  C_14
REMARK   11  A    between atoms: C_15  and  C_16
REMARK   12  A    between atoms: C_16  and  C_18
REMARK                            x       y       z     vdW  Elec       q    Type
REMARK                         _______ _______ _______ _____ _____    ______ ____
ROOT
ATOM      1  C   UNL     1       7.505   7.110  17.470  0.00  0.00    +0.000 C 
ATOM      2  O   UNL     1       7.941   6.872  16.358  0.00  0.00    +0.000 OA
ENDROOT
BRANCH   1   3
ATOM      3  C   UNL     1       8.102   8.052  18.432  0.00  0.00    +0.000 C 
ATOM      4  C   UNL     1       8.411   9.290  18.034  0.00  0.00    +0.000 C 
BRANCH   4   5
ATOM      5  C   UNL     1       9.144  10.180  18.968  0.00  0.00    +0.000 C 
ATOM      6  O   UNL     1       9.376   9.855  20.126  0.00  0.00    +0.000 OA
BRANCH   5   7
ATOM      7  C   UNL     1       9.633  11.470  18.423  0.00  0.00    +0.000 A 
ATOM      8  C   UNL     1       8.778  12.573  18.294  0.00  0.00    +0.000 A 
ATOM      9  C   UNL     1       9.262  13.774  17.771  0.00  0.00    +0.000 A 
ATOM     10  C   UNL     1      10.598  13.874  17.385  0.00  0.00    +0.000 A 
ATOM     11 BR   UNL     1      11.236  15.498  16.662  0.00  0.00    +0.000 Br
ATOM     12  C   UNL     1      11.461  12.789  17.532  0.00  0.00    +0.000 A 
ATOM     13  C   UNL     1      10.981  11.585  18.058  0.00  0.00    +0.000 A 
ENDBRANCH   5   7
ENDBRANCH   4   5
ENDBRANCH   1   3
BRANCH   1  14
ATOM     14  O   UNL     1       6.530   6.439  18.125  0.00  0.00    +0.000 OA
BRANCH  14  15
ATOM     15  C   UNL     1       5.443   6.016  17.286  0.00  0.00    +0.000 C 
BRANCH  15  16
ATOM     16  C   UNL     1       4.158   6.607  17.878  0.00  0.00    +0.000 C 
BRANCH  16  19
ATOM     17  C   UNL     1       2.491   5.057  18.734  0.00  0.00    +0.000 C 
ATOM     18  O   UNL     1       1.998   4.875  17.630  0.00  0.00    +0.000 OA
ATOM     19  N   UNL     1       3.584   5.836  18.951  0.00  0.00    +0.000 N 
ATOM     20  H   UNL     1       3.889   5.957  19.906  0.00  0.00    +0.000 HD
BRANCH  17  21
ATOM     21  O   UNL     1       2.035   4.550  19.904  0.00  0.00    +0.000 OA
BRANCH  21  23
ATOM     22  C   UNL     1       3.369   2.484  19.831  0.00  0.00    +0.000 C 
ATOM     23  C   UNL     1       1.988   3.107  20.072  0.00  0.00    +0.000 C 
ATOM     24  C   UNL     1       0.902   2.476  19.189  0.00  0.00    +0.000 C 
ATOM     25  C   UNL     1       1.609   2.863  21.542  0.00  0.00    +0.000 C 
ENDBRANCH  21  23
ENDBRANCH  17  21
ENDBRANCH  16  19
ENDBRANCH  15  16
ENDBRANCH  14  15
ENDBRANCH   1  14
TORSDOF 9
ENDMDL
MODEL 5
REMARK VINA RESULT:      -6.9      5.631      8.187
REMARK  Name = 
REMARK  12 active torsions:
REMARK  status: ('A' for Active; 'I' for Inactive)
REMARK    1  A    between atoms: C_1  and  C_2
REMARK    2  A    between atoms: C_2  and  C_3
REMARK    3  A    between atoms: C_2  and  C_4
REMARK    4  A    between atoms: C_2  and  O_5
REMARK    5  A    between atoms: O_5  and  C_6
REMARK    6  A    between atoms: N_8  and  C_9
REMARK    7  A    between atoms: C_9  and  C_10
REMARK    8  A    between atoms: C_10  and  O_11
REMARK    9  A    between atoms: O_11  and  C_12
REMARK   10  A    between atoms: C_12  and  C_14
REMARK   11  A    between atoms: C_15  and  C_16
REMARK   12  A    between atoms: C_16  and  C_18
REMARK                            x       y       z     vdW  Elec       q    Type
REMARK                         _______ _______ _______ _____ _____    ______ ____
ROOT
ATOM      1  C   UNL     1       1.422   3.638  20.873  0.00  0.00    +0.000 C 
ATOM      2  O   UNL     1       1.311   3.079  21.950  0.00  0.00    +0.000 OA
ENDROOT
BRANCH   1   3
ATOM      3  C   UNL     1       1.961   4.993  20.672  0.00  0.00    +0.000 C 
ATOM      4  C   UNL     1       1.144   6.047  20.762  0.00  0.00    +0.000 C 
BRANCH   4   5
ATOM      5  C   UNL     1       1.666   7.391  20.414  0.00  0.00    +0.000 C 
ATOM      6  O   UNL     1       2.628   7.540  19.670  0.00  0.00    +0.000 OA
BRANCH   5   7
ATOM      7  C   UNL     1       0.939   8.559  20.967  0.00  0.00    +0.000 A 
ATOM      8  C   UNL     1       0.440   9.565  20.129  0.00  0.00    +0.000 A 
ATOM      9  C   UNL     1      -0.235  10.659  20.676  0.00  0.00    +0.000 A 
ATOM     10  C   UNL     1      -0.419  10.741  22.055  0.00  0.00    +0.000 A 
ATOM     11 BR   UNL     1      -1.319  12.233  22.784  0.00  0.00    +0.000 Br
ATOM     12  C   UNL     1       0.052   9.732  22.894  0.00  0.00    +0.000 A 
ATOM     13  C   UNL     1       0.727   8.635  22.350  0.00  0.00    +0.000 A 
ENDBRANCH   5   7
ENDBRANCH   4   5
ENDBRANCH   1   3
BRANCH   1  14
ATOM     14  O   UNL     1       0.906   3.237  19.689  0.00  0.00    +0.000 OA
BRANCH  14  15
ATOM     15  C   UNL     1       1.496   2.034  19.168  0.00  0.00    +0.000 C 
BRANCH  15  16
ATOM     16  C   UNL     1       2.336   2.434  17.950  0.00  0.00    +0.000 C 
BRANCH  16  19
ATOM     17  C   UNL     1       3.989   4.217  17.930  0.00  0.00    +0.000 C 
ATOM     18  O   UNL     1       3.209   5.024  17.446  0.00  0.00    +0.000 OA
ATOM     19  N   UNL     1       3.644   2.946  18.269  0.00  0.00    +0.000 N 
ATOM     20  H   UNL     1       4.373   2.344  18.623  0.00  0.00    +0.000 HD
BRANCH  17  21
ATOM     21  O   UNL     1       5.302   4.431  18.184  0.00  0.00    +0.000 OA
BRANCH  21  23
ATOM     22  C   UNL     1       5.789   4.006  15.810  0.00  0.00    +0.000 C 
ATOM     23  C   UNL     1       6.183   4.771  17.080  0.00  0.00    +0.000 C 
ATOM     24  C   UNL     1       7.657   4.559  17.453  0.00  0.00    +0.000 C 
ATOM     25  C   UNL     1       5.971   6.271  16.814  0.00  0.00    +0.000 C 
ENDBRANCH  21  23
ENDBRANCH  17  21
ENDBRANCH  16  19
ENDBRANCH  15  16
ENDBRANCH  14  15
ENDBRANCH   1  14
TORSDOF 9
ENDMDL
MODEL 6
REMARK VINA RESULT:      -6.8      3.856      9.353
REMARK  Name = 
REMARK  12 active torsions:
REMARK  status: ('A' for Active; 'I' for Inactive)
REMARK    1  A    between atoms: C_1  and  C_2
REMARK    2  A    between atoms: C_2  and  C_3
REMARK    3  A    between atoms: C_2  and  C_4
REMARK    4  A    between atoms: C_2  and  O_5
REMARK    5  A    between atoms: O_5  and  C_6
REMARK    6  A    between atoms: N_8  and  C_9
REMARK    7  A    between atoms: C_9  and  C_10
REMARK    8  A    between atoms: C_10  and  O_11
REMARK    9  A    between atoms: O_11  and  C_12
REMARK   10  A    between atoms: C_12  and  C_14
REMARK   11  A    between atoms: C_15  and  C_16
REMARK   12  A    between atoms: C_16  and  C_18
REMARK                            x       y       z     vdW  Elec       q    Type
REMARK                         _______ _______ _______ _____ _____    ______ ____
ROOT
ATOM      1  C   UNL     1       7.145   6.529  17.228  0.00  0.00    +0.000 C 
ATOM      2  O   UNL     1       7.807   5.506  17.239  0.00  0.00    +0.000 OA
ENDROOT
BRANCH   1   3
ATOM      3  C   UNL     1       5.675   6.589  17.227  0.00  0.00    +0.000 C 
ATOM      4  C   UNL     1       4.983   5.785  18.041  0.00  0.00    +0.000 C 
BRANCH   4   5
ATOM      5  C   UNL     1       3.504   5.750  17.926  0.00  0.00    +0.000 C 
ATOM      6  O   UNL     1       2.915   4.801  17.423  0.00  0.00    +0.000 OA
BRANCH   5   7
ATOM      7  C   UNL     1       2.759   6.899  18.496  0.00  0.00    +0.000 A 
ATOM      8  C   UNL     1       2.324   6.891  19.829  0.00  0.00    +0.000 A 
ATOM      9  C   UNL     1       1.618   7.982  20.339  0.00  0.00    +0.000 A 
ATOM     10  C   UNL     1       1.354   9.081  19.523  0.00  0.00    +0.000 A 
ATOM     11 BR   UNL     1       0.382  10.543  20.220  0.00  0.00    +0.000 Br
ATOM     12  C   UNL     1       1.804   9.107  18.204  0.00  0.00    +0.000 A 
ATOM     13  C   UNL     1       2.513   8.017  17.689  0.00  0.00    +0.000 A 
ENDBRANCH   5   7
ENDBRANCH   4   5
ENDBRANCH   1   3
BRANCH   1  14
ATOM     14  O   UNL     1       7.594   7.788  17.017  0.00  0.00    +0.000 OA
BRANCH  14  15
ATOM     15  C   UNL     1       8.277   8.365  18.141  0.00  0.00    +0.000 C 
BRANCH  15  16
ATOM     16  C   UNL     1       8.147   9.887  18.016  0.00  0.00    +0.000 C 
BRANCH  16  19
ATOM     17  C   UNL     1       9.420  11.959  18.029  0.00  0.00    +0.000 C 
ATOM     18  O   UNL     1       8.419  12.651  17.904  0.00  0.00    +0.000 OA
ATOM     19  N   UNL     1       9.388  10.606  18.153  0.00  0.00    +0.000 N 
ATOM     20  H   UNL     1      10.273  10.122  18.208  0.00  0.00    +0.000 HD
BRANCH  17  21
ATOM     21  O   UNL     1      10.699  12.403  18.040  0.00  0.00    +0.000 OA
BRANCH  21  23
ATOM     22  C   UNL     1      12.333  11.843  19.793  0.00  0.00    +0.000 C 
ATOM     23  C   UNL     1      11.278  12.842  19.299  0.00  0.00    +0.000 C 
ATOM     24  C   UNL     1      10.193  13.110  20.350  0.00  0.00    +0.000 C 
ATOM     25  C   UNL     1      11.989  14.171  18.998  0.00  0.00    +0.000 C 
ENDBRANCH  21  23
ENDBRANCH  17  21
ENDBRANCH  16  19
ENDBRANCH  15  16
ENDBRANCH  14  15
ENDBRANCH   1  14
TORSDOF 9
ENDMDL
MODEL 7
REMARK VINA RESULT:      -6.7      4.420      7.302
REMARK  Name = 
REMARK  12 active torsions:
REMARK  status: ('A' for Active; 'I' for Inactive)
REMARK    1  A    between atoms: C_1  and  C_2
REMARK    2  A    between atoms: C_2  and  C_3
REMARK    3  A    between atoms: C_2  and  C_4
REMARK    4  A    between atoms: C_2  and  O_5
REMARK    5  A    between atoms: O_5  and  C_6
REMARK    6  A    between atoms: N_8  and  C_9
REMARK    7  A    between atoms: C_9  and  C_10
REMARK    8  A    between atoms: C_10  and  O_11
REMARK    9  A    between atoms: O_11  and  C_12
REMARK   10  A    between atoms: C_12  and  C_14
REMARK   11  A    between atoms: C_15  and  C_16
REMARK   12  A    between atoms: C_16  and  C_18
REMARK                            x       y       z     vdW  Elec       q    Type
REMARK                         _______ _______ _______ _____ _____    ______ ____
ROOT
ATOM      1  C   UNL     1       1.662   3.438  18.207  0.00  0.00    +0.000 C 
ATOM      2  O   UNL     1       1.621   3.595  17.000  0.00  0.00    +0.000 OA
ENDROOT
BRANCH   1   3
ATOM      3  C   UNL     1       1.419   4.490  19.208  0.00  0.00    +0.000 C 
ATOM      4  C   UNL     1       1.977   5.693  19.046  0.00  0.00    +0.000 C 
BRANCH   4   5
ATOM      5  C   UNL     1       1.846   6.696  20.132  0.00  0.00    +0.000 C 
ATOM      6  O   UNL     1       1.952   6.391  21.314  0.00  0.00    +0.000 OA
BRANCH   5   7
ATOM      7  C   UNL     1       1.629   8.105  19.723  0.00  0.00    +0.000 A 
ATOM      8  C   UNL     1       2.037   8.564  18.463  0.00  0.00    +0.000 A 
ATOM      9  C   UNL     1       1.828   9.898  18.105  0.00  0.00    +0.000 A 
ATOM     10  C   UNL     1       1.207  10.767  19.000  0.00  0.00    +0.000 A 
ATOM     11 BR   UNL     1       0.945  12.573  18.510  0.00  0.00    +0.000 Br
ATOM     12  C   UNL     1       0.776  10.313  20.245  0.00  0.00    +0.000 A 
ATOM     13  C   UNL     1       0.981   8.978  20.607  0.00  0.00    +0.000 A 
ENDBRANCH   5   7
ENDBRANCH   4   5
ENDBRANCH   1   3
BRANCH   1  14
ATOM     14  O   UNL     1       2.122   2.355  18.874  0.00  0.00    +0.000 OA
BRANCH  14  15
ATOM     15  C   UNL     1       3.467   1.982  18.535  0.00  0.00    +0.000 C 
BRANCH  15  16
ATOM     16  C   UNL     1       4.399   2.725  19.500  0.00  0.00    +0.000 C 
BRANCH  16  19
ATOM     17  C   UNL     1       5.792   4.667  19.052  0.00  0.00    +0.000 C 
ATOM     18  O   UNL     1       5.158   5.380  19.817  0.00  0.00    +0.000 OA
ATOM     19  N   UNL     1       5.538   3.344  18.873  0.00  0.00    +0.000 N 
ATOM     20  H   UNL     1       6.092   2.852  18.186  0.00  0.00    +0.000 HD
BRANCH  17  21
ATOM     21  O   UNL     1       6.812   5.063  18.254  0.00  0.00    +0.000 OA
BRANCH  21  23
ATOM     22  C   UNL     1       5.047   6.348  17.119  0.00  0.00    +0.000 C 
ATOM     23  C   UNL     1       6.520   5.922  17.118  0.00  0.00    +0.000 C 
ATOM     24  C   UNL     1       6.935   5.261  15.796  0.00  0.00    +0.000 C 
ATOM     25  C   UNL     1       7.378   7.184  17.309  0.00  0.00    +0.000 C 
ENDBRANCH  21  23
ENDBRANCH  17  21
ENDBRANCH  16  19
ENDBRANCH  15  16
ENDBRANCH  14  15
ENDBRANCH   1  14
TORSDOF 9
ENDMDL
MODEL 8
REMARK VINA RESULT:      -6.7      5.109      8.016
REMARK  Name = 
REMARK  12 active torsions:
REMARK  status: ('A' for Active; 'I' for Inactive)
REMARK    1  A    between atoms: C_1  and  C_2
REMARK    2  A    between atoms: C_2  and  C_3
REMARK    3  A    between atoms: C_2  and  C_4
REMARK    4  A    between atoms: C_2  and  O_5
REMARK    5  A    between atoms: O_5  and  C_6
REMARK    6  A    between atoms: N_8  and  C_9
REMARK    7  A    between atoms: C_9  and  C_10
REMARK    8  A    between atoms: C_10  and  O_11
REMARK    9  A    between atoms: O_11  and  C_12
REMARK   10  A    between atoms: C_12  and  C_14
REMARK   11  A    between atoms: C_15  and  C_16
REMARK   12  A    between atoms: C_16  and  C_18
REMARK                            x       y       z     vdW  Elec       q    Type
REMARK                         _______ _______ _______ _____ _____    ______ ____
ROOT
ATOM      1  C   UNL     1       1.891   4.711  20.508  0.00  0.00    +0.000 C 
ATOM      2  O   UNL     1       0.864   4.111  20.773  0.00  0.00    +0.000 OA
ENDROOT
BRANCH   1   3
ATOM      3  C   UNL     1       1.961   6.095  20.011  0.00  0.00    +0.000 C 
ATOM      4  C   UNL     1       1.475   7.088  20.761  0.00  0.00    +0.000 C 
BRANCH   4   5
ATOM      5  C   UNL     1       1.418   8.456  20.188  0.00  0.00    +0.000 C 
ATOM      6  O   UNL     1       1.948   8.735  19.120  0.00  0.00    +0.000 OA
BRANCH   5   7
ATOM      7  C   UNL     1       0.642   9.469  20.945  0.00  0.00    +0.000 A 
ATOM      8  C   UNL     1       0.102   9.176  22.204  0.00  0.00    +0.000 A 
ATOM      9  C   UNL     1      -0.630  10.146  22.893  0.00  0.00    +0.000 A 
ATOM     10  C   UNL     1      -0.815  11.407  22.328  0.00  0.00    +0.000 A 
ATOM     11 BR   UNL     1      -1.822  12.704  23.261  0.00  0.00    +0.000 Br
ATOM     12  C   UNL     1      -0.260  11.714  21.087  0.00  0.00    +0.000 A 
ATOM     13  C   UNL     1       0.475  10.747  20.395  0.00  0.00    +0.000 A 
ENDBRANCH   5   7
ENDBRANCH   4   5
ENDBRANCH   1   3
BRANCH   1  14
ATOM     14  O   UNL     1       3.138   4.195  20.421  0.00  0.00    +0.000 OA
BRANCH  14  15
ATOM     15  C   UNL     1       3.179   2.759  20.384  0.00  0.00    +0.000 C 
BRANCH  15  16
ATOM     16  C   UNL     1       4.500   2.361  19.715  0.00  0.00    +0.000 C 
BRANCH  16  19
ATOM     17  C   UNL     1       5.207   3.820  17.902  0.00  0.00    +0.000 C 
ATOM     18  O   UNL     1       4.434   3.311  17.103  0.00  0.00    +0.000 OA
ATOM     19  N   UNL     1       5.273   3.468  19.213  0.00  0.00    +0.000 N 
ATOM     20  H   UNL     1       5.976   3.918  19.782  0.00  0.00    +0.000 HD
BRANCH  17  21
ATOM     21  O   UNL     1       6.124   4.777  17.624  0.00  0.00    +0.000 OA
BRANCH  21  23
ATOM     22  C   UNL     1       6.722   7.135  17.251  0.00  0.00    +0.000 C 
ATOM     23  C   UNL     1       5.673   6.034  17.050  0.00  0.00    +0.000 C 
ATOM     24  C   UNL     1       4.295   6.436  17.594  0.00  0.00    +0.000 C 
ATOM     25  C   UNL     1       5.534   5.783  15.539  0.00  0.00    +0.000 C 
ENDBRANCH  21  23
ENDBRANCH  17  21
ENDBRANCH  16  19
ENDBRANCH  15  16
ENDBRANCH  14  15
ENDBRANCH   1  14
TORSDOF 9
ENDMDL
MODEL 9
REMARK VINA RESULT:      -6.7      4.285      9.788
REMARK  Name = 
REMARK  12 active torsions:
REMARK  status: ('A' for Active; 'I' for Inactive)
REMARK    1  A    between atoms: C_1  and  C_2
REMARK    2  A    between atoms: C_2  and  C_3
REMARK    3  A    between atoms: C_2  and  C_4
REMARK    4  A    between atoms: C_2  and  O_5
REMARK    5  A    between atoms: O_5  and  C_6
REMARK    6  A    between atoms: N_8  and  C_9
REMARK    7  A    between atoms: C_9  and  C_10
REMARK    8  A    between atoms: C_10  and  O_11
REMARK    9  A    between atoms: O_11  and  C_12
REMARK   10  A    between atoms: C_12  and  C_14
REMARK   11  A    between atoms: C_15  and  C_16
REMARK   12  A    between atoms: C_16  and  C_18
REMARK                            x       y       z     vdW  Elec       q    Type
REMARK                         _______ _______ _______ _____ _____    ______ ____
ROOT
ATOM      1  C   UNL     1       7.142   6.618  17.198  0.00  0.00    +0.000 C 
ATOM      2  O   UNL     1       7.494   6.095  16.156  0.00  0.00    +0.000 OA
ENDROOT
BRANCH   1   3
ATOM      3  C   UNL     1       5.760   6.654  17.706  0.00  0.00    +0.000 C 
ATOM      4  C   UNL     1       4.784   7.123  16.923  0.00  0.00    +0.000 C 
BRANCH   4   5
ATOM      5  C   UNL     1       3.425   7.290  17.495  0.00  0.00    +0.000 C 
ATOM      6  O   UNL     1       2.730   8.267  17.242  0.00  0.00    +0.000 OA
BRANCH   5   7
ATOM      7  C   UNL     1       2.917   6.192  18.353  0.00  0.00    +0.000 A 
ATOM      8  C   UNL     1       2.713   4.905  17.837  0.00  0.00    +0.000 A 
ATOM      9  C   UNL     1       2.228   3.890  18.665  0.00  0.00    +0.000 A 
ATOM     10  C   UNL     1       1.955   4.159  20.005  0.00  0.00    +0.000 A 
ATOM     11 BR   UNL     1       1.282   2.782  21.109  0.00  0.00    +0.000 Br
ATOM     12  C   UNL     1       2.178   5.430  20.532  0.00  0.00    +0.000 A 
ATOM     13  C   UNL     1       2.666   6.448  19.707  0.00  0.00    +0.000 A 
ENDBRANCH   5   7
ENDBRANCH   4   5
ENDBRANCH   1   3
BRANCH   1  14
ATOM     14  O   UNL     1       7.877   7.430  17.993  0.00  0.00    +0.000 OA
BRANCH  14  15
ATOM     15  C   UNL     1       7.861   8.811  17.598  0.00  0.00    +0.000 C 
BRANCH  15  16
ATOM     16  C   UNL     1       8.760   9.572  18.578  0.00  0.00    +0.000 C 
BRANCH  16  19
ATOM     17  C   UNL     1      10.066  11.618  18.729  0.00  0.00    +0.000 C 
ATOM     18  O   UNL     1      10.941  11.088  19.399  0.00  0.00    +0.000 OA
ATOM     19  N   UNL     1       8.992  10.951  18.230  0.00  0.00    +0.000 N 
ATOM     20  H   UNL     1       8.302  11.488  17.726  0.00  0.00    +0.000 HD
BRANCH  17  21
ATOM     21  O   UNL     1      10.000  12.930  18.398  0.00  0.00    +0.000 OA
BRANCH  21  23
ATOM     22  C   UNL     1       9.124  13.231  20.678  0.00  0.00    +0.000 C 
ATOM     23  C   UNL     1       9.289  13.840  19.280  0.00  0.00    +0.000 C 
ATOM     24  C   UNL     1       7.947  14.274  18.672  0.00  0.00    +0.000 C 
ATOM     25  C   UNL     1      10.179  15.088  19.408  0.00  0.00    +0.000 C 
ENDBRANCH  21  23
ENDBRANCH  17  21
ENDBRANCH  16  19
ENDBRANCH  15  16
ENDBRANCH  14  15
ENDBRANCH   1  14
TORSDOF 9
ENDMDL
