MODEL 1
REMARK VINA RESULT:      -7.4      0.000      0.000
REMARK  Name = 
REMARK  15 active torsions:
REMARK  status: ('A' for Active; 'I' for Inactive)
REMARK    1  A    between atoms: C_1  and  C_2
REMARK    2  A    between atoms: C_2  and  O_3
REMARK    3  A    between atoms: C_4  and  N_5
REMARK    4  A    between atoms: C_14  and  C_15
REMARK    5  A    between atoms: C_15  and  O_16
REMARK    6  A    between atoms: O_16  and  P_17
REMARK    7  A    between atoms: P_17  and  O_19
REMARK    8  A    between atoms: P_17  and  O_20
REMARK    9  A    between atoms: O_20  and  P_21
REMARK   10  A    between atoms: P_21  and  O_23
REMARK   11  A    between atoms: P_21  and  O_24
REMARK   12  A    between atoms: O_24  and  P_25
REMARK   13  A    between atoms: P_25  and  O_27
REMARK   14  A    between atoms: P_25  and  O_28
REMARK   15  A    between atoms: C_29  and  O_30
REMARK                            x       y       z     vdW  Elec       q    Type
REMARK                         _______ _______ _______ _____ _____    ______ ____
ROOT
ATOM      1  C   UNL     1       1.694   3.984  18.050  0.00  0.00    +0.000 C 
ATOM      2  C   UNL     1       1.814   4.969  19.220  0.00  0.00    +0.000 C 
ATOM      3  C   UNL     1       2.316   6.351  18.717  0.00  0.00    +0.000 C 
ATOM      4  O   UNL     1       3.746   6.268  18.724  0.00  0.00    +0.000 OA
ATOM      5  C   UNL     1       4.151   5.315  19.733  0.00  0.00    +0.000 C 
ATOM      6  C   UNL     1       2.925   4.530  20.173  0.00  0.00    +0.000 C 
ENDROOT
BRANCH   3   7
ATOM      7  N   UNL     1       1.861   7.515  19.500  0.00  0.00    +0.000 N 
ATOM      8  C   UNL     1       1.640   7.437  20.858  0.00  0.00    +0.000 A 
ATOM      9  C   UNL     1       1.106   8.442  21.563  0.00  0.00    +0.000 A 
ATOM     10  C   UNL     1       0.754   9.675  20.858  0.00  0.00    +0.000 A 
ATOM     11  O   UNL     1       0.146  10.573  21.413  0.00  0.00    +0.000 OA
ATOM     12  N   UNL     1       1.169   9.744  19.558  0.00  0.00    +0.000 N 
ATOM     13  C   UNL     1       1.622   8.694  18.807  0.00  0.00    +0.000 A 
ATOM     14  O   UNL     1       1.733   8.791  17.583  0.00  0.00    +0.000 OA
ATOM     15  H   UNL     1       0.924  10.583  19.049  0.00  0.00    +0.000 HD
ENDBRANCH   3   7
BRANCH   2  16
ATOM     16  O   UNL     1       0.568   4.945  19.926  0.00  0.00    +0.000 OA
ATOM     17  H   UNL     1      -0.124   4.671  19.299  0.00  0.00    +0.000 HD
ENDBRANCH   2  16
BRANCH   6  18
ATOM     18  O   UNL     1       2.592   4.915  21.517  0.00  0.00    +0.000 OA
ATOM     19  H   UNL     1       1.657   5.203  21.474  0.00  0.00    +0.000 HD
ENDBRANCH   6  18
BRANCH   5  20
ATOM     20  C   UNL     1       5.276   4.461  19.202  0.00  0.00    +0.000 C 
BRANCH  20  21
ATOM     21  O   UNL     1       6.404   5.318  19.021  0.00  0.00    +0.000 OA
BRANCH  21  22
ATOM     22  P   UNL     1       7.174   4.980  17.510  0.00  0.00    +0.000 P 
ATOM     23  O   UNL     1       8.329   4.274  18.230  0.00  0.00    +0.000 OA
BRANCH  22  24
ATOM     24  O   UNL     1       6.025   3.838  17.372  0.00  0.00    +0.000 OA
ATOM     25  H   UNL     1       5.133   4.222  17.225  0.00  0.00    +0.000 HD
ENDBRANCH  22  24
BRANCH  22  26
ATOM     26  O   UNL     1       7.944   4.642  15.998  0.00  0.00    +0.000 OA
BRANCH  26  27
ATOM     27  P   UNL     1       6.757   4.605  14.741  0.00  0.00    +0.000 P 
ATOM     28  O   UNL     1       6.026   5.809  15.367  0.00  0.00    +0.000 OA
BRANCH  27  29
ATOM     29  O   UNL     1       7.752   5.482  13.764  0.00  0.00    +0.000 OA
ATOM     30  H   UNL     1       7.146   5.889  13.103  0.00  0.00    +0.000 HD
ENDBRANCH  27  29
BRANCH  27  31
ATOM     31  O   UNL     1       5.569   4.568  13.483  0.00  0.00    +0.000 OA
BRANCH  31  32
ATOM     32  P   UNL     1       5.780   3.138  12.533  0.00  0.00    +0.000 P 
ATOM     33  O   UNL     1       4.508   3.414  11.726  0.00  0.00    +0.000 OA
BRANCH  32  34
ATOM     34  O   UNL     1       6.988   3.841  11.707  0.00  0.00    +0.000 OA
ATOM     35  H   UNL     1       6.633   4.474  11.054  0.00  0.00    +0.000 HD
ENDBRANCH  32  34
BRANCH  32  36
ATOM     36  O   UNL     1       5.992   1.707  11.584  0.00  0.00    +0.000 OA
ATOM     37  H   UNL     1       5.415   1.036  11.997  0.00  0.00    +0.000 HD
ENDBRANCH  32  36
ENDBRANCH  31  32
ENDBRANCH  27  31
ENDBRANCH  26  27
ENDBRANCH  22  26
ENDBRANCH  21  22
ENDBRANCH  20  21
ENDBRANCH   5  20
TORSDOF 14
ENDMDL
MODEL 2
REMARK VINA RESULT:      -7.4      4.401      8.016
REMARK  Name = 
REMARK  15 active torsions:
REMARK  status: ('A' for Active; 'I' for Inactive)
REMARK    1  A    between atoms: C_1  and  C_2
REMARK    2  A    between atoms: C_2  and  O_3
REMARK    3  A    between atoms: C_4  and  N_5
REMARK    4  A    between atoms: C_14  and  C_15
REMARK    5  A    between atoms: C_15  and  O_16
REMARK    6  A    between atoms: O_16  and  P_17
REMARK    7  A    between atoms: P_17  and  O_19
REMARK    8  A    between atoms: P_17  and  O_20
REMARK    9  A    between atoms: O_20  and  P_21
REMARK   10  A    between atoms: P_21  and  O_23
REMARK   11  A    between atoms: P_21  and  O_24
REMARK   12  A    between atoms: O_24  and  P_25
REMARK   13  A    between atoms: P_25  and  O_27
REMARK   14  A    between atoms: P_25  and  O_28
REMARK   15  A    between atoms: C_29  and  O_30
REMARK                            x       y       z     vdW  Elec       q    Type
REMARK                         _______ _______ _______ _____ _____    ______ ____
ROOT
ATOM      1  C   UNL     1       4.561   4.724  16.083  0.00  0.00    +0.000 C 
ATOM      2  C   UNL     1       4.228   4.679  17.579  0.00  0.00    +0.000 C 
ATOM      3  C   UNL     1       2.689   4.668  17.792  0.00  0.00    +0.000 C 
ATOM      4  O   UNL     1       2.293   6.044  17.812  0.00  0.00    +0.000 OA
ATOM      5  C   UNL     1       3.405   6.842  18.278  0.00  0.00    +0.000 C 
ATOM      6  C   UNL     1       4.657   5.979  18.260  0.00  0.00    +0.000 C 
ENDROOT
BRANCH   3   7
ATOM      7  N   UNL     1       2.221   3.977  19.009  0.00  0.00    +0.000 N 
ATOM      8  C   UNL     1       1.947   4.661  20.174  0.00  0.00    +0.000 A 
ATOM      9  C   UNL     1       1.645   4.042  21.322  0.00  0.00    +0.000 A 
ATOM     10  C   UNL     1       1.598   2.580  21.331  0.00  0.00    +0.000 A 
ATOM     11  O   UNL     1       1.461   1.954  22.368  0.00  0.00    +0.000 OA
ATOM     12  N   UNL     1       1.699   1.984  20.105  0.00  0.00    +0.000 N 
ATOM     13  C   UNL     1       2.103   2.596  18.950  0.00  0.00    +0.000 A 
ATOM     14  O   UNL     1       2.408   1.935  17.955  0.00  0.00    +0.000 OA
ATOM     15  H   UNL     1       1.681   0.973  20.091  0.00  0.00    +0.000 HD
ENDBRANCH   3   7
BRANCH   2  16
ATOM     16  O   UNL     1       4.973   3.596  18.148  0.00  0.00    +0.000 OA
ATOM     17  H   UNL     1       5.559   3.242  17.457  0.00  0.00    +0.000 HD
ENDBRANCH   2  16
BRANCH   6  18
ATOM     18  O   UNL     1       5.049   5.710  19.616  0.00  0.00    +0.000 OA
ATOM     19  H   UNL     1       4.689   6.457  20.137  0.00  0.00    +0.000 HD
ENDBRANCH   6  18
BRANCH   5  20
ATOM     20  C   UNL     1       3.508   8.101  17.453  0.00  0.00    +0.000 C 
BRANCH  20  21
ATOM     21  O   UNL     1       2.177   8.556  17.214  0.00  0.00    +0.000 OA
BRANCH  21  22
ATOM     22  P   UNL     1       1.753   9.789  18.351  0.00  0.00    +0.000 P 
ATOM     23  O   UNL     1       2.598  10.816  17.588  0.00  0.00    +0.000 OA
BRANCH  22  24
ATOM     24  O   UNL     1       0.326   9.780  17.572  0.00  0.00    +0.000 OA
ATOM     25  H   UNL     1       0.323  10.377  16.792  0.00  0.00    +0.000 HD
ENDBRANCH  22  24
BRANCH  22  26
ATOM     26  O   UNL     1       1.329  11.022  19.488  0.00  0.00    +0.000 OA
BRANCH  26  27
ATOM     27  P   UNL     1      -0.393  11.162  19.571  0.00  0.00    +0.000 P 
ATOM     28  O   UNL     1      -0.498   9.757  20.197  0.00  0.00    +0.000 OA
BRANCH  27  29
ATOM     29  O   UNL     1      -0.266  11.987  20.992  0.00  0.00    +0.000 OA
ATOM     30  H   UNL     1       0.240  12.798  20.758  0.00  0.00    +0.000 HD
ENDBRANCH  27  29
BRANCH  27  31
ATOM     31  O   UNL     1      -2.116  11.303  19.654  0.00  0.00    +0.000 OA
BRANCH  31  32
ATOM     32  P   UNL     1      -2.761  11.438  18.055  0.00  0.00    +0.000 P 
ATOM     33  O   UNL     1      -1.490  12.116  17.535  0.00  0.00    +0.000 OA
BRANCH  32  34
ATOM     34  O   UNL     1      -2.543   9.848  17.810  0.00  0.00    +0.000 OA
ATOM     35  H   UNL     1      -3.390   9.369  17.894  0.00  0.00    +0.000 HD
ENDBRANCH  32  34
BRANCH  32  36
ATOM     36  O   UNL     1      -3.407  11.573  16.456  0.00  0.00    +0.000 OA
ATOM     37  H   UNL     1      -2.731  11.178  15.871  0.00  0.00    +0.000 HD
ENDBRANCH  32  36
ENDBRANCH  31  32
ENDBRANCH  27  31
ENDBRANCH  26  27
ENDBRANCH  22  26
ENDBRANCH  21  22
ENDBRANCH  20  21
ENDBRANCH   5  20
TORSDOF 14
ENDMDL
MODEL 3
REMARK VINA RESULT:      -7.4      4.206      7.703
REMARK  Name = 
REMARK  15 active torsions:
REMARK  status: ('A' for Active; 'I' for Inactive)
REMARK    1  A    between atoms: C_1  and  C_2
REMARK    2  A    between atoms: C_2  and  O_3
REMARK    3  A    between atoms: C_4  and  N_5
REMARK    4  A    between atoms: C_14  and  C_15
REMARK    5  A    between atoms: C_15  and  O_16
REMARK    6  A    between atoms: O_16  and  P_17
REMARK    7  A    between atoms: P_17  and  O_19
REMARK    8  A    between atoms: P_17  and  O_20
REMARK    9  A    between atoms: O_20  and  P_21
REMARK   10  A    between atoms: P_21  and  O_23
REMARK   11  A    between atoms: P_21  and  O_24
REMARK   12  A    between atoms: O_24  and  P_25
REMARK   13  A    between atoms: P_25  and  O_27
REMARK   14  A    between atoms: P_25  and  O_28
REMARK   15  A    between atoms: C_29  and  O_30
REMARK                            x       y       z     vdW  Elec       q    Type
REMARK                         _______ _______ _______ _____ _____    ______ ____
ROOT
ATOM      1  C   UNL     1       7.629   6.323  17.707  0.00  0.00    +0.000 C 
ATOM      2  C   UNL     1       6.938   5.328  16.765  0.00  0.00    +0.000 C 
ATOM      3  C   UNL     1       6.589   6.014  15.415  0.00  0.00    +0.000 C 
ATOM      4  O   UNL     1       5.306   6.619  15.610  0.00  0.00    +0.000 OA
ATOM      5  C   UNL     1       4.587   5.871  16.617  0.00  0.00    +0.000 C 
ATOM      6  C   UNL     1       5.566   4.939  17.314  0.00  0.00    +0.000 C 
ENDROOT
BRANCH   3   7
ATOM      7  N   UNL     1       6.568   5.125  14.237  0.00  0.00    +0.000 N 
ATOM      8  C   UNL     1       5.535   4.240  14.012  0.00  0.00    +0.000 A 
ATOM      9  C   UNL     1       5.559   3.338  13.024  0.00  0.00    +0.000 A 
ATOM     10  C   UNL     1       6.727   3.301  12.144  0.00  0.00    +0.000 A 
ATOM     11  O   UNL     1       6.869   2.421  11.312  0.00  0.00    +0.000 OA
ATOM     12  N   UNL     1       7.619   4.322  12.314  0.00  0.00    +0.000 N 
ATOM     13  C   UNL     1       7.655   5.183  13.377  0.00  0.00    +0.000 A 
ATOM     14  O   UNL     1       8.636   5.904  13.577  0.00  0.00    +0.000 OA
ATOM     15  H   UNL     1       8.441   4.308  11.724  0.00  0.00    +0.000 HD
ENDBRANCH   3   7
BRANCH   2  16
ATOM     16  O   UNL     1       7.760   4.156  16.708  0.00  0.00    +0.000 OA
ATOM     17  H   UNL     1       7.961   3.978  15.773  0.00  0.00    +0.000 HD
ENDBRANCH   2  16
BRANCH   6  18
ATOM     18  O   UNL     1       5.259   3.587  16.937  0.00  0.00    +0.000 OA
ATOM     19  H   UNL     1       6.082   3.083  17.106  0.00  0.00    +0.000 HD
ENDBRANCH   6  18
BRANCH   5  20
ATOM     20  C   UNL     1       3.872   6.823  17.543  0.00  0.00    +0.000 C 
BRANCH  20  21
ATOM     21  O   UNL     1       4.400   6.612  18.852  0.00  0.00    +0.000 OA
BRANCH  21  22
ATOM     22  P   UNL     1       3.207   5.875  19.865  0.00  0.00    +0.000 P 
ATOM     23  O   UNL     1       2.254   5.725  18.674  0.00  0.00    +0.000 OA
BRANCH  22  24
ATOM     24  O   UNL     1       4.178   4.573  19.772  0.00  0.00    +0.000 OA
ATOM     25  H   UNL     1       3.838   3.899  19.144  0.00  0.00    +0.000 HD
ENDBRANCH  22  24
BRANCH  22  26
ATOM     26  O   UNL     1       2.015   5.136  20.879  0.00  0.00    +0.000 OA
BRANCH  26  27
ATOM     27  P   UNL     1       1.943   3.441  20.543  0.00  0.00    +0.000 P 
ATOM     28  O   UNL     1       1.655   3.138  22.027  0.00  0.00    +0.000 OA
BRANCH  27  29
ATOM     29  O   UNL     1       0.369   3.592  20.078  0.00  0.00    +0.000 OA
ATOM     30  H   UNL     1      -0.145   3.363  20.885  0.00  0.00    +0.000 HD
ENDBRANCH  27  29
BRANCH  27  31
ATOM     31  O   UNL     1       1.870   1.745  20.208  0.00  0.00    +0.000 OA
BRANCH  31  32
ATOM     32  P   UNL     1       3.064   1.340  19.023  0.00  0.00    +0.000 P 
ATOM     33  O   UNL     1       2.689   2.541  18.148  0.00  0.00    +0.000 OA
BRANCH  32  34
ATOM     34  O   UNL     1       4.246   1.863  20.005  0.00  0.00    +0.000 OA
ATOM     35  H   UNL     1       5.088   1.939  19.517  0.00  0.00    +0.000 HD
ENDBRANCH  32  34
BRANCH  32  36
ATOM     36  O   UNL     1       4.258   0.935  17.838  0.00  0.00    +0.000 OA
ATOM     37  H   UNL     1       3.781   0.923  16.985  0.00  0.00    +0.000 HD
ENDBRANCH  32  36
ENDBRANCH  31  32
ENDBRANCH  27  31
ENDBRANCH  26  27
ENDBRANCH  22  26
ENDBRANCH  21  22
ENDBRANCH  20  21
ENDBRANCH   5  20
TORSDOF 14
ENDMDL
MODEL 4
REMARK VINA RESULT:      -7.3      4.105      8.916
REMARK  Name = 
REMARK  15 active torsions:
REMARK  status: ('A' for Active; 'I' for Inactive)
REMARK    1  A    between atoms: C_1  and  C_2
REMARK    2  A    between atoms: C_2  and  O_3
REMARK    3  A    between atoms: C_4  and  N_5
REMARK    4  A    between atoms: C_14  and  C_15
REMARK    5  A    between atoms: C_15  and  O_16
REMARK    6  A    between atoms: O_16  and  P_17
REMARK    7  A    between atoms: P_17  and  O_19
REMARK    8  A    between atoms: P_17  and  O_20
REMARK    9  A    between atoms: O_20  and  P_21
REMARK   10  A    between atoms: P_21  and  O_23
REMARK   11  A    between atoms: P_21  and  O_24
REMARK   12  A    between atoms: O_24  and  P_25
REMARK   13  A    between atoms: P_25  and  O_27
REMARK   14  A    between atoms: P_25  and  O_28
REMARK   15  A    between atoms: C_29  and  O_30
REMARK                            x       y       z     vdW  Elec       q    Type
REMARK                         _______ _______ _______ _____ _____    ______ ____
ROOT
ATOM      1  C   UNL     1       3.868   3.068  20.401  0.00  0.00    +0.000 C 
ATOM      2  C   UNL     1       3.925   3.681  18.996  0.00  0.00    +0.000 C 
ATOM      3  C   UNL     1       4.955   4.845  18.954  0.00  0.00    +0.000 C 
ATOM      4  O   UNL     1       4.234   6.012  19.362  0.00  0.00    +0.000 OA
ATOM      5  C   UNL     1       2.839   5.841  19.023  0.00  0.00    +0.000 C 
ATOM      6  C   UNL     1       2.607   4.381  18.666  0.00  0.00    +0.000 C 
ENDROOT
BRANCH   3   7
ATOM      7  N   UNL     1       5.606   5.069  17.649  0.00  0.00    +0.000 N 
ATOM      8  C   UNL     1       4.902   5.514  16.551  0.00  0.00    +0.000 A 
ATOM      9  C   UNL     1       5.445   5.602  15.331  0.00  0.00    +0.000 A 
ATOM     10  C   UNL     1       6.845   5.215  15.164  0.00  0.00    +0.000 A 
ATOM     11  O   UNL     1       7.359   5.146  14.061  0.00  0.00    +0.000 OA
ATOM     12  N   UNL     1       7.524   4.961  16.322  0.00  0.00    +0.000 N 
ATOM     13  C   UNL     1       6.959   4.774  17.555  0.00  0.00    +0.000 A 
ATOM     14  O   UNL     1       7.613   4.303  18.488  0.00  0.00    +0.000 OA
ATOM     15  H   UNL     1       8.491   4.680  16.228  0.00  0.00    +0.000 HD
ENDBRANCH   3   7
BRANCH   2  16
ATOM     16  O   UNL     1       4.118   2.605  18.071  0.00  0.00    +0.000 OA
ATOM     17  H   UNL     1       3.351   2.012  18.139  0.00  0.00    +0.000 HD
ENDBRANCH   2  16
BRANCH   6  18
ATOM     18  O   UNL     1       2.349   4.289  17.255  0.00  0.00    +0.000 OA
ATOM     19  H   UNL     1       1.679   3.581  17.165  0.00  0.00    +0.000 HD
ENDBRANCH   6  18
BRANCH   5  20
ATOM     20  C   UNL     1       1.976   6.347  20.153  0.00  0.00    +0.000 C 
BRANCH  20  21
ATOM     21  O   UNL     1       2.202   7.752  20.257  0.00  0.00    +0.000 OA
BRANCH  21  22
ATOM     22  P   UNL     1       0.787   8.542  20.861  0.00  0.00    +0.000 P 
ATOM     23  O   UNL     1       1.497   8.852  22.184  0.00  0.00    +0.000 OA
BRANCH  22  24
ATOM     24  O   UNL     1       1.241   9.746  19.867  0.00  0.00    +0.000 OA
ATOM     25  H   UNL     1       1.611   9.411  19.020  0.00  0.00    +0.000 HD
ENDBRANCH  22  24
BRANCH  22  26
ATOM     26  O   UNL     1      -0.628   9.333  21.465  0.00  0.00    +0.000 OA
BRANCH  26  27
ATOM     27  P   UNL     1      -0.268  10.994  21.785  0.00  0.00    +0.000 P 
ATOM     28  O   UNL     1      -1.744  11.379  21.561  0.00  0.00    +0.000 OA
BRANCH  27  29
ATOM     29  O   UNL     1      -0.395  10.718  23.405  0.00  0.00    +0.000 OA
ATOM     30  H   UNL     1      -0.445   9.738  23.481  0.00  0.00    +0.000 HD
ENDBRANCH  27  29
BRANCH  27  31
ATOM     31  O   UNL     1       0.092  12.656  22.107  0.00  0.00    +0.000 OA
BRANCH  31  32
ATOM     32  P   UNL     1       0.933  13.335  20.756  0.00  0.00    +0.000 P 
ATOM     33  O   UNL     1       2.183  12.495  21.036  0.00  0.00    +0.000 OA
BRANCH  32  34
ATOM     34  O   UNL     1       0.034  12.457  19.728  0.00  0.00    +0.000 OA
ATOM     35  H   UNL     1      -0.536  13.038  19.189  0.00  0.00    +0.000 HD
ENDBRANCH  32  34
BRANCH  32  36
ATOM     36  O   UNL     1       1.773  14.014  19.405  0.00  0.00    +0.000 OA
ATOM     37  H   UNL     1       2.531  14.497  19.789  0.00  0.00    +0.000 HD
ENDBRANCH  32  36
ENDBRANCH  31  32
ENDBRANCH  27  31
ENDBRANCH  26  27
ENDBRANCH  22  26
ENDBRANCH  21  22
ENDBRANCH  20  21
ENDBRANCH   5  20
TORSDOF 14
ENDMDL
MODEL 5
REMARK VINA RESULT:      -7.2      4.359      8.131
REMARK  Name = 
REMARK  15 active torsions:
REMARK  status: ('A' for Active; 'I' for Inactive)
REMARK    1  A    between atoms: C_1  and  C_2
REMARK    2  A    between atoms: C_2  and  O_3
REMARK    3  A    between atoms: C_4  and  N_5
REMARK    4  A    between atoms: C_14  and  C_15
REMARK    5  A    between atoms: C_15  and  O_16
REMARK    6  A    between atoms: O_16  and  P_17
REMARK    7  A    between atoms: P_17  and  O_19
REMARK    8  A    between atoms: P_17  and  O_20
REMARK    9  A    between atoms: O_20  and  P_21
REMARK   10  A    between atoms: P_21  and  O_23
REMARK   11  A    between atoms: P_21  and  O_24
REMARK   12  A    between atoms: O_24  and  P_25
REMARK   13  A    between atoms: P_25  and  O_27
REMARK   14  A    between atoms: P_25  and  O_28
REMARK   15  A    between atoms: C_29  and  O_30
REMARK                            x       y       z     vdW  Elec       q    Type
REMARK                         _______ _______ _______ _____ _____    ______ ____
ROOT
ATOM      1  C   UNL     1       4.657   4.625  16.049  0.00  0.00    +0.000 C 
ATOM      2  C   UNL     1       4.335   4.593  17.549  0.00  0.00    +0.000 C 
ATOM      3  C   UNL     1       2.799   4.657  17.775  0.00  0.00    +0.000 C 
ATOM      4  O   UNL     1       2.471   6.051  17.801  0.00  0.00    +0.000 OA
ATOM      5  C   UNL     1       3.624   6.792  18.259  0.00  0.00    +0.000 C 
ATOM      6  C   UNL     1       4.833   5.869  18.228  0.00  0.00    +0.000 C 
ENDROOT
BRANCH   3   7
ATOM      7  N   UNL     1       2.309   3.987  18.995  0.00  0.00    +0.000 N 
ATOM      8  C   UNL     1       2.116   4.673  20.175  0.00  0.00    +0.000 A 
ATOM      9  C   UNL     1       1.795   4.062  21.321  0.00  0.00    +0.000 A 
ATOM     10  C   UNL     1       1.635   2.608  21.314  0.00  0.00    +0.000 A 
ATOM     11  O   UNL     1       1.475   1.981  22.347  0.00  0.00    +0.000 OA
ATOM     12  N   UNL     1       1.661   2.024  20.079  0.00  0.00    +0.000 N 
ATOM     13  C   UNL     1       2.083   2.620  18.922  0.00  0.00    +0.000 A 
ATOM     14  O   UNL     1       2.312   1.951  17.911  0.00  0.00    +0.000 OA
ATOM     15  H   UNL     1       1.564   1.018  20.053  0.00  0.00    +0.000 HD
ENDBRANCH   3   7
BRANCH   2  16
ATOM     16  O   UNL     1       5.031   3.473  18.109  0.00  0.00    +0.000 OA
ATOM     17  H   UNL     1       4.546   3.186  18.901  0.00  0.00    +0.000 HD
ENDBRANCH   2  16
BRANCH   6  18
ATOM     18  O   UNL     1       5.223   5.578  19.580  0.00  0.00    +0.000 OA
ATOM     19  H   UNL     1       5.439   4.623  19.582  0.00  0.00    +0.000 HD
ENDBRANCH   6  18
BRANCH   5  20
ATOM     20  C   UNL     1       3.781   8.046  17.435  0.00  0.00    +0.000 C 
BRANCH  20  21
ATOM     21  O   UNL     1       2.472   8.460  17.046  0.00  0.00    +0.000 OA
BRANCH  21  22
ATOM     22  P   UNL     1       1.896   9.698  18.107  0.00  0.00    +0.000 P 
ATOM     23  O   UNL     1       2.693  10.759  17.339  0.00  0.00    +0.000 OA
BRANCH  22  24
ATOM     24  O   UNL     1       0.515   9.542  17.263  0.00  0.00    +0.000 OA
ATOM     25  H   UNL     1      -0.141  10.238  17.488  0.00  0.00    +0.000 HD
ENDBRANCH  22  24
BRANCH  22  26
ATOM     26  O   UNL     1       1.319  10.936  19.168  0.00  0.00    +0.000 OA
BRANCH  26  27
ATOM     27  P   UNL     1       0.261  10.240  20.346  0.00  0.00    +0.000 P 
ATOM     28  O   UNL     1      -0.934  10.368  19.380  0.00  0.00    +0.000 OA
BRANCH  27  29
ATOM     29  O   UNL     1       0.717   8.728  19.874  0.00  0.00    +0.000 OA
ATOM     30  H   UNL     1       0.925   8.263  20.716  0.00  0.00    +0.000 HD
ENDBRANCH  27  29
BRANCH  27  31
ATOM     31  O   UNL     1      -0.797   9.542  21.524  0.00  0.00    +0.000 OA
BRANCH  31  32
ATOM     32  P   UNL     1       0.018   9.450  23.047  0.00  0.00    +0.000 P 
ATOM     33  O   UNL     1       1.388   9.660  22.395  0.00  0.00    +0.000 OA
BRANCH  32  34
ATOM     34  O   UNL     1      -0.512  10.932  23.444  0.00  0.00    +0.000 OA
ATOM     35  H   UNL     1      -0.737  10.973  24.393  0.00  0.00    +0.000 HD
ENDBRANCH  32  34
BRANCH  32  36
ATOM     36  O   UNL     1       0.832   9.358  24.571  0.00  0.00    +0.000 OA
ATOM     37  H   UNL     1       0.854   8.407  24.794  0.00  0.00    +0.000 HD
ENDBRANCH  32  36
ENDBRANCH  31  32
ENDBRANCH  27  31
ENDBRANCH  26  27
ENDBRANCH  22  26
ENDBRANCH  21  22
ENDBRANCH  20  21
ENDBRANCH   5  20
TORSDOF 14
ENDMDL
MODEL 6
REMARK VINA RESULT:      -7.2      3.016      5.552
REMARK  Name = 
REMARK  15 active torsions:
REMARK  status: ('A' for Active; 'I' for Inactive)
REMARK    1  A    between atoms: C_1  and  C_2
REMARK    2  A    between atoms: C_2  and  O_3
REMARK    3  A    between atoms: C_4  and  N_5
REMARK    4  A    between atoms: C_14  and  C_15
REMARK    5  A    between atoms: C_15  and  O_16
REMARK    6  A    between atoms: O_16  and  P_17
REMARK    7  A    between atoms: P_17  and  O_19
REMARK    8  A    between atoms: P_17  and  O_20
REMARK    9  A    between atoms: O_20  and  P_21
REMARK   10  A    between atoms: P_21  and  O_23
REMARK   11  A    between atoms: P_21  and  O_24
REMARK   12  A    between atoms: O_24  and  P_25
REMARK   13  A    between atoms: P_25  and  O_27
REMARK   14  A    between atoms: P_25  and  O_28
REMARK   15  A    between atoms: C_29  and  O_30
REMARK                            x       y       z     vdW  Elec       q    Type
REMARK                         _______ _______ _______ _____ _____    ______ ____
ROOT
ATOM      1  C   UNL     1       1.541  11.912  20.563  0.00  0.00    +0.000 C 
ATOM      2  C   UNL     1       0.958  11.365  19.253  0.00  0.00    +0.000 C 
ATOM      3  C   UNL     1      -0.426  10.706  19.509  0.00  0.00    +0.000 C 
ATOM      4  O   UNL     1      -0.145   9.350  19.873  0.00  0.00    +0.000 OA
ATOM      5  C   UNL     1       1.103   8.953  19.261  0.00  0.00    +0.000 C 
ATOM      6  C   UNL     1       1.802  10.199  18.740  0.00  0.00    +0.000 C 
ENDROOT
BRANCH   3   7
ATOM      7  N   UNL     1      -1.370  10.753  18.376  0.00  0.00    +0.000 N 
ATOM      8  C   UNL     1      -1.439   9.740  17.444  0.00  0.00    +0.000 A 
ATOM      9  C   UNL     1      -2.195   9.822  16.343  0.00  0.00    +0.000 A 
ATOM     10  C   UNL     1      -2.986  11.034  16.131  0.00  0.00    +0.000 A 
ATOM     11  O   UNL     1      -3.589  11.226  15.089  0.00  0.00    +0.000 OA
ATOM     12  N   UNL     1      -3.008  11.909  17.180  0.00  0.00    +0.000 N 
ATOM     13  C   UNL     1      -2.168  11.883  18.260  0.00  0.00    +0.000 A 
ATOM     14  O   UNL     1      -2.088  12.846  19.026  0.00  0.00    +0.000 OA
ATOM     15  H   UNL     1      -3.539  12.760  17.049  0.00  0.00    +0.000 HD
ENDBRANCH   3   7
BRANCH   2  16
ATOM     16  O   UNL     1       1.008  12.426  18.291  0.00  0.00    +0.000 OA
ATOM     17  H   UNL     1       0.714  12.068  17.437  0.00  0.00    +0.000 HD
ENDBRANCH   2  16
BRANCH   6  18
ATOM     18  O   UNL     1       1.774  10.174  17.304  0.00  0.00    +0.000 OA
ATOM     19  H   UNL     1       1.431   9.287  17.072  0.00  0.00    +0.000 HD
ENDBRANCH   6  18
BRANCH   5  20
ATOM     20  C   UNL     1       1.919   8.150  20.245  0.00  0.00    +0.000 C 
BRANCH  20  21
ATOM     21  O   UNL     1       1.442   6.806  20.189  0.00  0.00    +0.000 OA
BRANCH  21  22
ATOM     22  P   UNL     1       2.767   5.709  20.019  0.00  0.00    +0.000 P 
ATOM     23  O   UNL     1       2.399   5.023  21.340  0.00  0.00    +0.000 OA
BRANCH  22  24
ATOM     24  O   UNL     1       1.813   4.994  18.913  0.00  0.00    +0.000 OA
ATOM     25  H   UNL     1       2.185   4.143  18.593  0.00  0.00    +0.000 HD
ENDBRANCH  22  24
BRANCH  22  26
ATOM     26  O   UNL     1       4.092   4.610  19.848  0.00  0.00    +0.000 OA
BRANCH  26  27
ATOM     27  P   UNL     1       5.178   5.199  18.638  0.00  0.00    +0.000 P 
ATOM     28  O   UNL     1       6.321   5.275  19.670  0.00  0.00    +0.000 OA
BRANCH  27  29
ATOM     29  O   UNL     1       5.479   3.656  18.144  0.00  0.00    +0.000 OA
ATOM     30  H   UNL     1       4.592   3.228  18.130  0.00  0.00    +0.000 HD
ENDBRANCH  27  29
BRANCH  27  31
ATOM     31  O   UNL     1       6.265   5.788  17.427  0.00  0.00    +0.000 OA
BRANCH  31  32
ATOM     32  P   UNL     1       6.316   4.671  16.106  0.00  0.00    +0.000 P 
ATOM     33  O   UNL     1       6.210   5.796  15.073  0.00  0.00    +0.000 OA
BRANCH  32  34
ATOM     34  O   UNL     1       7.905   4.435  16.340  0.00  0.00    +0.000 OA
ATOM     35  H   UNL     1       8.345   5.275  16.571  0.00  0.00    +0.000 HD
ENDBRANCH  32  34
BRANCH  32  36
ATOM     36  O   UNL     1       6.366   3.553  14.787  0.00  0.00    +0.000 OA
ATOM     37  H   UNL     1       5.883   2.764  15.100  0.00  0.00    +0.000 HD
ENDBRANCH  32  36
ENDBRANCH  31  32
ENDBRANCH  27  31
ENDBRANCH  26  27
ENDBRANCH  22  26
ENDBRANCH  21  22
ENDBRANCH  20  21
ENDBRANCH   5  20
TORSDOF 14
ENDMDL
MODEL 7
REMARK VINA RESULT:      -7.1      4.802      8.901
REMARK  Name = 
REMARK  15 active torsions:
REMARK  status: ('A' for Active; 'I' for Inactive)
REMARK    1  A    between atoms: C_1  and  C_2
REMARK    2  A    between atoms: C_2  and  O_3
REMARK    3  A    between atoms: C_4  and  N_5
REMARK    4  A    between atoms: C_14  and  C_15
REMARK    5  A    between atoms: C_15  and  O_16
REMARK    6  A    between atoms: O_16  and  P_17
REMARK    7  A    between atoms: P_17  and  O_19
REMARK    8  A    between atoms: P_17  and  O_20
REMARK    9  A    between atoms: O_20  and  P_21
REMARK   10  A    between atoms: P_21  and  O_23
REMARK   11  A    between atoms: P_21  and  O_24
REMARK   12  A    between atoms: O_24  and  P_25
REMARK   13  A    between atoms: P_25  and  O_27
REMARK   14  A    between atoms: P_25  and  O_28
REMARK   15  A    between atoms: C_29  and  O_30
REMARK                            x       y       z     vdW  Elec       q    Type
REMARK                         _______ _______ _______ _____ _____    ______ ____
ROOT
ATOM      1  C   UNL     1       7.503   6.589  17.756  0.00  0.00    +0.000 C 
ATOM      2  C   UNL     1       6.849   5.497  16.900  0.00  0.00    +0.000 C 
ATOM      3  C   UNL     1       6.288   6.103  15.583  0.00  0.00    +0.000 C 
ATOM      4  O   UNL     1       4.967   6.555  15.899  0.00  0.00    +0.000 OA
ATOM      5  C   UNL     1       4.446   5.752  16.982  0.00  0.00    +0.000 C 
ATOM      6  C   UNL     1       5.594   4.960  17.588  0.00  0.00    +0.000 C 
ENDROOT
BRANCH   3   7
ATOM      7  N   UNL     1       6.260   5.189  14.425  0.00  0.00    +0.000 N 
ATOM      8  C   UNL     1       5.169   4.391  14.155  0.00  0.00    +0.000 A 
ATOM      9  C   UNL     1       5.172   3.466  13.188  0.00  0.00    +0.000 A 
ATOM     10  C   UNL     1       6.382   3.306  12.383  0.00  0.00    +0.000 A 
ATOM     11  O   UNL     1       6.496   2.396  11.579  0.00  0.00    +0.000 OA
ATOM     12  N   UNL     1       7.349   4.250  12.587  0.00  0.00    +0.000 N 
ATOM     13  C   UNL     1       7.397   5.132  13.632  0.00  0.00    +0.000 A 
ATOM     14  O   UNL     1       8.423   5.770  13.877  0.00  0.00    +0.000 OA
ATOM     15  H   UNL     1       8.199   4.150  12.048  0.00  0.00    +0.000 HD
ENDBRANCH   3   7
BRANCH   2  16
ATOM     16  O   UNL     1       7.797   4.430  16.775  0.00  0.00    +0.000 OA
ATOM     17  H   UNL     1       7.612   3.784  17.478  0.00  0.00    +0.000 HD
ENDBRANCH   2  16
BRANCH   6  18
ATOM     18  O   UNL     1       5.417   3.572  17.262  0.00  0.00    +0.000 OA
ATOM     19  H   UNL     1       4.871   3.208  17.988  0.00  0.00    +0.000 HD
ENDBRANCH   6  18
BRANCH   5  20
ATOM     20  C   UNL     1       3.716   6.635  17.963  0.00  0.00    +0.000 C 
BRANCH  20  21
ATOM     21  O   UNL     1       2.964   7.579  17.201  0.00  0.00    +0.000 OA
BRANCH  21  22
ATOM     22  P   UNL     1       2.316   8.803  18.236  0.00  0.00    +0.000 P 
ATOM     23  O   UNL     1       0.964   8.727  17.518  0.00  0.00    +0.000 OA
BRANCH  22  24
ATOM     24  O   UNL     1       2.259   7.605  19.334  0.00  0.00    +0.000 OA
ATOM     25  H   UNL     1       2.322   6.717  18.920  0.00  0.00    +0.000 HD
ENDBRANCH  22  24
BRANCH  22  26
ATOM     26  O   UNL     1       1.668  10.028  19.272  0.00  0.00    +0.000 OA
BRANCH  26  27
ATOM     27  P   UNL     1      -0.047  10.112  19.063  0.00  0.00    +0.000 P 
ATOM     28  O   UNL     1      -0.193  10.870  20.397  0.00  0.00    +0.000 OA
BRANCH  27  29
ATOM     29  O   UNL     1       0.127  11.447  18.112  0.00  0.00    +0.000 OA
ATOM     30  H   UNL     1      -0.609  11.378  17.462  0.00  0.00    +0.000 HD
ENDBRANCH  27  29
BRANCH  27  31
ATOM     31  O   UNL     1      -1.762  10.197  18.854  0.00  0.00    +0.000 OA
BRANCH  31  32
ATOM     32  P   UNL     1      -2.120  10.778  17.264  0.00  0.00    +0.000 P 
ATOM     33  O   UNL     1      -3.348   9.869  17.144  0.00  0.00    +0.000 OA
BRANCH  32  34
ATOM     34  O   UNL     1      -2.667  12.178  17.877  0.00  0.00    +0.000 OA
ATOM     35  H   UNL     1      -2.974  12.768  17.162  0.00  0.00    +0.000 HD
ENDBRANCH  32  34
BRANCH  32  36
ATOM     36  O   UNL     1      -2.477  11.359  15.675  0.00  0.00    +0.000 OA
ATOM     37  H   UNL     1      -3.437  11.220  15.558  0.00  0.00    +0.000 HD
ENDBRANCH  32  36
ENDBRANCH  31  32
ENDBRANCH  27  31
ENDBRANCH  26  27
ENDBRANCH  22  26
ENDBRANCH  21  22
ENDBRANCH  20  21
ENDBRANCH   5  20
TORSDOF 14
ENDMDL
MODEL 8
REMARK VINA RESULT:      -7.1      4.157      8.600
REMARK  Name = 
REMARK  15 active torsions:
REMARK  status: ('A' for Active; 'I' for Inactive)
REMARK    1  A    between atoms: C_1  and  C_2
REMARK    2  A    between atoms: C_2  and  O_3
REMARK    3  A    between atoms: C_4  and  N_5
REMARK    4  A    between atoms: C_14  and  C_15
REMARK    5  A    between atoms: C_15  and  O_16
REMARK    6  A    between atoms: O_16  and  P_17
REMARK    7  A    between atoms: P_17  and  O_19
REMARK    8  A    between atoms: P_17  and  O_20
REMARK    9  A    between atoms: O_20  and  P_21
REMARK   10  A    between atoms: P_21  and  O_23
REMARK   11  A    between atoms: P_21  and  O_24
REMARK   12  A    between atoms: O_24  and  P_25
REMARK   13  A    between atoms: P_25  and  O_27
REMARK   14  A    between atoms: P_25  and  O_28
REMARK   15  A    between atoms: C_29  and  O_30
REMARK                            x       y       z     vdW  Elec       q    Type
REMARK                         _______ _______ _______ _____ _____    ______ ____
ROOT
ATOM      1  C   UNL     1       2.947   2.721  20.391  0.00  0.00    +0.000 C 
ATOM      2  C   UNL     1       3.241   3.445  19.071  0.00  0.00    +0.000 C 
ATOM      3  C   UNL     1       4.526   4.310  19.201  0.00  0.00    +0.000 C 
ATOM      4  O   UNL     1       4.090   5.571  19.720  0.00  0.00    +0.000 OA
ATOM      5  C   UNL     1       2.720   5.793  19.315  0.00  0.00    +0.000 C 
ATOM      6  C   UNL     1       2.159   4.484  18.780  0.00  0.00    +0.000 C 
ENDROOT
BRANCH   3   7
ATOM      7  N   UNL     1       5.293   4.499  17.955  0.00  0.00    +0.000 N 
ATOM      8  C   UNL     1       4.723   4.308  16.714  0.00  0.00    +0.000 A 
ATOM      9  C   UNL     1       5.432   4.350  15.580  0.00  0.00    +0.000 A 
ATOM     10  C   UNL     1       6.867   4.619  15.666  0.00  0.00    +0.000 A 
ATOM     11  O   UNL     1       7.589   4.538  14.687  0.00  0.00    +0.000 OA
ATOM     12  N   UNL     1       7.322   4.976  16.904  0.00  0.00    +0.000 N 
ATOM     13  C   UNL     1       6.632   4.842  18.078  0.00  0.00    +0.000 A 
ATOM     14  O   UNL     1       7.203   4.950  19.165  0.00  0.00    +0.000 OA
ATOM     15  H   UNL     1       8.314   5.154  16.988  0.00  0.00    +0.000 HD
ENDBRANCH   3   7
BRANCH   2  16
ATOM     16  O   UNL     1       3.221   2.458  18.032  0.00  0.00    +0.000 OA
ATOM     17  H   UNL     1       3.468   1.605  18.427  0.00  0.00    +0.000 HD
ENDBRANCH   2  16
BRANCH   6  18
ATOM     18  O   UNL     1       1.976   4.610  17.361  0.00  0.00    +0.000 OA
ATOM     19  H   UNL     1       2.581   5.330  17.090  0.00  0.00    +0.000 HD
ENDBRANCH   6  18
BRANCH   5  20
ATOM     20  C   UNL     1       1.939   6.377  20.467  0.00  0.00    +0.000 C 
BRANCH  20  21
ATOM     21  O   UNL     1       2.189   7.783  20.473  0.00  0.00    +0.000 OA
BRANCH  21  22
ATOM     22  P   UNL     1       0.842   8.626  21.154  0.00  0.00    +0.000 P 
ATOM     23  O   UNL     1       0.153   7.299  21.493  0.00  0.00    +0.000 OA
BRANCH  22  24
ATOM     24  O   UNL     1       1.853   8.887  22.401  0.00  0.00    +0.000 OA
ATOM     25  H   UNL     1       1.943   9.842  22.615  0.00  0.00    +0.000 HD
ENDBRANCH  22  24
BRANCH  22  26
ATOM     26  O   UNL     1      -0.505   9.470  21.837  0.00  0.00    +0.000 OA
BRANCH  26  27
ATOM     27  P   UNL     1      -0.513  11.103  21.265  0.00  0.00    +0.000 P 
ATOM     28  O   UNL     1      -0.082  11.613  22.655  0.00  0.00    +0.000 OA
BRANCH  27  29
ATOM     29  O   UNL     1       1.008  10.907  20.662  0.00  0.00    +0.000 OA
ATOM     30  H   UNL     1       1.150  11.702  20.098  0.00  0.00    +0.000 HD
ENDBRANCH  27  29
BRANCH  27  31
ATOM     31  O   UNL     1      -0.520  12.736  20.694  0.00  0.00    +0.000 OA
BRANCH  31  32
ATOM     32  P   UNL     1      -0.840  12.750  18.994  0.00  0.00    +0.000 P 
ATOM     33  O   UNL     1       0.644  12.916  18.655  0.00  0.00    +0.000 OA
BRANCH  32  34
ATOM     34  O   UNL     1      -1.112  11.150  19.011  0.00  0.00    +0.000 OA
ATOM     35  H   UNL     1      -0.378  10.673  18.578  0.00  0.00    +0.000 HD
ENDBRANCH  32  34
BRANCH  32  36
ATOM     36  O   UNL     1      -1.161  12.764  17.294  0.00  0.00    +0.000 OA
ATOM     37  H   UNL     1      -0.417  12.279  16.887  0.00  0.00    +0.000 HD
ENDBRANCH  32  36
ENDBRANCH  31  32
ENDBRANCH  27  31
ENDBRANCH  26  27
ENDBRANCH  22  26
ENDBRANCH  21  22
ENDBRANCH  20  21
ENDBRANCH   5  20
TORSDOF 14
ENDMDL
MODEL 9
REMARK VINA RESULT:      -7.1      4.188      8.321
REMARK  Name = 
REMARK  15 active torsions:
REMARK  status: ('A' for Active; 'I' for Inactive)
REMARK    1  A    between atoms: C_1  and  C_2
REMARK    2  A    between atoms: C_2  and  O_3
REMARK    3  A    between atoms: C_4  and  N_5
REMARK    4  A    between atoms: C_14  and  C_15
REMARK    5  A    between atoms: C_15  and  O_16
REMARK    6  A    between atoms: O_16  and  P_17
REMARK    7  A    between atoms: P_17  and  O_19
REMARK    8  A    between atoms: P_17  and  O_20
REMARK    9  A    between atoms: O_20  and  P_21
REMARK   10  A    between atoms: P_21  and  O_23
REMARK   11  A    between atoms: P_21  and  O_24
REMARK   12  A    between atoms: O_24  and  P_25
REMARK   13  A    between atoms: P_25  and  O_27
REMARK   14  A    between atoms: P_25  and  O_28
REMARK   15  A    between atoms: C_29  and  O_30
REMARK                            x       y       z     vdW  Elec       q    Type
REMARK                         _______ _______ _______ _____ _____    ______ ____
ROOT
ATOM      1  C   UNL     1       2.868   2.692  20.196  0.00  0.00    +0.000 C 
ATOM      2  C   UNL     1       3.182   3.601  19.002  0.00  0.00    +0.000 C 
ATOM      3  C   UNL     1       4.538   4.330  19.216  0.00  0.00    +0.000 C 
ATOM      4  O   UNL     1       4.226   5.516  19.954  0.00  0.00    +0.000 OA
ATOM      5  C   UNL     1       2.868   5.908  19.651  0.00  0.00    +0.000 C 
ATOM      6  C   UNL     1       2.183   4.756  18.933  0.00  0.00    +0.000 C 
ENDROOT
BRANCH   3   7
ATOM      7  N   UNL     1       5.281   4.665  17.986  0.00  0.00    +0.000 N 
ATOM      8  C   UNL     1       4.718   4.526  16.736  0.00  0.00    +0.000 A 
ATOM      9  C   UNL     1       5.413   4.702  15.606  0.00  0.00    +0.000 A 
ATOM     10  C   UNL     1       6.827   5.065  15.710  0.00  0.00    +0.000 A 
ATOM     11  O   UNL     1       7.545   5.109  14.726  0.00  0.00    +0.000 OA
ATOM     12  N   UNL     1       7.263   5.361  16.970  0.00  0.00    +0.000 N 
ATOM     13  C   UNL     1       6.593   5.091  18.132  0.00  0.00    +0.000 A 
ATOM     14  O   UNL     1       7.164   5.158  19.223  0.00  0.00    +0.000 OA
ATOM     15  H   UNL     1       8.241   5.602  17.065  0.00  0.00    +0.000 HD
ENDBRANCH   3   7
BRANCH   2  16
ATOM     16  O   UNL     1       3.049   2.807  17.817  0.00  0.00    +0.000 OA
ATOM     17  H   UNL     1       3.915   2.409  17.625  0.00  0.00    +0.000 HD
ENDBRANCH   2  16
BRANCH   6  18
ATOM     18  O   UNL     1       1.969   5.131  17.563  0.00  0.00    +0.000 OA
ATOM     19  H   UNL     1       1.558   6.019  17.604  0.00  0.00    +0.000 HD
ENDBRANCH   6  18
BRANCH   5  20
ATOM     20  C   UNL     1       2.173   6.351  20.915  0.00  0.00    +0.000 C 
BRANCH  20  21
ATOM     21  O   UNL     1       0.931   6.938  20.529  0.00  0.00    +0.000 OA
BRANCH  21  22
ATOM     22  P   UNL     1       1.002   8.657  20.703  0.00  0.00    +0.000 P 
ATOM     23  O   UNL     1      -0.445   8.689  21.208  0.00  0.00    +0.000 OA
BRANCH  22  24
ATOM     24  O   UNL     1       1.885   8.316  22.026  0.00  0.00    +0.000 OA
ATOM     25  H   UNL     1       2.544   9.017  22.226  0.00  0.00    +0.000 HD
ENDBRANCH  22  24
BRANCH  22  26
ATOM     26  O   UNL     1       1.075  10.377  20.879  0.00  0.00    +0.000 OA
BRANCH  26  27
ATOM     27  P   UNL     1      -0.367  11.083  20.235  0.00  0.00    +0.000 P 
ATOM     28  O   UNL     1       0.388  12.391  19.923  0.00  0.00    +0.000 OA
BRANCH  27  29
ATOM     29  O   UNL     1      -0.083  10.358  18.782  0.00  0.00    +0.000 OA
ATOM     30  H   UNL     1      -0.216   9.399  18.960  0.00  0.00    +0.000 HD
ENDBRANCH  27  29
BRANCH  27  31
ATOM     31  O   UNL     1      -1.809  11.790  19.590  0.00  0.00    +0.000 OA
BRANCH  31  32
ATOM     32  P   UNL     1      -1.962  11.364  17.920  0.00  0.00    +0.000 P 
ATOM     33  O   UNL     1      -3.463  11.669  17.918  0.00  0.00    +0.000 OA
BRANCH  32  34
ATOM     34  O   UNL     1      -1.231  12.745  17.479  0.00  0.00    +0.000 OA
ATOM     35  H   UNL     1      -1.516  13.013  16.584  0.00  0.00    +0.000 HD
ENDBRANCH  32  34
BRANCH  32  36
ATOM     36  O   UNL     1      -2.114  10.937  16.251  0.00  0.00    +0.000 OA
ATOM     37  H   UNL     1      -2.620  10.101  16.243  0.00  0.00    +0.000 HD
ENDBRANCH  32  36
ENDBRANCH  31  32
ENDBRANCH  27  31
ENDBRANCH  26  27
ENDBRANCH  22  26
ENDBRANCH  21  22
ENDBRANCH  20  21
ENDBRANCH   5  20
TORSDOF 14
ENDMDL
