MODEL 1
REMARK VINA RESULT:      -7.0      0.000      0.000
REMARK  Name = 
REMARK  5 active torsions:
REMARK  status: ('A' for Active; 'I' for Inactive)
REMARK    1  A    between atoms: C_1  and  C_2
REMARK    2  A    between atoms: C_4  and  C_5
REMARK    3  A    between atoms: C_8  and  N_9
REMARK    4  A    between atoms: C_10  and  C_12
REMARK    5  A    between atoms: C_17  and  O_18
REMARK                            x       y       z     vdW  Elec       q    Type
REMARK                         _______ _______ _______ _____ _____    ______ ____
ROOT
ATOM      1  C   UNL     1       4.350   5.513  16.898  0.00  0.00    +0.000 A 
ATOM      2  C   UNL     1       5.015   6.299  15.955  0.00  0.00    +0.000 A 
ATOM      3  C   UNL     1       5.751   5.696  14.933  0.00  0.00    +0.000 A 
ATOM      4  C   UNL     1       5.820   4.313  14.846  0.00  0.00    +0.000 A 
ATOM      5  C   UNL     1       5.153   3.596  15.837  0.00  0.00    +0.000 A 
ATOM      6  N   UNL     1       4.426   4.152  16.843  0.00  0.00    +0.000 NA
ENDROOT
BRANCH   1  10
ATOM      7  C   UNL     1       1.754   9.321  18.402  0.00  0.00    +0.000 C 
ATOM      8  C   UNL     1       2.292   7.958  18.721  0.00  0.00    +0.000 A 
ATOM      9  N   UNL     1       3.031   7.369  17.746  0.00  0.00    +0.000 NA
ATOM     10  C   UNL     1       3.543   6.137  17.983  0.00  0.00    +0.000 A 
ATOM     11  N   UNL     1       3.360   5.463  19.132  0.00  0.00    +0.000 NA
ATOM     12  C   UNL     1       2.624   6.091  20.063  0.00  0.00    +0.000 A 
ATOM     13  C   UNL     1       2.056   7.340  19.935  0.00  0.00    +0.000 A 
ATOM     14 CL   UNL     1       1.131   8.064  21.189  0.00  0.00    +0.000 Cl
BRANCH  12  15
ATOM     15  O   UNL     1       2.479   5.354  21.198  0.00  0.00    +0.000 OA
ATOM     16  H   UNL     1       2.205   4.497  20.820  0.00  0.00    +0.000 HD
ENDBRANCH  12  15
ENDBRANCH   1  10
BRANCH   4  17
ATOM     17  N   UNL     1       6.529   3.628  13.835  0.00  0.00    +0.000 N 
ATOM     18  C   UNL     1       6.064   3.315  12.569  0.00  0.00    +0.000 C 
ATOM     19  O   UNL     1       4.924   3.539  12.161  0.00  0.00    +0.000 OA
ATOM     20  H   UNL     1       7.447   3.264  14.075  0.00  0.00    +0.000 HD
BRANCH  18  21
ATOM     21  C   UNL     1       7.045   2.611  11.645  0.00  0.00    +0.000 C 
ATOM     22 CL   UNL     1       6.429   1.075  11.001  0.00  0.00    +0.000 Cl
ENDBRANCH  18  21
ENDBRANCH   4  17
TORSDOF 4
ENDMDL
MODEL 2
REMARK VINA RESULT:      -6.8      4.659      7.883
REMARK  Name = 
REMARK  5 active torsions:
REMARK  status: ('A' for Active; 'I' for Inactive)
REMARK    1  A    between atoms: C_1  and  C_2
REMARK    2  A    between atoms: C_4  and  C_5
REMARK    3  A    between atoms: C_8  and  N_9
REMARK    4  A    between atoms: C_10  and  C_12
REMARK    5  A    between atoms: C_17  and  O_18
REMARK                            x       y       z     vdW  Elec       q    Type
REMARK                         _______ _______ _______ _____ _____    ______ ____
ROOT
ATOM      1  C   UNL     1       2.413   7.036  19.236  0.00  0.00    +0.000 A 
ATOM      2  C   UNL     1       2.485   7.611  17.966  0.00  0.00    +0.000 A 
ATOM      3  C   UNL     1       1.942   8.877  17.737  0.00  0.00    +0.000 A 
ATOM      4  C   UNL     1       1.332   9.571  18.772  0.00  0.00    +0.000 A 
ATOM      5  C   UNL     1       1.274   8.922  20.004  0.00  0.00    +0.000 A 
ATOM      6  N   UNL     1       1.796   7.693  20.260  0.00  0.00    +0.000 NA
ENDROOT
BRANCH   1  10
ATOM      7  C   UNL     1       2.011   2.753  21.471  0.00  0.00    +0.000 C 
ATOM      8  C   UNL     1       2.827   3.633  20.572  0.00  0.00    +0.000 A 
ATOM      9  N   UNL     1       2.307   4.860  20.311  0.00  0.00    +0.000 NA
ATOM     10  C   UNL     1       3.005   5.696  19.505  0.00  0.00    +0.000 A 
ATOM     11  N   UNL     1       4.186   5.379  18.948  0.00  0.00    +0.000 NA
ATOM     12  C   UNL     1       4.656   4.156  19.239  0.00  0.00    +0.000 A 
ATOM     13  C   UNL     1       4.037   3.224  20.044  0.00  0.00    +0.000 A 
ATOM     14 CL   UNL     1       4.723   1.681  20.362  0.00  0.00    +0.000 Cl
BRANCH  12  15
ATOM     15  O   UNL     1       5.853   3.901  18.643  0.00  0.00    +0.000 OA
ATOM     16  H   UNL     1       6.350   4.703  18.890  0.00  0.00    +0.000 HD
ENDBRANCH  12  15
ENDBRANCH   1  10
BRANCH   4  17
ATOM     17  N   UNL     1       0.773  10.859  18.626  0.00  0.00    +0.000 N 
ATOM     18  C   UNL     1      -0.569  11.163  18.473  0.00  0.00    +0.000 C 
ATOM     19  O   UNL     1      -1.474  10.333  18.378  0.00  0.00    +0.000 OA
ATOM     20  H   UNL     1       1.417  11.641  18.555  0.00  0.00    +0.000 HD
BRANCH  18  21
ATOM     21  C   UNL     1      -0.921  12.639  18.382  0.00  0.00    +0.000 C 
ATOM     22 CL   UNL     1       0.487  13.711  18.539  0.00  0.00    +0.000 Cl
ENDBRANCH  18  21
ENDBRANCH   4  17
TORSDOF 4
ENDMDL
MODEL 3
REMARK VINA RESULT:      -6.8      3.424      8.749
REMARK  Name = 
REMARK  5 active torsions:
REMARK  status: ('A' for Active; 'I' for Inactive)
REMARK    1  A    between atoms: C_1  and  C_2
REMARK    2  A    between atoms: C_4  and  C_5
REMARK    3  A    between atoms: C_8  and  N_9
REMARK    4  A    between atoms: C_10  and  C_12
REMARK    5  A    between atoms: C_17  and  O_18
REMARK                            x       y       z     vdW  Elec       q    Type
REMARK                         _______ _______ _______ _____ _____    ______ ____
ROOT
ATOM      1  C   UNL     1       2.380   7.670  18.580  0.00  0.00    +0.000 A 
ATOM      2  C   UNL     1       1.837   8.753  17.887  0.00  0.00    +0.000 A 
ATOM      3  C   UNL     1       1.030   9.679  18.552  0.00  0.00    +0.000 A 
ATOM      4  C   UNL     1       0.770   9.529  19.907  0.00  0.00    +0.000 A 
ATOM      5  C   UNL     1       1.324   8.410  20.525  0.00  0.00    +0.000 A 
ATOM      6  N   UNL     1       2.116   7.493  19.907  0.00  0.00    +0.000 NA
ENDROOT
BRANCH   1  10
ATOM      7  C   UNL     1       3.282   3.027  17.516  0.00  0.00    +0.000 C 
ATOM      8  C   UNL     1       3.708   4.458  17.372  0.00  0.00    +0.000 A 
ATOM      9  N   UNL     1       2.920   5.376  17.990  0.00  0.00    +0.000 NA
ATOM     10  C   UNL     1       3.260   6.684  17.893  0.00  0.00    +0.000 A 
ATOM     11  N   UNL     1       4.336   7.126  17.219  0.00  0.00    +0.000 NA
ATOM     12  C   UNL     1       5.081   6.178  16.628  0.00  0.00    +0.000 A 
ATOM     13  C   UNL     1       4.835   4.822  16.660  0.00  0.00    +0.000 A 
ATOM     14 CL   UNL     1       5.853   3.683  15.874  0.00  0.00    +0.000 Cl
BRANCH  12  15
ATOM     15  O   UNL     1       6.151   6.693  15.965  0.00  0.00    +0.000 OA
ATOM     16  H   UNL     1       5.702   7.153  15.231  0.00  0.00    +0.000 HD
ENDBRANCH  12  15
ENDBRANCH   1  10
BRANCH   4  17
ATOM     17  N   UNL     1      -0.022  10.428  20.654  0.00  0.00    +0.000 N 
ATOM     18  C   UNL     1       0.394  11.627  21.210  0.00  0.00    +0.000 C 
ATOM     19  O   UNL     1       1.548  12.054  21.184  0.00  0.00    +0.000 OA
ATOM     20  H   UNL     1      -0.973  10.143  20.870  0.00  0.00    +0.000 HD
BRANCH  18  21
ATOM     21  C   UNL     1      -0.669  12.440  21.932  0.00  0.00    +0.000 C 
ATOM     22 CL   UNL     1      -1.577  11.503  23.138  0.00  0.00    +0.000 Cl
ENDBRANCH  18  21
ENDBRANCH   4  17
TORSDOF 4
ENDMDL
MODEL 4
REMARK VINA RESULT:      -6.8      0.623      1.076
REMARK  Name = 
REMARK  5 active torsions:
REMARK  status: ('A' for Active; 'I' for Inactive)
REMARK    1  A    between atoms: C_1  and  C_2
REMARK    2  A    between atoms: C_4  and  C_5
REMARK    3  A    between atoms: C_8  and  N_9
REMARK    4  A    between atoms: C_10  and  C_12
REMARK    5  A    between atoms: C_17  and  O_18
REMARK                            x       y       z     vdW  Elec       q    Type
REMARK                         _______ _______ _______ _____ _____    ______ ____
ROOT
ATOM      1  C   UNL     1       4.248   5.472  16.948  0.00  0.00    +0.000 A 
ATOM      2  C   UNL     1       4.338   4.080  16.888  0.00  0.00    +0.000 A 
ATOM      3  C   UNL     1       5.087   3.469  15.880  0.00  0.00    +0.000 A 
ATOM      4  C   UNL     1       5.750   4.242  14.938  0.00  0.00    +0.000 A 
ATOM      5  C   UNL     1       5.592   5.623  15.046  0.00  0.00    +0.000 A 
ATOM      6  N   UNL     1       4.872   6.248  16.016  0.00  0.00    +0.000 NA
ENDROOT
BRANCH   1  10
ATOM      7  C   UNL     1       1.757   9.376  18.381  0.00  0.00    +0.000 C 
ATOM      8  C   UNL     1       2.271   8.012  18.731  0.00  0.00    +0.000 A 
ATOM      9  N   UNL     1       2.982   7.379  17.763  0.00  0.00    +0.000 NA
ATOM     10  C   UNL     1       3.471   6.143  18.026  0.00  0.00    +0.000 A 
ATOM     11  N   UNL     1       3.292   5.507  19.197  0.00  0.00    +0.000 NA
ATOM     12  C   UNL     1       2.583   6.176  20.120  0.00  0.00    +0.000 A 
ATOM     13  C   UNL     1       2.040   7.434  19.965  0.00  0.00    +0.000 A 
ATOM     14 CL   UNL     1       1.151   8.212  21.212  0.00  0.00    +0.000 Cl
BRANCH  12  15
ATOM     15  O   UNL     1       2.441   5.475  21.278  0.00  0.00    +0.000 OA
ATOM     16  H   UNL     1       3.371   5.412  21.564  0.00  0.00    +0.000 HD
ENDBRANCH  12  15
ENDBRANCH   1  10
BRANCH   4  17
ATOM     17  N   UNL     1       6.539   3.702  13.899  0.00  0.00    +0.000 N 
ATOM     18  C   UNL     1       6.120   3.410  12.612  0.00  0.00    +0.000 C 
ATOM     19  O   UNL     1       4.964   3.525  12.203  0.00  0.00    +0.000 OA
ATOM     20  H   UNL     1       7.491   3.432  14.129  0.00  0.00    +0.000 HD
BRANCH  18  21
ATOM     21  C   UNL     1       7.180   2.877  11.662  0.00  0.00    +0.000 C 
ATOM     22 CL   UNL     1       6.786   1.282  10.987  0.00  0.00    +0.000 Cl
ENDBRANCH  18  21
ENDBRANCH   4  17
TORSDOF 4
ENDMDL
MODEL 5
REMARK VINA RESULT:      -6.7      4.633      7.947
REMARK  Name = 
REMARK  5 active torsions:
REMARK  status: ('A' for Active; 'I' for Inactive)
REMARK    1  A    between atoms: C_1  and  C_2
REMARK    2  A    between atoms: C_4  and  C_5
REMARK    3  A    between atoms: C_8  and  N_9
REMARK    4  A    between atoms: C_10  and  C_12
REMARK    5  A    between atoms: C_17  and  O_18
REMARK                            x       y       z     vdW  Elec       q    Type
REMARK                         _______ _______ _______ _____ _____    ______ ____
ROOT
ATOM      1  C   UNL     1       2.370   7.045  19.336  0.00  0.00    +0.000 A 
ATOM      2  C   UNL     1       1.744   7.731  20.379  0.00  0.00    +0.000 A 
ATOM      3  C   UNL     1       1.172   8.984  20.151  0.00  0.00    +0.000 A 
ATOM      4  C   UNL     1       1.218   9.551  18.886  0.00  0.00    +0.000 A 
ATOM      5  C   UNL     1       1.881   8.821  17.902  0.00  0.00    +0.000 A 
ATOM      6  N   UNL     1       2.446   7.598  18.091  0.00  0.00    +0.000 NA
ENDROOT
BRANCH   1  10
ATOM      7  C   UNL     1       1.993   2.682  21.416  0.00  0.00    +0.000 C 
ATOM      8  C   UNL     1       2.802   3.597  20.545  0.00  0.00    +0.000 A 
ATOM      9  N   UNL     1       2.277   4.831  20.332  0.00  0.00    +0.000 NA
ATOM     10  C   UNL     1       2.967   5.699  19.553  0.00  0.00    +0.000 A 
ATOM     11  N   UNL     1       4.147   5.406  18.979  0.00  0.00    +0.000 NA
ATOM     12  C   UNL     1       4.623   4.175  19.223  0.00  0.00    +0.000 A 
ATOM     13  C   UNL     1       4.011   3.212  19.997  0.00  0.00    +0.000 A 
ATOM     14 CL   UNL     1       4.704   1.661  20.255  0.00  0.00    +0.000 Cl
BRANCH  12  15
ATOM     15  O   UNL     1       5.817   3.946  18.612  0.00  0.00    +0.000 OA
ATOM     16  H   UNL     1       5.554   4.010  17.675  0.00  0.00    +0.000 HD
ENDBRANCH  12  15
ENDBRANCH   1  10
BRANCH   4  17
ATOM     17  N   UNL     1       0.650  10.805  18.571  0.00  0.00    +0.000 N 
ATOM     18  C   UNL     1      -0.699  11.095  18.460  0.00  0.00    +0.000 C 
ATOM     19  O   UNL     1      -1.608  10.271  18.560  0.00  0.00    +0.000 OA
ATOM     20  H   UNL     1       1.289  11.559  18.333  0.00  0.00    +0.000 HD
BRANCH  18  21
ATOM     21  C   UNL     1      -1.056  12.541  18.157  0.00  0.00    +0.000 C 
ATOM     22 CL   UNL     1       0.262  13.681  18.504  0.00  0.00    +0.000 Cl
ENDBRANCH  18  21
ENDBRANCH   4  17
TORSDOF 4
ENDMDL
MODEL 6
REMARK VINA RESULT:      -6.6      1.099      1.884
REMARK  Name = 
REMARK  5 active torsions:
REMARK  status: ('A' for Active; 'I' for Inactive)
REMARK    1  A    between atoms: C_1  and  C_2
REMARK    2  A    between atoms: C_4  and  C_5
REMARK    3  A    between atoms: C_8  and  N_9
REMARK    4  A    between atoms: C_10  and  C_12
REMARK    5  A    between atoms: C_17  and  O_18
REMARK                            x       y       z     vdW  Elec       q    Type
REMARK                         _______ _______ _______ _____ _____    ______ ____
ROOT
ATOM      1  C   UNL     1       4.352   5.381  16.822  0.00  0.00    +0.000 A 
ATOM      2  C   UNL     1       5.050   6.187  15.920  0.00  0.00    +0.000 A 
ATOM      3  C   UNL     1       5.790   5.606  14.888  0.00  0.00    +0.000 A 
ATOM      4  C   UNL     1       5.831   4.226  14.751  0.00  0.00    +0.000 A 
ATOM      5  C   UNL     1       5.132   3.487  15.703  0.00  0.00    +0.000 A 
ATOM      6  N   UNL     1       4.400   4.022  16.718  0.00  0.00    +0.000 NA
ENDROOT
BRANCH   1  10
ATOM      7  C   UNL     1       2.213   4.794  21.132  0.00  0.00    +0.000 C 
ATOM      8  C   UNL     1       2.507   5.717  19.988  0.00  0.00    +0.000 A 
ATOM      9  N   UNL     1       3.247   5.192  18.977  0.00  0.00    +0.000 NA
ATOM     10  C   UNL     1       3.541   5.982  17.916  0.00  0.00    +0.000 A 
ATOM     11  N   UNL     1       3.141   7.261  17.808  0.00  0.00    +0.000 NA
ATOM     12  C   UNL     1       2.412   7.731  18.833  0.00  0.00    +0.000 A 
ATOM     13  C   UNL     1       2.051   7.021  19.958  0.00  0.00    +0.000 A 
ATOM     14 CL   UNL     1       1.108   7.711  21.218  0.00  0.00    +0.000 Cl
BRANCH  12  15
ATOM     15  O   UNL     1       2.041   9.028  18.658  0.00  0.00    +0.000 OA
ATOM     16  H   UNL     1       1.149   9.014  19.053  0.00  0.00    +0.000 HD
ENDBRANCH  12  15
ENDBRANCH   1  10
BRANCH   4  17
ATOM     17  N   UNL     1       6.542   3.563  13.727  0.00  0.00    +0.000 N 
ATOM     18  C   UNL     1       6.081   3.283  12.451  0.00  0.00    +0.000 C 
ATOM     19  O   UNL     1       4.944   3.522  12.043  0.00  0.00    +0.000 OA
ATOM     20  H   UNL     1       7.457   3.189  13.962  0.00  0.00    +0.000 HD
BRANCH  18  21
ATOM     21  C   UNL     1       7.063   2.598  11.514  0.00  0.00    +0.000 C 
ATOM     22 CL   UNL     1       6.523   0.994  10.975  0.00  0.00    +0.000 Cl
ENDBRANCH  18  21
ENDBRANCH   4  17
TORSDOF 4
ENDMDL
MODEL 7
REMARK VINA RESULT:      -6.6      4.970      6.485
REMARK  Name = 
REMARK  5 active torsions:
REMARK  status: ('A' for Active; 'I' for Inactive)
REMARK    1  A    between atoms: C_1  and  C_2
REMARK    2  A    between atoms: C_4  and  C_5
REMARK    3  A    between atoms: C_8  and  N_9
REMARK    4  A    between atoms: C_10  and  C_12
REMARK    5  A    between atoms: C_17  and  O_18
REMARK                            x       y       z     vdW  Elec       q    Type
REMARK                         _______ _______ _______ _____ _____    ______ ____
ROOT
ATOM      1  C   UNL     1       6.012   5.993  18.274  0.00  0.00    +0.000 A 
ATOM      2  C   UNL     1       7.291   5.963  18.834  0.00  0.00    +0.000 A 
ATOM      3  C   UNL     1       8.178   7.019  18.612  0.00  0.00    +0.000 A 
ATOM      4  C   UNL     1       7.791   8.104  17.839  0.00  0.00    +0.000 A 
ATOM      5  C   UNL     1       6.511   8.051  17.292  0.00  0.00    +0.000 A 
ATOM      6  N   UNL     1       5.623   7.040  17.491  0.00  0.00    +0.000 NA
ENDROOT
BRANCH   1  10
ATOM      7  C   UNL     1       1.521   4.273  17.664  0.00  0.00    +0.000 C 
ATOM      8  C   UNL     1       2.890   4.046  18.232  0.00  0.00    +0.000 A 
ATOM      9  N   UNL     1       3.792   5.041  18.023  0.00  0.00    +0.000 NA
ATOM     10  C   UNL     1       5.044   4.888  18.515  0.00  0.00    +0.000 A 
ATOM     11  N   UNL     1       5.447   3.803  19.201  0.00  0.00    +0.000 NA
ATOM     12  C   UNL     1       4.518   2.851  19.380  0.00  0.00    +0.000 A 
ATOM     13  C   UNL     1       3.217   2.898  18.928  0.00  0.00    +0.000 A 
ATOM     14 CL   UNL     1       2.097   1.626  19.213  0.00  0.00    +0.000 Cl
BRANCH  12  15
ATOM     15  O   UNL     1       4.992   1.785  20.080  0.00  0.00    +0.000 OA
ATOM     16  H   UNL     1       5.905   1.738  19.738  0.00  0.00    +0.000 HD
ENDBRANCH  12  15
ENDBRANCH   1  10
BRANCH   4  17
ATOM     17  N   UNL     1       8.623   9.215  17.581  0.00  0.00    +0.000 N 
ATOM     18  C   UNL     1       9.153  10.084  18.521  0.00  0.00    +0.000 C 
ATOM     19  O   UNL     1       8.919  10.045  19.729  0.00  0.00    +0.000 OA
ATOM     20  H   UNL     1       8.798   9.450  16.608  0.00  0.00    +0.000 HD
BRANCH  18  21
ATOM     21  C   UNL     1      10.063  11.180  17.988  0.00  0.00    +0.000 C 
ATOM     22 CL   UNL     1      11.449  11.521  19.044  0.00  0.00    +0.000 Cl
ENDBRANCH  18  21
ENDBRANCH   4  17
TORSDOF 4
ENDMDL
MODEL 8
REMARK VINA RESULT:      -6.6      3.424      4.874
REMARK  Name = 
REMARK  5 active torsions:
REMARK  status: ('A' for Active; 'I' for Inactive)
REMARK    1  A    between atoms: C_1  and  C_2
REMARK    2  A    between atoms: C_4  and  C_5
REMARK    3  A    between atoms: C_8  and  N_9
REMARK    4  A    between atoms: C_10  and  C_12
REMARK    5  A    between atoms: C_17  and  O_18
REMARK                            x       y       z     vdW  Elec       q    Type
REMARK                         _______ _______ _______ _____ _____    ______ ____
ROOT
ATOM      1  C   UNL     1       1.777   8.160  19.660  0.00  0.00    +0.000 A 
ATOM      2  C   UNL     1       2.174   8.556  18.381  0.00  0.00    +0.000 A 
ATOM      3  C   UNL     1       2.928   7.694  17.582  0.00  0.00    +0.000 A 
ATOM      4  C   UNL     1       3.282   6.438  18.054  0.00  0.00    +0.000 A 
ATOM      5  C   UNL     1       2.874   6.123  19.348  0.00  0.00    +0.000 A 
ATOM      6  N   UNL     1       2.137   6.938  20.150  0.00  0.00    +0.000 NA
ENDROOT
BRANCH   1  10
ATOM      7  C   UNL     1      -1.456  11.764  19.909  0.00  0.00    +0.000 C 
ATOM      8  C   UNL     1      -0.598  10.787  20.657  0.00  0.00    +0.000 A 
ATOM      9  N   UNL     1       0.161   9.958  19.895  0.00  0.00    +0.000 NA
ATOM     10  C   UNL     1       0.955   9.056  20.519  0.00  0.00    +0.000 A 
ATOM     11  N   UNL     1       1.036   8.935  21.856  0.00  0.00    +0.000 NA
ATOM     12  C   UNL     1       0.267   9.779  22.563  0.00  0.00    +0.000 A 
ATOM     13  C   UNL     1      -0.577  10.735  22.038  0.00  0.00    +0.000 A 
ATOM     14 CL   UNL     1      -1.520  11.774  23.029  0.00  0.00    +0.000 Cl
BRANCH  12  15
ATOM     15  O   UNL     1       0.397   9.602  23.906  0.00  0.00    +0.000 OA
ATOM     16  H   UNL     1       0.750  10.472  24.167  0.00  0.00    +0.000 HD
ENDBRANCH  12  15
ENDBRANCH   1  10
BRANCH   4  17
ATOM     17  N   UNL     1       4.029   5.504  17.303  0.00  0.00    +0.000 N 
ATOM     18  C   UNL     1       5.409   5.432  17.215  0.00  0.00    +0.000 C 
ATOM     19  O   UNL     1       6.192   6.224  17.739  0.00  0.00    +0.000 OA
ATOM     20  H   UNL     1       3.511   4.862  16.710  0.00  0.00    +0.000 HD
BRANCH  18  21
ATOM     21  C   UNL     1       5.973   4.298  16.373  0.00  0.00    +0.000 C 
ATOM     22 CL   UNL     1       5.493   4.382  14.664  0.00  0.00    +0.000 Cl
ENDBRANCH  18  21
ENDBRANCH   4  17
TORSDOF 4
ENDMDL
MODEL 9
REMARK VINA RESULT:      -6.5      3.427      8.851
REMARK  Name = 
REMARK  5 active torsions:
REMARK  status: ('A' for Active; 'I' for Inactive)
REMARK    1  A    between atoms: C_1  and  C_2
REMARK    2  A    between atoms: C_4  and  C_5
REMARK    3  A    between atoms: C_8  and  N_9
REMARK    4  A    between atoms: C_10  and  C_12
REMARK    5  A    between atoms: C_17  and  O_18
REMARK                            x       y       z     vdW  Elec       q    Type
REMARK                         _______ _______ _______ _____ _____    ______ ____
ROOT
ATOM      1  C   UNL     1       2.368   7.664  18.739  0.00  0.00    +0.000 A 
ATOM      2  C   UNL     1       2.041   7.462  20.082  0.00  0.00    +0.000 A 
ATOM      3  C   UNL     1       1.230   8.380  20.752  0.00  0.00    +0.000 A 
ATOM      4  C   UNL     1       0.738   9.493  20.084  0.00  0.00    +0.000 A 
ATOM      5  C   UNL     1       1.128   9.641  18.755  0.00  0.00    +0.000 A 
ATOM      6  N   UNL     1       1.914   8.765  18.073  0.00  0.00    +0.000 NA
ENDROOT
BRANCH   1  10
ATOM      7  C   UNL     1       3.152   3.047  17.487  0.00  0.00    +0.000 C 
ATOM      8  C   UNL     1       3.607   4.472  17.391  0.00  0.00    +0.000 A 
ATOM      9  N   UNL     1       2.849   5.383  18.055  0.00  0.00    +0.000 NA
ATOM     10  C   UNL     1       3.215   6.686  18.002  0.00  0.00    +0.000 A 
ATOM     11  N   UNL     1       4.290   7.130  17.328  0.00  0.00    +0.000 NA
ATOM     12  C   UNL     1       5.006   6.190  16.690  0.00  0.00    +0.000 A 
ATOM     13  C   UNL     1       4.730   4.839  16.674  0.00  0.00    +0.000 A 
ATOM     14 CL   UNL     1       5.712   3.709  15.830  0.00  0.00    +0.000 Cl
BRANCH  12  15
ATOM     15  O   UNL     1       6.077   6.708  16.029  0.00  0.00    +0.000 OA
ATOM     16  H   UNL     1       6.397   5.915  15.560  0.00  0.00    +0.000 HD
ENDBRANCH  12  15
ENDBRANCH   1  10
BRANCH   4  17
ATOM     17  N   UNL     1      -0.100  10.457  20.685  0.00  0.00    +0.000 N 
ATOM     18  C   UNL     1       0.295  11.666  21.234  0.00  0.00    +0.000 C 
ATOM     19  O   UNL     1       1.461  12.048  21.334  0.00  0.00    +0.000 OA
ATOM     20  H   UNL     1      -1.082  10.219  20.793  0.00  0.00    +0.000 HD
BRANCH  18  21
ATOM     21  C   UNL     1      -0.813  12.553  21.780  0.00  0.00    +0.000 C 
ATOM     22 CL   UNL     1      -1.742  11.795  23.090  0.00  0.00    +0.000 Cl
ENDBRANCH  18  21
ENDBRANCH   4  17
TORSDOF 4
ENDMDL
