MODEL 1
REMARK VINA RESULT:      -7.6      0.000      0.000
REMARK  Name = 
REMARK  6 active torsions:
REMARK  status: ('A' for Active; 'I' for Inactive)
REMARK    1  A    between atoms: C_1  and  N_2
REMARK    2  A    between atoms: N_2  and  C_15
REMARK    3  A    between atoms: C_3  and  C_5
REMARK    4  A    between atoms: C_5  and  O_6
REMARK    5  A    between atoms: O_6  and  C_7
REMARK    6  A    between atoms: C_20  and  N_21
REMARK                            x       y       z     vdW  Elec       q    Type
REMARK                         _______ _______ _______ _____ _____    ______ ____
ROOT
ATOM      1  C   UNL     1       2.154   5.132  20.804  0.00  0.00    +0.000 C 
ATOM      2  N   UNL     1       2.440   6.206  19.843  0.00  0.00    +0.000 N 
ATOM      3  C   UNL     1       1.863   7.444  20.078  0.00  0.00    +0.000 C 
ATOM      4  O   UNL     1       1.229   7.639  21.106  0.00  0.00    +0.000 OA
ENDROOT
BRANCH   2   5
ATOM      5  C   UNL     1       3.302   5.974  18.647  0.00  0.00    +0.000 C 
ATOM      6  C   UNL     1       2.683   5.094  17.515  0.00  0.00    +0.000 C 
ATOM      7  C   UNL     1       2.559   3.595  17.854  0.00  0.00    +0.000 C 
ATOM      8  C   UNL     1       3.876   3.030  18.399  0.00  0.00    +0.000 C 
ATOM      9  C   UNL     1       4.458   3.900  19.531  0.00  0.00    +0.000 C 
ATOM     10  C   UNL     1       4.709   5.362  19.045  0.00  0.00    +0.000 C 
BRANCH  10  11
ATOM     11  N   UNL     1       5.693   5.394  17.904  0.00  0.00    +0.000 NA
ATOM     12  C   UNL     1       7.069   5.003  18.299  0.00  0.00    +0.000 C 
ATOM     13  C   UNL     1       7.797   6.296  18.602  0.00  0.00    +0.000 C 
ATOM     14  C   UNL     1       7.366   7.101  17.410  0.00  0.00    +0.000 C 
ATOM     15  C   UNL     1       5.879   6.765  17.344  0.00  0.00    +0.000 C 
ENDBRANCH  10  11
ENDBRANCH   2   5
BRANCH   3  16
ATOM     16  C   UNL     1       1.900   8.603  19.110  0.00  0.00    +0.000 C 
BRANCH  16  17
ATOM     17  O   UNL     1       1.118   9.632  19.606  0.00  0.00    +0.000 OA
BRANCH  17  18
ATOM     18  C   UNL     1      -0.042  10.078  19.066  0.00  0.00    +0.000 A 
ATOM     19  C   UNL     1      -0.532   9.625  17.820  0.00  0.00    +0.000 A 
ATOM     20  C   UNL     1      -1.735  10.119  17.307  0.00  0.00    +0.000 A 
ATOM     21  C   UNL     1      -2.469  11.072  18.018  0.00  0.00    +0.000 A 
ATOM     22 CL   UNL     1      -3.978  11.668  17.341  0.00  0.00    +0.000 Cl
ATOM     23  C   UNL     1      -1.989  11.537  19.255  0.00  0.00    +0.000 A 
ATOM     24 CL   UNL     1      -2.875  12.746  20.177  0.00  0.00    +0.000 Cl
ATOM     25  C   UNL     1      -0.785  11.039  19.770  0.00  0.00    +0.000 A 
ENDBRANCH  17  18
ENDBRANCH  16  17
ENDBRANCH   3  16
TORSDOF 5
ENDMDL
MODEL 2
REMARK VINA RESULT:      -7.5      1.939      4.067
REMARK  Name = 
REMARK  6 active torsions:
REMARK  status: ('A' for Active; 'I' for Inactive)
REMARK    1  A    between atoms: C_1  and  N_2
REMARK    2  A    between atoms: N_2  and  C_15
REMARK    3  A    between atoms: C_3  and  C_5
REMARK    4  A    between atoms: C_5  and  O_6
REMARK    5  A    between atoms: O_6  and  C_7
REMARK    6  A    between atoms: C_20  and  N_21
REMARK                            x       y       z     vdW  Elec       q    Type
REMARK                         _______ _______ _______ _____ _____    ______ ____
ROOT
ATOM      1  C   UNL     1       4.624   7.050  16.589  0.00  0.00    +0.000 C 
ATOM      2  N   UNL     1       3.787   6.914  17.788  0.00  0.00    +0.000 N 
ATOM      3  C   UNL     1       2.822   7.884  18.007  0.00  0.00    +0.000 C 
ATOM      4  O   UNL     1       2.625   8.753  17.168  0.00  0.00    +0.000 OA
ENDROOT
BRANCH   2   5
ATOM      5  C   UNL     1       3.976   5.787  18.749  0.00  0.00    +0.000 C 
ATOM      6  C   UNL     1       5.440   5.269  18.919  0.00  0.00    +0.000 C 
ATOM      7  C   UNL     1       5.993   4.481  17.715  0.00  0.00    +0.000 C 
ATOM      8  C   UNL     1       5.018   3.386  17.263  0.00  0.00    +0.000 C 
ATOM      9  C   UNL     1       3.585   3.924  17.077  0.00  0.00    +0.000 C 
ATOM     10  C   UNL     1       3.044   4.553  18.400  0.00  0.00    +0.000 C 
BRANCH  10  11
ATOM     11  N   UNL     1       3.001   3.534  19.509  0.00  0.00    +0.000 NA
ATOM     12  C   UNL     1       2.108   2.384  19.221  0.00  0.00    +0.000 C 
ATOM     13  C   UNL     1       0.776   2.726  19.854  0.00  0.00    +0.000 C 
ATOM     14  C   UNL     1       1.261   3.214  21.189  0.00  0.00    +0.000 C 
ATOM     15  C   UNL     1       2.442   4.088  20.777  0.00  0.00    +0.000 C 
ENDBRANCH  10  11
ENDBRANCH   2   5
BRANCH   3  16
ATOM     16  C   UNL     1       1.999   8.005  19.269  0.00  0.00    +0.000 C 
BRANCH  16  17
ATOM     17  O   UNL     1       1.115   9.060  19.133  0.00  0.00    +0.000 OA
BRANCH  17  18
ATOM     18  C   UNL     1       0.449   9.672  20.143  0.00  0.00    +0.000 A 
ATOM     19  C   UNL     1       0.474   9.198  21.475  0.00  0.00    +0.000 A 
ATOM     20  C   UNL     1      -0.232   9.868  22.479  0.00  0.00    +0.000 A 
ATOM     21  C   UNL     1      -0.976  11.012  22.180  0.00  0.00    +0.000 A 
ATOM     22 CL   UNL     1      -1.849  11.826  23.470  0.00  0.00    +0.000 Cl
ATOM     23  C   UNL     1      -1.015  11.488  20.858  0.00  0.00    +0.000 A 
ATOM     24 CL   UNL     1      -1.949  12.918  20.435  0.00  0.00    +0.000 Cl
ATOM     25  C   UNL     1      -0.304  10.820  19.853  0.00  0.00    +0.000 A 
ENDBRANCH  17  18
ENDBRANCH  16  17
ENDBRANCH   3  16
TORSDOF 5
ENDMDL
MODEL 3
REMARK VINA RESULT:      -7.5      0.628      1.444
REMARK  Name = 
REMARK  6 active torsions:
REMARK  status: ('A' for Active; 'I' for Inactive)
REMARK    1  A    between atoms: C_1  and  N_2
REMARK    2  A    between atoms: N_2  and  C_15
REMARK    3  A    between atoms: C_3  and  C_5
REMARK    4  A    between atoms: C_5  and  O_6
REMARK    5  A    between atoms: O_6  and  C_7
REMARK    6  A    between atoms: C_20  and  N_21
REMARK                            x       y       z     vdW  Elec       q    Type
REMARK                         _______ _______ _______ _____ _____    ______ ____
ROOT
ATOM      1  C   UNL     1       2.177   5.367  20.863  0.00  0.00    +0.000 C 
ATOM      2  N   UNL     1       2.401   6.387  19.830  0.00  0.00    +0.000 N 
ATOM      3  C   UNL     1       1.797   7.622  20.009  0.00  0.00    +0.000 C 
ATOM      4  O   UNL     1       1.191   7.863  21.045  0.00  0.00    +0.000 OA
ENDROOT
BRANCH   2   5
ATOM      5  C   UNL     1       3.231   6.105  18.621  0.00  0.00    +0.000 C 
ATOM      6  C   UNL     1       2.552   5.244  17.510  0.00  0.00    +0.000 C 
ATOM      7  C   UNL     1       2.366   3.756  17.865  0.00  0.00    +0.000 C 
ATOM      8  C   UNL     1       3.667   3.137  18.393  0.00  0.00    +0.000 C 
ATOM      9  C   UNL     1       4.307   3.990  19.506  0.00  0.00    +0.000 C 
ATOM     10  C   UNL     1       4.615   5.434  19.001  0.00  0.00    +0.000 C 
BRANCH  10  11
ATOM     11  N   UNL     1       5.580   5.411  17.843  0.00  0.00    +0.000 NA
ATOM     12  C   UNL     1       6.938   4.945  18.215  0.00  0.00    +0.000 C 
ATOM     13  C   UNL     1       7.742   6.195  18.503  0.00  0.00    +0.000 C 
ATOM     14  C   UNL     1       7.335   7.022  17.317  0.00  0.00    +0.000 C 
ATOM     15  C   UNL     1       5.830   6.769  17.277  0.00  0.00    +0.000 C 
ENDBRANCH  10  11
ENDBRANCH   2   5
BRANCH   3  16
ATOM     16  C   UNL     1       1.769   8.720  18.972  0.00  0.00    +0.000 C 
BRANCH  16  17
ATOM     17  O   UNL     1       1.125   9.825  19.500  0.00  0.00    +0.000 OA
BRANCH  17  18
ATOM     18  C   UNL     1      -0.084  10.300  19.110  0.00  0.00    +0.000 A 
ATOM     19  C   UNL     1      -0.830  11.220  19.882  0.00  0.00    +0.000 A 
ATOM     20  C   UNL     1      -2.073  11.678  19.434  0.00  0.00    +0.000 A 
ATOM     21  C   UNL     1      -2.598  11.228  18.219  0.00  0.00    +0.000 A 
ATOM     22 CL   UNL     1      -4.163  11.828  17.690  0.00  0.00    +0.000 Cl
ATOM     23  C   UNL     1      -1.869  10.307  17.447  0.00  0.00    +0.000 A 
ATOM     24 CL   UNL     1      -2.497   9.706  15.917  0.00  0.00    +0.000 Cl
ATOM     25  C   UNL     1      -0.622   9.852  17.894  0.00  0.00    +0.000 A 
ENDBRANCH  17  18
ENDBRANCH  16  17
ENDBRANCH   3  16
TORSDOF 5
ENDMDL
MODEL 4
REMARK VINA RESULT:      -7.4      1.666      2.133
REMARK  Name = 
REMARK  6 active torsions:
REMARK  status: ('A' for Active; 'I' for Inactive)
REMARK    1  A    between atoms: C_1  and  N_2
REMARK    2  A    between atoms: N_2  and  C_15
REMARK    3  A    between atoms: C_3  and  C_5
REMARK    4  A    between atoms: C_5  and  O_6
REMARK    5  A    between atoms: O_6  and  C_7
REMARK    6  A    between atoms: C_20  and  N_21
REMARK                            x       y       z     vdW  Elec       q    Type
REMARK                         _______ _______ _______ _____ _____    ______ ____
ROOT
ATOM      1  C   UNL     1       1.695   4.876  20.355  0.00  0.00    +0.000 C 
ATOM      2  N   UNL     1       2.330   5.614  19.254  0.00  0.00    +0.000 N 
ATOM      3  C   UNL     1       2.309   6.999  19.319  0.00  0.00    +0.000 C 
ATOM      4  O   UNL     1       1.866   7.559  20.313  0.00  0.00    +0.000 OA
ENDROOT
BRANCH   2   5
ATOM      5  C   UNL     1       2.957   4.907  18.099  0.00  0.00    +0.000 C 
ATOM      6  C   UNL     1       2.262   3.584  17.646  0.00  0.00    +0.000 C 
ATOM      7  C   UNL     1       2.441   2.396  18.612  0.00  0.00    +0.000 C 
ATOM      8  C   UNL     1       3.912   2.199  18.998  0.00  0.00    +0.000 C 
ATOM      9  C   UNL     1       4.571   3.512  19.464  0.00  0.00    +0.000 C 
ATOM     10  C   UNL     1       4.492   4.608  18.355  0.00  0.00    +0.000 C 
BRANCH  10  11
ATOM     11  N   UNL     1       5.207   4.167  17.104  0.00  0.00    +0.000 NA
ATOM     12  C   UNL     1       6.683   4.301  17.188  0.00  0.00    +0.000 C 
ATOM     13  C   UNL     1       7.012   5.645  16.574  0.00  0.00    +0.000 C 
ATOM     14  C   UNL     1       6.155   5.564  15.343  0.00  0.00    +0.000 C 
ATOM     15  C   UNL     1       4.858   5.002  15.917  0.00  0.00    +0.000 C 
ENDBRANCH  10  11
ENDBRANCH   2   5
BRANCH   3  16
ATOM     16  C   UNL     1       2.749   7.915  18.201  0.00  0.00    +0.000 C 
BRANCH  16  17
ATOM     17  O   UNL     1       1.644   8.577  17.697  0.00  0.00    +0.000 OA
BRANCH  17  18
ATOM     18  C   UNL     1       1.241   9.825  18.042  0.00  0.00    +0.000 A 
ATOM     19  C   UNL     1       2.140  10.904  18.199  0.00  0.00    +0.000 A 
ATOM     20  C   UNL     1       1.672  12.172  18.558  0.00  0.00    +0.000 A 
ATOM     21  C   UNL     1       0.308  12.389  18.772  0.00  0.00    +0.000 A 
ATOM     22 CL   UNL     1      -0.242  13.997  19.221  0.00  0.00    +0.000 Cl
ATOM     23  C   UNL     1      -0.595  11.321  18.628  0.00  0.00    +0.000 A 
ATOM     24 CL   UNL     1      -2.319  11.547  18.900  0.00  0.00    +0.000 Cl
ATOM     25  C   UNL     1      -0.126  10.052  18.264  0.00  0.00    +0.000 A 
ENDBRANCH  17  18
ENDBRANCH  16  17
ENDBRANCH   3  16
TORSDOF 5
ENDMDL
MODEL 5
REMARK VINA RESULT:      -7.4      2.297      4.161
REMARK  Name = 
REMARK  6 active torsions:
REMARK  status: ('A' for Active; 'I' for Inactive)
REMARK    1  A    between atoms: C_1  and  N_2
REMARK    2  A    between atoms: N_2  and  C_15
REMARK    3  A    between atoms: C_3  and  C_5
REMARK    4  A    between atoms: C_5  and  O_6
REMARK    5  A    between atoms: O_6  and  C_7
REMARK    6  A    between atoms: C_20  and  N_21
REMARK                            x       y       z     vdW  Elec       q    Type
REMARK                         _______ _______ _______ _____ _____    ______ ____
ROOT
ATOM      1  C   UNL     1       5.002   7.136  16.673  0.00  0.00    +0.000 C 
ATOM      2  N   UNL     1       4.047   6.954  17.774  0.00  0.00    +0.000 N 
ATOM      3  C   UNL     1       3.029   7.887  17.897  0.00  0.00    +0.000 C 
ATOM      4  O   UNL     1       2.890   8.759  17.049  0.00  0.00    +0.000 OA
ENDROOT
BRANCH   2   5
ATOM      5  C   UNL     1       4.173   5.823  18.739  0.00  0.00    +0.000 C 
ATOM      6  C   UNL     1       5.616   5.265  18.957  0.00  0.00    +0.000 C 
ATOM      7  C   UNL     1       6.187   4.463  17.771  0.00  0.00    +0.000 C 
ATOM      8  C   UNL     1       5.198   3.395  17.285  0.00  0.00    +0.000 C 
ATOM      9  C   UNL     1       3.787   3.972  17.054  0.00  0.00    +0.000 C 
ATOM     10  C   UNL     1       3.220   4.615  18.358  0.00  0.00    +0.000 C 
BRANCH  10  11
ATOM     11  N   UNL     1       3.113   3.597  19.464  0.00  0.00    +0.000 NA
ATOM     12  C   UNL     1       2.148   2.508  19.174  0.00  0.00    +0.000 C 
ATOM     13  C   UNL     1       0.841   2.932  19.810  0.00  0.00    +0.000 C 
ATOM     14  C   UNL     1       1.358   3.384  21.145  0.00  0.00    +0.000 C 
ATOM     15  C   UNL     1       2.592   4.181  20.735  0.00  0.00    +0.000 C 
ENDBRANCH  10  11
ENDBRANCH   2   5
BRANCH   3  16
ATOM     16  C   UNL     1       2.071   7.961  19.063  0.00  0.00    +0.000 C 
BRANCH  16  17
ATOM     17  O   UNL     1       1.152   8.969  18.832  0.00  0.00    +0.000 OA
BRANCH  17  18
ATOM     18  C   UNL     1       0.628   9.796  19.769  0.00  0.00    +0.000 A 
ATOM     19  C   UNL     1       0.225  11.121  19.482  0.00  0.00    +0.000 A 
ATOM     20  C   UNL     1      -0.309  11.933  20.487  0.00  0.00    +0.000 A 
ATOM     21  C   UNL     1      -0.447  11.449  21.791  0.00  0.00    +0.000 A 
ATOM     22 CL   UNL     1      -1.123  12.500  23.026  0.00  0.00    +0.000 Cl
ATOM     23  C   UNL     1      -0.042  10.136  22.090  0.00  0.00    +0.000 A 
ATOM     24 CL   UNL     1      -0.186   9.490  23.720  0.00  0.00    +0.000 Cl
ATOM     25  C   UNL     1       0.489   9.321  21.082  0.00  0.00    +0.000 A 
ENDBRANCH  17  18
ENDBRANCH  16  17
ENDBRANCH   3  16
TORSDOF 5
ENDMDL
MODEL 6
REMARK VINA RESULT:      -7.4      2.057      2.462
REMARK  Name = 
REMARK  6 active torsions:
REMARK  status: ('A' for Active; 'I' for Inactive)
REMARK    1  A    between atoms: C_1  and  N_2
REMARK    2  A    between atoms: N_2  and  C_15
REMARK    3  A    between atoms: C_3  and  C_5
REMARK    4  A    between atoms: C_5  and  O_6
REMARK    5  A    between atoms: O_6  and  C_7
REMARK    6  A    between atoms: C_20  and  N_21
REMARK                            x       y       z     vdW  Elec       q    Type
REMARK                         _______ _______ _______ _____ _____    ______ ____
ROOT
ATOM      1  C   UNL     1       1.774   4.820  20.324  0.00  0.00    +0.000 C 
ATOM      2  N   UNL     1       2.406   5.586  19.242  0.00  0.00    +0.000 N 
ATOM      3  C   UNL     1       2.357   6.969  19.325  0.00  0.00    +0.000 C 
ATOM      4  O   UNL     1       1.892   7.507  20.321  0.00  0.00    +0.000 OA
ENDROOT
BRANCH   2   5
ATOM      5  C   UNL     1       3.060   4.908  18.084  0.00  0.00    +0.000 C 
ATOM      6  C   UNL     1       2.323   3.652  17.519  0.00  0.00    +0.000 C 
ATOM      7  C   UNL     1       2.381   2.406  18.424  0.00  0.00    +0.000 C 
ATOM      8  C   UNL     1       3.815   2.105  18.878  0.00  0.00    +0.000 C 
ATOM      9  C   UNL     1       4.515   3.352  19.454  0.00  0.00    +0.000 C 
ATOM     10  C   UNL     1       4.559   4.508  18.406  0.00  0.00    +0.000 C 
BRANCH  10  11
ATOM     11  N   UNL     1       5.321   4.095  17.173  0.00  0.00    +0.000 NA
ATOM     12  C   UNL     1       6.770   4.409  17.241  0.00  0.00    +0.000 C 
ATOM     13  C   UNL     1       6.936   5.751  16.560  0.00  0.00    +0.000 C 
ATOM     14  C   UNL     1       6.093   5.509  15.340  0.00  0.00    +0.000 C 
ATOM     15  C   UNL     1       4.873   4.824  15.950  0.00  0.00    +0.000 C 
ENDBRANCH  10  11
ENDBRANCH   2   5
BRANCH   3  16
ATOM     16  C   UNL     1       2.791   7.909  18.225  0.00  0.00    +0.000 C 
BRANCH  16  17
ATOM     17  O   UNL     1       1.678   8.553  17.715  0.00  0.00    +0.000 OA
BRANCH  17  18
ATOM     18  C   UNL     1       1.249   9.792  18.062  0.00  0.00    +0.000 A 
ATOM     19  C   UNL     1      -0.095  10.070  18.400  0.00  0.00    +0.000 A 
ATOM     20  C   UNL     1      -0.485  11.366  18.750  0.00  0.00    +0.000 A 
ATOM     21  C   UNL     1       0.448  12.407  18.765  0.00  0.00    +0.000 A 
ATOM     22 CL   UNL     1      -0.081  14.023  19.211  0.00  0.00    +0.000 Cl
ATOM     23  C   UNL     1       1.786  12.144  18.422  0.00  0.00    +0.000 A 
ATOM     24 CL   UNL     1       2.990  13.427  18.416  0.00  0.00    +0.000 Cl
ATOM     25  C   UNL     1       2.177  10.845  18.076  0.00  0.00    +0.000 A 
ENDBRANCH  17  18
ENDBRANCH  16  17
ENDBRANCH   3  16
TORSDOF 5
ENDMDL
MODEL 7
REMARK VINA RESULT:      -7.3      1.739      3.729
REMARK  Name = 
REMARK  6 active torsions:
REMARK  status: ('A' for Active; 'I' for Inactive)
REMARK    1  A    between atoms: C_1  and  N_2
REMARK    2  A    between atoms: N_2  and  C_15
REMARK    3  A    between atoms: C_3  and  C_5
REMARK    4  A    between atoms: C_5  and  O_6
REMARK    5  A    between atoms: O_6  and  C_7
REMARK    6  A    between atoms: C_20  and  N_21
REMARK                            x       y       z     vdW  Elec       q    Type
REMARK                         _______ _______ _______ _____ _____    ______ ____
ROOT
ATOM      1  C   UNL     1       4.685   7.199  16.748  0.00  0.00    +0.000 C 
ATOM      2  N   UNL     1       3.772   6.949  17.871  0.00  0.00    +0.000 N 
ATOM      3  C   UNL     1       2.715   7.829  18.042  0.00  0.00    +0.000 C 
ATOM      4  O   UNL     1       2.512   8.711  17.218  0.00  0.00    +0.000 OA
ENDROOT
BRANCH   2   5
ATOM      5  C   UNL     1       3.978   5.805  18.806  0.00  0.00    +0.000 C 
ATOM      6  C   UNL     1       5.443   5.278  18.932  0.00  0.00    +0.000 C 
ATOM      7  C   UNL     1       5.963   4.509  17.702  0.00  0.00    +0.000 C 
ATOM      8  C   UNL     1       4.973   3.427  17.254  0.00  0.00    +0.000 C 
ATOM      9  C   UNL     1       3.539   3.973  17.113  0.00  0.00    +0.000 C 
ATOM     10  C   UNL     1       3.033   4.581  18.458  0.00  0.00    +0.000 C 
BRANCH  10  11
ATOM     11  N   UNL     1       3.012   3.543  19.551  0.00  0.00    +0.000 NA
ATOM     12  C   UNL     1       2.153   2.374  19.238  0.00  0.00    +0.000 C 
ATOM     13  C   UNL     1       0.807   2.668  19.868  0.00  0.00    +0.000 C 
ATOM     14  C   UNL     1       1.271   3.147  21.214  0.00  0.00    +0.000 C 
ATOM     15  C   UNL     1       2.430   4.060  20.824  0.00  0.00    +0.000 C 
ENDBRANCH  10  11
ENDBRANCH   2   5
BRANCH   3  16
ATOM     16  C   UNL     1       1.788   7.834  19.236  0.00  0.00    +0.000 C 
BRANCH  16  17
ATOM     17  O   UNL     1       1.782   9.097  19.799  0.00  0.00    +0.000 OA
BRANCH  17  18
ATOM     18  C   UNL     1       0.703   9.909  19.915  0.00  0.00    +0.000 A 
ATOM     19  C   UNL     1      -0.046  10.352  18.800  0.00  0.00    +0.000 A 
ATOM     20  C   UNL     1      -1.151  11.191  18.975  0.00  0.00    +0.000 A 
ATOM     21  C   UNL     1      -1.528  11.607  20.254  0.00  0.00    +0.000 A 
ATOM     22 CL   UNL     1      -2.924  12.661  20.433  0.00  0.00    +0.000 Cl
ATOM     23  C   UNL     1      -0.787  11.181  21.370  0.00  0.00    +0.000 A 
ATOM     24 CL   UNL     1      -1.220  11.691  22.997  0.00  0.00    +0.000 Cl
ATOM     25  C   UNL     1       0.317  10.337  21.195  0.00  0.00    +0.000 A 
ENDBRANCH  17  18
ENDBRANCH  16  17
ENDBRANCH   3  16
TORSDOF 5
ENDMDL
MODEL 8
REMARK VINA RESULT:      -7.3      1.366      1.793
REMARK  Name = 
REMARK  6 active torsions:
REMARK  status: ('A' for Active; 'I' for Inactive)
REMARK    1  A    between atoms: C_1  and  N_2
REMARK    2  A    between atoms: N_2  and  C_15
REMARK    3  A    between atoms: C_3  and  C_5
REMARK    4  A    between atoms: C_5  and  O_6
REMARK    5  A    between atoms: O_6  and  C_7
REMARK    6  A    between atoms: C_20  and  N_21
REMARK                            x       y       z     vdW  Elec       q    Type
REMARK                         _______ _______ _______ _____ _____    ______ ____
ROOT
ATOM      1  C   UNL     1       1.136   3.736  20.077  0.00  0.00    +0.000 C 
ATOM      2  N   UNL     1       1.869   4.895  19.550  0.00  0.00    +0.000 N 
ATOM      3  C   UNL     1       1.707   6.105  20.207  0.00  0.00    +0.000 C 
ATOM      4  O   UNL     1       1.058   6.159  21.243  0.00  0.00    +0.000 OA
ENDROOT
BRANCH   2   5
ATOM      5  C   UNL     1       2.739   4.786  18.343  0.00  0.00    +0.000 C 
ATOM      6  C   UNL     1       2.316   3.716  17.287  0.00  0.00    +0.000 C 
ATOM      7  C   UNL     1       2.543   2.254  17.719  0.00  0.00    +0.000 C 
ATOM      8  C   UNL     1       3.964   2.039  18.254  0.00  0.00    +0.000 C 
ATOM      9  C   UNL     1       4.352   3.090  19.312  0.00  0.00    +0.000 C 
ATOM     10  C   UNL     1       4.256   4.536  18.732  0.00  0.00    +0.000 C 
BRANCH  10  11
ATOM     11  N   UNL     1       5.186   4.714  17.559  0.00  0.00    +0.000 NA
ATOM     12  C   UNL     1       6.617   4.536  17.908  0.00  0.00    +0.000 C 
ATOM     13  C   UNL     1       7.151   5.924  18.192  0.00  0.00    +0.000 C 
ATOM     14  C   UNL     1       6.565   6.652  17.017  0.00  0.00    +0.000 C 
ATOM     15  C   UNL     1       5.144   6.096  16.998  0.00  0.00    +0.000 C 
ENDBRANCH  10  11
ENDBRANCH   2   5
BRANCH   3  16
ATOM     16  C   UNL     1       2.235   7.429  19.705  0.00  0.00    +0.000 C 
BRANCH  16  17
ATOM     17  O   UNL     1       1.906   8.421  20.612  0.00  0.00    +0.000 OA
BRANCH  17  18
ATOM     18  C   UNL     1       0.954   9.371  20.439  0.00  0.00    +0.000 A 
ATOM     19  C   UNL     1       0.547   9.824  19.163  0.00  0.00    +0.000 A 
ATOM     20  C   UNL     1      -0.439  10.807  19.041  0.00  0.00    +0.000 A 
ATOM     21  C   UNL     1      -1.033  11.360  20.179  0.00  0.00    +0.000 A 
ATOM     22 CL   UNL     1      -2.270  12.593  19.983  0.00  0.00    +0.000 Cl
ATOM     23  C   UNL     1      -0.631  10.924  21.453  0.00  0.00    +0.000 A 
ATOM     24 CL   UNL     1      -1.344  11.601  22.912  0.00  0.00    +0.000 Cl
ATOM     25  C   UNL     1       0.354   9.935  21.575  0.00  0.00    +0.000 A 
ENDBRANCH  17  18
ENDBRANCH  16  17
ENDBRANCH   3  16
TORSDOF 5
ENDMDL
MODEL 9
REMARK VINA RESULT:      -7.3      1.607      3.787
REMARK  Name = 
REMARK  6 active torsions:
REMARK  status: ('A' for Active; 'I' for Inactive)
REMARK    1  A    between atoms: C_1  and  N_2
REMARK    2  A    between atoms: N_2  and  C_15
REMARK    3  A    between atoms: C_3  and  C_5
REMARK    4  A    between atoms: C_5  and  O_6
REMARK    5  A    between atoms: O_6  and  C_7
REMARK    6  A    between atoms: C_20  and  N_21
REMARK                            x       y       z     vdW  Elec       q    Type
REMARK                         _______ _______ _______ _____ _____    ______ ____
ROOT
ATOM      1  C   UNL     1       4.731   7.158  16.697  0.00  0.00    +0.000 C 
ATOM      2  N   UNL     1       3.815   6.942  17.825  0.00  0.00    +0.000 N 
ATOM      3  C   UNL     1       2.790   7.859  18.000  0.00  0.00    +0.000 C 
ATOM      4  O   UNL     1       2.612   8.745  17.174  0.00  0.00    +0.000 OA
ENDROOT
BRANCH   2   5
ATOM      5  C   UNL     1       3.988   5.794  18.763  0.00  0.00    +0.000 C 
ATOM      6  C   UNL     1       5.445   5.257  18.927  0.00  0.00    +0.000 C 
ATOM      7  C   UNL     1       5.994   4.488  17.710  0.00  0.00    +0.000 C 
ATOM      8  C   UNL     1       5.009   3.413  17.231  0.00  0.00    +0.000 C 
ATOM      9  C   UNL     1       3.583   3.971  17.052  0.00  0.00    +0.000 C 
ATOM     10  C   UNL     1       3.044   4.578  18.385  0.00  0.00    +0.000 C 
BRANCH  10  11
ATOM     11  N   UNL     1       2.985   3.537  19.473  0.00  0.00    +0.000 NA
ATOM     12  C   UNL     1       2.074   2.408  19.161  0.00  0.00    +0.000 C 
ATOM     13  C   UNL     1       0.747   2.756  19.802  0.00  0.00    +0.000 C 
ATOM     14  C   UNL     1       1.240   3.209  21.147  0.00  0.00    +0.000 C 
ATOM     15  C   UNL     1       2.435   4.073  20.752  0.00  0.00    +0.000 C 
ENDBRANCH  10  11
ENDBRANCH   2   5
BRANCH   3  16
ATOM     16  C   UNL     1       1.871   7.898  19.198  0.00  0.00    +0.000 C 
BRANCH  16  17
ATOM     17  O   UNL     1       1.801   9.195  19.673  0.00  0.00    +0.000 OA
BRANCH  17  18
ATOM     18  C   UNL     1       0.682   9.958  19.736  0.00  0.00    +0.000 A 
ATOM     19  C   UNL     1       0.277  10.628  20.913  0.00  0.00    +0.000 A 
ATOM     20  C   UNL     1      -0.888  11.402  20.924  0.00  0.00    +0.000 A 
ATOM     21  C   UNL     1      -1.670  11.521  19.772  0.00  0.00    +0.000 A 
ATOM     22 CL   UNL     1      -3.126  12.505  19.826  0.00  0.00    +0.000 Cl
ATOM     23  C   UNL     1      -1.281  10.853  18.598  0.00  0.00    +0.000 A 
ATOM     24 CL   UNL     1      -2.244  10.966  17.129  0.00  0.00    +0.000 Cl
ATOM     25  C   UNL     1      -0.113  10.081  18.586  0.00  0.00    +0.000 A 
ENDBRANCH  17  18
ENDBRANCH  16  17
ENDBRANCH   3  16
TORSDOF 5
ENDMDL
