MODEL 1
REMARK VINA RESULT:      -8.2      0.000      0.000
REMARK  Name = 
REMARK  3 active torsions:
REMARK  status: ('A' for Active; 'I' for Inactive)
REMARK    1  A    between atoms: C_1  and  C_2
REMARK    2  A    between atoms: C_8  and  C_9
REMARK    3  A    between atoms: C_16  and  C_17
REMARK                            x       y       z     vdW  Elec       q    Type
REMARK                         _______ _______ _______ _____ _____    ______ ____
ROOT
ATOM      1  C   UNL     1       2.727   6.935  18.571  0.00  0.00    +0.000 C 
ATOM      2  O   UNL     1       3.441   7.145  17.594  0.00  0.00    +0.000 OA
ATOM      3  N   UNL     1       2.723   5.731  19.311  0.00  0.00    +0.000 N 
ATOM      4  C   UNL     1       1.789   5.514  20.429  0.00  0.00    +0.000 C 
ATOM      5  C   UNL     1       2.246   4.449  21.418  0.00  0.00    +0.000 C 
ATOM      6  O   UNL     1       2.496   3.219  20.737  0.00  0.00    +0.000 OA
ATOM      7  C   UNL     1       3.559   3.406  19.791  0.00  0.00    +0.000 C 
ATOM      8  C   UNL     1       3.206   4.460  18.697  0.00  0.00    +0.000 C 
ENDROOT
BRANCH   1  16
ATOM      9  C   UNL     1       0.380   9.339  23.309  0.00  0.00    +0.000 C 
ATOM     10  C   UNL     1       0.138   9.814  21.927  0.00  0.00    +0.000 A 
ATOM     11  N   UNL     1      -0.667  10.863  21.710  0.00  0.00    +0.000 NA
ATOM     12  N   UNL     1      -0.622  11.037  20.382  0.00  0.00    +0.000 N 
ATOM     13  C   UNL     1       0.192  10.151  19.729  0.00  0.00    +0.000 A 
ATOM     14  C   UNL     1       0.547  10.053  18.384  0.00  0.00    +0.000 A 
ATOM     15  C   UNL     1       1.437   9.033  18.042  0.00  0.00    +0.000 A 
ATOM     16  C   UNL     1       1.857   8.079  18.978  0.00  0.00    +0.000 A 
ATOM     17  C   UNL     1       1.524   8.233  20.337  0.00  0.00    +0.000 A 
ATOM     18  C   UNL     1       0.678   9.299  20.714  0.00  0.00    +0.000 A 
ATOM     19  H   UNL     1      -1.159  11.792  19.979  0.00  0.00    +0.000 HD
ENDBRANCH   1  16
BRANCH   8  20
ATOM     20  C   UNL     1       4.376   4.536  17.726  0.00  0.00    +0.000 A 
ATOM     21  C   UNL     1       5.647   4.905  18.199  0.00  0.00    +0.000 A 
ATOM     22  C   UNL     1       6.731   5.023  17.323  0.00  0.00    +0.000 A 
ATOM     23  C   UNL     1       6.548   4.776  15.967  0.00  0.00    +0.000 A 
ATOM     24 CL   UNL     1       7.879   4.926  14.886  0.00  0.00    +0.000 Cl
ATOM     25  C   UNL     1       5.297   4.409  15.476  0.00  0.00    +0.000 A 
ATOM     26  C   UNL     1       4.215   4.285  16.353  0.00  0.00    +0.000 A 
ENDBRANCH   8  20
TORSDOF 2
ENDMDL
MODEL 2
REMARK VINA RESULT:      -8.0      0.780      2.050
REMARK  Name = 
REMARK  3 active torsions:
REMARK  status: ('A' for Active; 'I' for Inactive)
REMARK    1  A    between atoms: C_1  and  C_2
REMARK    2  A    between atoms: C_8  and  C_9
REMARK    3  A    between atoms: C_16  and  C_17
REMARK                            x       y       z     vdW  Elec       q    Type
REMARK                         _______ _______ _______ _____ _____    ______ ____
ROOT
ATOM      1  C   UNL     1       2.687   6.630  19.334  0.00  0.00    +0.000 C 
ATOM      2  O   UNL     1       3.394   6.997  18.399  0.00  0.00    +0.000 OA
ATOM      3  N   UNL     1       2.636   5.304  19.821  0.00  0.00    +0.000 N 
ATOM      4  C   UNL     1       1.711   4.912  20.898  0.00  0.00    +0.000 C 
ATOM      5  C   UNL     1       2.132   3.652  21.644  0.00  0.00    +0.000 C 
ATOM      6  O   UNL     1       2.308   2.572  20.727  0.00  0.00    +0.000 OA
ATOM      7  C   UNL     1       3.362   2.895  19.808  0.00  0.00    +0.000 C 
ATOM      8  C   UNL     1       3.043   4.160  18.955  0.00  0.00    +0.000 C 
ENDROOT
BRANCH   1  16
ATOM      9  C   UNL     1      -1.107  10.825  18.011  0.00  0.00    +0.000 C 
ATOM     10  C   UNL     1      -0.571  10.584  19.372  0.00  0.00    +0.000 A 
ATOM     11  N   UNL     1      -0.961  11.360  20.392  0.00  0.00    +0.000 NA
ATOM     12  N   UNL     1      -0.326  10.842  21.453  0.00  0.00    +0.000 N 
ATOM     13  C   UNL     1       0.448   9.751  21.164  0.00  0.00    +0.000 A 
ATOM     14  C   UNL     1       1.193   8.911  21.992  0.00  0.00    +0.000 A 
ATOM     15  C   UNL     1       1.860   7.852  21.375  0.00  0.00    +0.000 A 
ATOM     16  C   UNL     1       1.883   7.709  19.982  0.00  0.00    +0.000 A 
ATOM     17  C   UNL     1       1.082   8.540  19.176  0.00  0.00    +0.000 A 
ATOM     18  C   UNL     1       0.346   9.577  19.789  0.00  0.00    +0.000 A 
ATOM     19  H   UNL     1      -0.477  11.269  22.357  0.00  0.00    +0.000 HD
ENDBRANCH   1  16
BRANCH   8  20
ATOM     20  C   UNL     1       4.198   4.374  17.987  0.00  0.00    +0.000 A 
ATOM     21  C   UNL     1       3.961   4.323  16.601  0.00  0.00    +0.000 A 
ATOM     22  C   UNL     1       5.010   4.475  15.689  0.00  0.00    +0.000 A 
ATOM     23  C   UNL     1       6.304   4.674  16.157  0.00  0.00    +0.000 A 
ATOM     24 CL   UNL     1       7.597   4.855  15.036  0.00  0.00    +0.000 Cl
ATOM     25  C   UNL     1       6.562   4.727  17.525  0.00  0.00    +0.000 A 
ATOM     26  C   UNL     1       5.513   4.581  18.437  0.00  0.00    +0.000 A 
ENDBRANCH   8  20
TORSDOF 2
ENDMDL
MODEL 3
REMARK VINA RESULT:      -7.8      4.557      7.000
REMARK  Name = 
REMARK  3 active torsions:
REMARK  status: ('A' for Active; 'I' for Inactive)
REMARK    1  A    between atoms: C_1  and  C_2
REMARK    2  A    between atoms: C_8  and  C_9
REMARK    3  A    between atoms: C_16  and  C_17
REMARK                            x       y       z     vdW  Elec       q    Type
REMARK                         _______ _______ _______ _____ _____    ______ ____
ROOT
ATOM      1  C   UNL     1      -1.495  10.705  18.262  0.00  0.00    +0.000 C 
ATOM      2  O   UNL     1      -1.290   9.495  18.214  0.00  0.00    +0.000 OA
ATOM      3  N   UNL     1      -0.519  11.665  18.612  0.00  0.00    +0.000 N 
ATOM      4  C   UNL     1      -0.848  13.097  18.723  0.00  0.00    +0.000 C 
ATOM      5  C   UNL     1       0.355  14.020  18.581  0.00  0.00    +0.000 C 
ATOM      6  O   UNL     1       1.360  13.669  19.533  0.00  0.00    +0.000 OA
ATOM      7  C   UNL     1       1.815  12.333  19.274  0.00  0.00    +0.000 C 
ATOM      8  C   UNL     1       0.677  11.277  19.414  0.00  0.00    +0.000 C 
ENDROOT
BRANCH   1  16
ATOM      9  C   UNL     1      -6.413  12.701  20.622  0.00  0.00    +0.000 C 
ATOM     10  C   UNL     1      -6.248  12.382  19.184  0.00  0.00    +0.000 A 
ATOM     11  N   UNL     1      -7.273  12.551  18.338  0.00  0.00    +0.000 NA
ATOM     12  N   UNL     1      -6.766  12.214  17.144  0.00  0.00    +0.000 N 
ATOM     13  C   UNL     1      -5.448  11.848  17.179  0.00  0.00    +0.000 A 
ATOM     14  C   UNL     1      -4.566  11.503  16.155  0.00  0.00    +0.000 A 
ATOM     15  C   UNL     1      -3.256  11.202  16.531  0.00  0.00    +0.000 A 
ATOM     16  C   UNL     1      -2.874  11.129  17.876  0.00  0.00    +0.000 A 
ATOM     17  C   UNL     1      -3.771  11.532  18.884  0.00  0.00    +0.000 A 
ATOM     18  C   UNL     1      -5.083  11.904  18.519  0.00  0.00    +0.000 A 
ATOM     19  H   UNL     1      -7.369  12.272  16.335  0.00  0.00    +0.000 HD
ENDBRANCH   1  16
BRANCH   8  20
ATOM     20  C   UNL     1       1.283   9.901  19.172  0.00  0.00    +0.000 A 
ATOM     21  C   UNL     1       1.274   8.948  20.206  0.00  0.00    +0.000 A 
ATOM     22  C   UNL     1       1.861   7.691  20.026  0.00  0.00    +0.000 A 
ATOM     23  C   UNL     1       2.462   7.382  18.811  0.00  0.00    +0.000 A 
ATOM     24 CL   UNL     1       3.190   5.838  18.589  0.00  0.00    +0.000 Cl
ATOM     25  C   UNL     1       2.482   8.311  17.773  0.00  0.00    +0.000 A 
ATOM     26  C   UNL     1       1.891   9.565  17.952  0.00  0.00    +0.000 A 
ENDBRANCH   8  20
TORSDOF 2
ENDMDL
MODEL 4
REMARK VINA RESULT:      -7.5      3.677      7.985
REMARK  Name = 
REMARK  3 active torsions:
REMARK  status: ('A' for Active; 'I' for Inactive)
REMARK    1  A    between atoms: C_1  and  C_2
REMARK    2  A    between atoms: C_8  and  C_9
REMARK    3  A    between atoms: C_16  and  C_17
REMARK                            x       y       z     vdW  Elec       q    Type
REMARK                         _______ _______ _______ _____ _____    ______ ____
ROOT
ATOM      1  C   UNL     1       4.153   4.771  17.217  0.00  0.00    +0.000 C 
ATOM      2  O   UNL     1       3.939   3.705  17.787  0.00  0.00    +0.000 OA
ATOM      3  N   UNL     1       3.563   6.002  17.580  0.00  0.00    +0.000 N 
ATOM      4  C   UNL     1       3.805   7.234  16.808  0.00  0.00    +0.000 C 
ATOM      5  C   UNL     1       3.553   8.514  17.594  0.00  0.00    +0.000 C 
ATOM      6  O   UNL     1       2.226   8.515  18.122  0.00  0.00    +0.000 OA
ATOM      7  C   UNL     1       2.077   7.419  19.036  0.00  0.00    +0.000 C 
ATOM      8  C   UNL     1       2.284   6.035  18.347  0.00  0.00    +0.000 C 
ENDROOT
BRANCH   1  16
ATOM      9  C   UNL     1       4.543   3.178  11.645  0.00  0.00    +0.000 C 
ATOM     10  C   UNL     1       5.684   3.664  12.454  0.00  0.00    +0.000 A 
ATOM     11  N   UNL     1       6.903   3.758  11.904  0.00  0.00    +0.000 NA
ATOM     12  N   UNL     1       7.663   4.261  12.888  0.00  0.00    +0.000 N 
ATOM     13  C   UNL     1       6.983   4.510  14.048  0.00  0.00    +0.000 A 
ATOM     14  C   UNL     1       7.400   5.085  15.249  0.00  0.00    +0.000 A 
ATOM     15  C   UNL     1       6.434   5.224  16.247  0.00  0.00    +0.000 A 
ATOM     16  C   UNL     1       5.143   4.704  16.099  0.00  0.00    +0.000 A 
ATOM     17  C   UNL     1       4.735   4.175  14.859  0.00  0.00    +0.000 A 
ATOM     18  C   UNL     1       5.680   4.087  13.814  0.00  0.00    +0.000 A 
ATOM     19  H   UNL     1       8.641   4.428  12.698  0.00  0.00    +0.000 HD
ENDBRANCH   1  16
BRANCH   8  20
ATOM     20  C   UNL     1       2.051   4.953  19.392  0.00  0.00    +0.000 A 
ATOM     21  C   UNL     1       1.170   3.894  19.109  0.00  0.00    +0.000 A 
ATOM     22  C   UNL     1       0.904   2.908  20.066  0.00  0.00    +0.000 A 
ATOM     23  C   UNL     1       1.516   2.979  21.312  0.00  0.00    +0.000 A 
ATOM     24 CL   UNL     1       1.186   1.770  22.493  0.00  0.00    +0.000 Cl
ATOM     25  C   UNL     1       2.392   4.019  21.614  0.00  0.00    +0.000 A 
ATOM     26  C   UNL     1       2.661   5.001  20.656  0.00  0.00    +0.000 A 
ENDBRANCH   8  20
TORSDOF 2
ENDMDL
MODEL 5
REMARK VINA RESULT:      -7.4      4.552      8.847
REMARK  Name = 
REMARK  3 active torsions:
REMARK  status: ('A' for Active; 'I' for Inactive)
REMARK    1  A    between atoms: C_1  and  C_2
REMARK    2  A    between atoms: C_8  and  C_9
REMARK    3  A    between atoms: C_16  and  C_17
REMARK                            x       y       z     vdW  Elec       q    Type
REMARK                         _______ _______ _______ _____ _____    ______ ____
ROOT
ATOM      1  C   UNL     1       0.575  10.301  19.876  0.00  0.00    +0.000 C 
ATOM      2  O   UNL     1      -0.340   9.966  20.624  0.00  0.00    +0.000 OA
ATOM      3  N   UNL     1       0.921  11.641  19.590  0.00  0.00    +0.000 N 
ATOM      4  C   UNL     1       1.983  11.977  18.625  0.00  0.00    +0.000 C 
ATOM      5  C   UNL     1       2.576  13.366  18.819  0.00  0.00    +0.000 C 
ATOM      6  O   UNL     1       1.544  14.352  18.780  0.00  0.00    +0.000 OA
ATOM      7  C   UNL     1       0.628  14.126  19.861  0.00  0.00    +0.000 C 
ATOM      8  C   UNL     1      -0.075  12.737  19.767  0.00  0.00    +0.000 C 
ENDROOT
BRANCH   1  16
ATOM      9  C   UNL     1       2.255   4.879  21.110  0.00  0.00    +0.000 C 
ATOM     10  C   UNL     1       2.659   5.620  19.892  0.00  0.00    +0.000 A 
ATOM     11  N   UNL     1       3.462   5.039  18.991  0.00  0.00    +0.000 NA
ATOM     12  N   UNL     1       3.581   5.960  18.023  0.00  0.00    +0.000 N 
ATOM     13  C   UNL     1       2.875   7.109  18.255  0.00  0.00    +0.000 A 
ATOM     14  C   UNL     1       2.694   8.247  17.468  0.00  0.00    +0.000 A 
ATOM     15  C   UNL     1       1.877   9.249  17.993  0.00  0.00    +0.000 A 
ATOM     16  C   UNL     1       1.363   9.173  19.294  0.00  0.00    +0.000 A 
ATOM     17  C   UNL     1       1.519   7.991  20.044  0.00  0.00    +0.000 A 
ATOM     18  C   UNL     1       2.287   6.938  19.502  0.00  0.00    +0.000 A 
ATOM     19  H   UNL     1       4.148   5.736  17.217  0.00  0.00    +0.000 HD
ENDBRANCH   1  16
BRANCH   8  20
ATOM     20  C   UNL     1      -1.056  12.630  20.927  0.00  0.00    +0.000 A 
ATOM     21  C   UNL     1      -2.436  12.569  20.665  0.00  0.00    +0.000 A 
ATOM     22  C   UNL     1      -3.362  12.512  21.712  0.00  0.00    +0.000 A 
ATOM     23  C   UNL     1      -2.912  12.519  23.027  0.00  0.00    +0.000 A 
ATOM     24 CL   UNL     1      -4.050  12.455  24.317  0.00  0.00    +0.000 Cl
ATOM     25  C   UNL     1      -1.549  12.580  23.310  0.00  0.00    +0.000 A 
ATOM     26  C   UNL     1      -0.624  12.631  22.264  0.00  0.00    +0.000 A 
ENDBRANCH   8  20
TORSDOF 2
ENDMDL
MODEL 6
REMARK VINA RESULT:      -7.4      4.374      8.456
REMARK  Name = 
REMARK  3 active torsions:
REMARK  status: ('A' for Active; 'I' for Inactive)
REMARK    1  A    between atoms: C_1  and  C_2
REMARK    2  A    between atoms: C_8  and  C_9
REMARK    3  A    between atoms: C_16  and  C_17
REMARK                            x       y       z     vdW  Elec       q    Type
REMARK                         _______ _______ _______ _____ _____    ______ ____
ROOT
ATOM      1  C   UNL     1       0.623  10.215  19.564  0.00  0.00    +0.000 C 
ATOM      2  O   UNL     1       1.079  10.859  20.505  0.00  0.00    +0.000 OA
ATOM      3  N   UNL     1      -0.597  10.506  18.915  0.00  0.00    +0.000 N 
ATOM      4  C   UNL     1      -1.125   9.650  17.838  0.00  0.00    +0.000 C 
ATOM      5  C   UNL     1      -2.116  10.352  16.920  0.00  0.00    +0.000 C 
ATOM      6  O   UNL     1      -3.189  10.904  17.683  0.00  0.00    +0.000 OA
ATOM      7  C   UNL     1      -2.672  11.892  18.587  0.00  0.00    +0.000 C 
ATOM      8  C   UNL     1      -1.658  11.293  19.608  0.00  0.00    +0.000 C 
ENDROOT
BRANCH   1  16
ATOM      9  C   UNL     1       2.153   4.811  21.046  0.00  0.00    +0.000 C 
ATOM     10  C   UNL     1       2.705   5.543  19.883  0.00  0.00    +0.000 A 
ATOM     11  N   UNL     1       3.618   4.959  19.095  0.00  0.00    +0.000 NA
ATOM     12  N   UNL     1       3.855   5.873  18.143  0.00  0.00    +0.000 N 
ATOM     13  C   UNL     1       3.122   7.020  18.273  0.00  0.00    +0.000 A 
ATOM     14  C   UNL     1       3.038   8.151  17.461  0.00  0.00    +0.000 A 
ATOM     15  C   UNL     1       2.157   9.154  17.870  0.00  0.00    +0.000 A 
ATOM     16  C   UNL     1       1.482   9.085  19.095  0.00  0.00    +0.000 A 
ATOM     17  C   UNL     1       1.547   7.911  19.869  0.00  0.00    +0.000 A 
ATOM     18  C   UNL     1       2.381   6.857  19.438  0.00  0.00    +0.000 A 
ATOM     19  H   UNL     1       4.520   5.646  17.416  0.00  0.00    +0.000 HD
ENDBRANCH   1  16
BRANCH   8  20
ATOM     20  C   UNL     1      -1.220  12.412  20.543  0.00  0.00    +0.000 A 
ATOM     21  C   UNL     1      -1.406  12.270  21.930  0.00  0.00    +0.000 A 
ATOM     22  C   UNL     1      -1.051  13.299  22.809  0.00  0.00    +0.000 A 
ATOM     23  C   UNL     1      -0.513  14.477  22.305  0.00  0.00    +0.000 A 
ATOM     24 CL   UNL     1      -0.082  15.747  23.385  0.00  0.00    +0.000 Cl
ATOM     25  C   UNL     1      -0.321  14.640  20.935  0.00  0.00    +0.000 A 
ATOM     26  C   UNL     1      -0.670  13.610  20.057  0.00  0.00    +0.000 A 
ENDBRANCH   8  20
TORSDOF 2
ENDMDL
MODEL 7
REMARK VINA RESULT:      -7.4      7.892     11.858
REMARK  Name = 
REMARK  3 active torsions:
REMARK  status: ('A' for Active; 'I' for Inactive)
REMARK    1  A    between atoms: C_1  and  C_2
REMARK    2  A    between atoms: C_8  and  C_9
REMARK    3  A    between atoms: C_16  and  C_17
REMARK                            x       y       z     vdW  Elec       q    Type
REMARK                         _______ _______ _______ _____ _____    ______ ____
ROOT
ATOM      1  C   UNL     1      -4.597  13.094  20.982  0.00  0.00    +0.000 C 
ATOM      2  O   UNL     1      -3.740  13.923  21.274  0.00  0.00    +0.000 OA
ATOM      3  N   UNL     1      -5.642  12.691  21.843  0.00  0.00    +0.000 N 
ATOM      4  C   UNL     1      -6.597  11.636  21.461  0.00  0.00    +0.000 C 
ATOM      5  C   UNL     1      -7.916  11.691  22.222  0.00  0.00    +0.000 C 
ATOM      6  O   UNL     1      -7.675  11.653  23.628  0.00  0.00    +0.000 OA
ATOM      7  C   UNL     1      -6.913  12.806  24.013  0.00  0.00    +0.000 C 
ATOM      8  C   UNL     1      -5.517  12.857  23.321  0.00  0.00    +0.000 C 
ENDROOT
BRANCH   1  16
ATOM      9  C   UNL     1      -0.989  10.044  17.604  0.00  0.00    +0.000 C 
ATOM     10  C   UNL     1      -2.278  10.612  17.146  0.00  0.00    +0.000 A 
ATOM     11  N   UNL     1      -2.676  10.435  15.879  0.00  0.00    +0.000 NA
ATOM     12  N   UNL     1      -3.876  11.031  15.830  0.00  0.00    +0.000 N 
ATOM     13  C   UNL     1      -4.278  11.576  17.019  0.00  0.00    +0.000 A 
ATOM     14  C   UNL     1      -5.468  12.208  17.381  0.00  0.00    +0.000 A 
ATOM     15  C   UNL     1      -5.575  12.632  18.707  0.00  0.00    +0.000 A 
ATOM     16  C   UNL     1      -4.498  12.540  19.597  0.00  0.00    +0.000 A 
ATOM     17  C   UNL     1      -3.329  11.853  19.220  0.00  0.00    +0.000 A 
ATOM     18  C   UNL     1      -3.228  11.357  17.902  0.00  0.00    +0.000 A 
ATOM     19  H   UNL     1      -4.382  11.018  14.955  0.00  0.00    +0.000 HD
ENDBRANCH   1  16
BRANCH   8  20
ATOM     20  C   UNL     1      -4.782  14.085  23.840  0.00  0.00    +0.000 A 
ATOM     21  C   UNL     1      -3.525  13.934  24.452  0.00  0.00    +0.000 A 
ATOM     22  C   UNL     1      -2.845  15.039  24.976  0.00  0.00    +0.000 A 
ATOM     23  C   UNL     1      -3.422  16.301  24.894  0.00  0.00    +0.000 A 
ATOM     24 CL   UNL     1      -2.591  17.661  25.543  0.00  0.00    +0.000 Cl
ATOM     25  C   UNL     1      -4.667  16.474  24.293  0.00  0.00    +0.000 A 
ATOM     26  C   UNL     1      -5.343  15.371  23.764  0.00  0.00    +0.000 A 
ENDBRANCH   8  20
TORSDOF 2
ENDMDL
MODEL 8
REMARK VINA RESULT:      -7.4      4.445      8.651
REMARK  Name = 
REMARK  3 active torsions:
REMARK  status: ('A' for Active; 'I' for Inactive)
REMARK    1  A    between atoms: C_1  and  C_2
REMARK    2  A    between atoms: C_8  and  C_9
REMARK    3  A    between atoms: C_16  and  C_17
REMARK                            x       y       z     vdW  Elec       q    Type
REMARK                         _______ _______ _______ _____ _____    ______ ____
ROOT
ATOM      1  C   UNL     1       0.676  10.134  19.737  0.00  0.00    +0.000 C 
ATOM      2  O   UNL     1      -0.247   9.844  20.494  0.00  0.00    +0.000 OA
ATOM      3  N   UNL     1       1.039  11.455  19.392  0.00  0.00    +0.000 N 
ATOM      4  C   UNL     1       2.110  11.734  18.420  0.00  0.00    +0.000 C 
ATOM      5  C   UNL     1       2.718  13.124  18.553  0.00  0.00    +0.000 C 
ATOM      6  O   UNL     1       1.698  14.119  18.463  0.00  0.00    +0.000 OA
ATOM      7  C   UNL     1       0.774  13.953  19.548  0.00  0.00    +0.000 C 
ATOM      8  C   UNL     1       0.055  12.570  19.513  0.00  0.00    +0.000 C 
ENDROOT
BRANCH   1  16
ATOM      9  C   UNL     1       2.208   4.722  21.188  0.00  0.00    +0.000 C 
ATOM     10  C   UNL     1       2.658   5.414  19.957  0.00  0.00    +0.000 A 
ATOM     11  N   UNL     1       3.470   4.787  19.095  0.00  0.00    +0.000 NA
ATOM     12  N   UNL     1       3.633   5.673  18.102  0.00  0.00    +0.000 N 
ATOM     13  C   UNL     1       2.946   6.843  18.278  0.00  0.00    +0.000 A 
ATOM     14  C   UNL     1       2.809   7.958  17.451  0.00  0.00    +0.000 A 
ATOM     15  C   UNL     1       2.001   8.994  17.923  0.00  0.00    +0.000 A 
ATOM     16  C   UNL     1       1.453   8.971  19.211  0.00  0.00    +0.000 A 
ATOM     17  C   UNL     1       1.565   7.812  20.003  0.00  0.00    +0.000 A 
ATOM     18  C   UNL     1       2.324   6.726  19.515  0.00  0.00    +0.000 A 
ATOM     19  H   UNL     1       4.214   5.412  17.318  0.00  0.00    +0.000 HD
ENDBRANCH   1  16
BRANCH   8  20
ATOM     20  C   UNL     1      -0.933  12.527  20.671  0.00  0.00    +0.000 A 
ATOM     21  C   UNL     1      -0.453  12.520  21.993  0.00  0.00    +0.000 A 
ATOM     22  C   UNL     1      -1.335  12.439  23.075  0.00  0.00    +0.000 A 
ATOM     23  C   UNL     1      -2.704  12.361  22.841  0.00  0.00    +0.000 A 
ATOM     24 CL   UNL     1      -3.791  12.256  24.171  0.00  0.00    +0.000 Cl
ATOM     25  C   UNL     1      -3.201  12.367  21.539  0.00  0.00    +0.000 A 
ATOM     26  C   UNL     1      -2.319  12.454  20.458  0.00  0.00    +0.000 A 
ENDBRANCH   8  20
TORSDOF 2
ENDMDL
MODEL 9
REMARK VINA RESULT:      -7.1      3.574      7.398
REMARK  Name = 
REMARK  3 active torsions:
REMARK  status: ('A' for Active; 'I' for Inactive)
REMARK    1  A    between atoms: C_1  and  C_2
REMARK    2  A    between atoms: C_8  and  C_9
REMARK    3  A    between atoms: C_16  and  C_17
REMARK                            x       y       z     vdW  Elec       q    Type
REMARK                         _______ _______ _______ _____ _____    ______ ____
ROOT
ATOM      1  C   UNL     1       1.406   8.521  18.681  0.00  0.00    +0.000 C 
ATOM      2  O   UNL     1       0.825   8.801  17.636  0.00  0.00    +0.000 OA
ATOM      3  N   UNL     1       1.073   9.053  19.946  0.00  0.00    +0.000 N 
ATOM      4  C   UNL     1       1.858   8.732  21.152  0.00  0.00    +0.000 C 
ATOM      5  C   UNL     1       1.097   8.933  22.456  0.00  0.00    +0.000 C 
ATOM      6  O   UNL     1       0.597  10.269  22.533  0.00  0.00    +0.000 OA
ATOM      7  C   UNL     1      -0.330  10.493  21.461  0.00  0.00    +0.000 C 
ATOM      8  C   UNL     1       0.334  10.344  20.058  0.00  0.00    +0.000 C 
ENDROOT
BRANCH   1  16
ATOM      9  C   UNL     1       2.925   3.241  20.566  0.00  0.00    +0.000 C 
ATOM     10  C   UNL     1       3.768   4.086  19.689  0.00  0.00    +0.000 A 
ATOM     11  N   UNL     1       4.964   3.644  19.280  0.00  0.00    +0.000 NA
ATOM     12  N   UNL     1       5.418   4.624  18.488  0.00  0.00    +0.000 N 
ATOM     13  C   UNL     1       4.558   5.680  18.354  0.00  0.00    +0.000 A 
ATOM     14  C   UNL     1       4.639   6.835  17.577  0.00  0.00    +0.000 A 
ATOM     15  C   UNL     1       3.559   7.716  17.648  0.00  0.00    +0.000 A 
ATOM     16  C   UNL     1       2.502   7.514  18.545  0.00  0.00    +0.000 A 
ATOM     17  C   UNL     1       2.422   6.315  19.278  0.00  0.00    +0.000 A 
ATOM     18  C   UNL     1       3.473   5.379  19.169  0.00  0.00    +0.000 A 
ATOM     19  H   UNL     1       6.322   4.507  18.050  0.00  0.00    +0.000 HD
ENDBRANCH   1  16
BRANCH   8  20
ATOM     20  C   UNL     1      -0.722  10.654  19.006  0.00  0.00    +0.000 A 
ATOM     21  C   UNL     1      -1.786   9.757  18.804  0.00  0.00    +0.000 A 
ATOM     22  C   UNL     1      -2.747   9.995  17.817  0.00  0.00    +0.000 A 
ATOM     23  C   UNL     1      -2.648  11.132  17.022  0.00  0.00    +0.000 A 
ATOM     24 CL   UNL     1      -3.826  11.424  15.802  0.00  0.00    +0.000 Cl
ATOM     25  C   UNL     1      -1.602  12.034  17.204  0.00  0.00    +0.000 A 
ATOM     26  C   UNL     1      -0.645  11.799  18.195  0.00  0.00    +0.000 A 
ENDBRANCH   8  20
TORSDOF 2
ENDMDL
