MODEL 1
REMARK VINA RESULT:      -8.3      0.000      0.000
REMARK  Name = 
REMARK  3 active torsions:
REMARK  status: ('A' for Active; 'I' for Inactive)
REMARK    1  A    between atoms: O_1  and  C_2
REMARK    2  A    between atoms: C_5  and  C_6
REMARK    3  A    between atoms: C_7  and  C_8
REMARK                            x       y       z     vdW  Elec       q    Type
REMARK                         _______ _______ _______ _____ _____    ______ ____
ROOT
ATOM      1  C   UNL     1       3.250   5.331  18.725  0.00  0.00    +0.000 A 
ATOM      2  C   UNL     1       4.572   4.943  18.463  0.00  0.00    +0.000 A 
ATOM      3  N   UNL     1       4.680   3.586  18.270  0.00  0.00    +0.000 NA
ATOM      4  C   UNL     1       3.474   3.108  18.459  0.00  0.00    +0.000 A 
ATOM      5  C   UNL     1       2.999   1.764  18.429  0.00  0.00    +0.000 A 
ATOM      6  C   UNL     1       1.702   1.500  18.663  0.00  0.00    +0.000 A 
ATOM      7  C   UNL     1       0.754   2.570  18.919  0.00  0.00    +0.000 A 
ATOM      8  C   UNL     1       1.189   3.842  18.922  0.00  0.00    +0.000 A 
ATOM      9  N   UNL     1       2.549   4.119  18.721  0.00  0.00    +0.000 N 
ENDROOT
BRANCH   1  13
ATOM     10  C   UNL     1       1.367   9.123  19.378  0.00  0.00    +0.000 A 
ATOM     11  C   UNL     1       1.525   8.240  20.437  0.00  0.00    +0.000 A 
ATOM     12  C   UNL     1       2.198   7.031  20.225  0.00  0.00    +0.000 A 
ATOM     13  C   UNL     1       2.656   6.661  18.949  0.00  0.00    +0.000 A 
ATOM     14  C   UNL     1       2.461   7.568  17.897  0.00  0.00    +0.000 A 
ATOM     15  C   UNL     1       1.848   8.807  18.116  0.00  0.00    +0.000 A 
BRANCH  10  16
ATOM     16  O   UNL     1       0.725  10.315  19.535  0.00  0.00    +0.000 OA
ATOM     17  H   UNL     1       1.357  11.032  19.364  0.00  0.00    +0.000 HD
ENDBRANCH  10  16
ENDBRANCH   1  13
BRANCH   2  18
ATOM     18  C   UNL     1       5.740   5.810  18.351  0.00  0.00    +0.000 A 
ATOM     19  C   UNL     1       5.812   6.837  17.398  0.00  0.00    +0.000 A 
ATOM     20  C   UNL     1       6.986   7.574  17.232  0.00  0.00    +0.000 A 
ATOM     21  C   UNL     1       8.085   7.333  18.053  0.00  0.00    +0.000 A 
ATOM     22  C   UNL     1       8.003   6.363  19.051  0.00  0.00    +0.000 A 
ATOM     23  C   UNL     1       6.839   5.605  19.198  0.00  0.00    +0.000 A 
ENDBRANCH   2  18
TORSDOF 3
ENDMDL
MODEL 2
REMARK VINA RESULT:      -8.2      0.175      1.042
REMARK  Name = 
REMARK  3 active torsions:
REMARK  status: ('A' for Active; 'I' for Inactive)
REMARK    1  A    between atoms: O_1  and  C_2
REMARK    2  A    between atoms: C_5  and  C_6
REMARK    3  A    between atoms: C_7  and  C_8
REMARK                            x       y       z     vdW  Elec       q    Type
REMARK                         _______ _______ _______ _____ _____    ______ ____
ROOT
ATOM      1  C   UNL     1       3.341   5.320  18.647  0.00  0.00    +0.000 A 
ATOM      2  C   UNL     1       4.655   4.897  18.404  0.00  0.00    +0.000 A 
ATOM      3  N   UNL     1       4.736   3.531  18.261  0.00  0.00    +0.000 NA
ATOM      4  C   UNL     1       3.521   3.085  18.464  0.00  0.00    +0.000 A 
ATOM      5  C   UNL     1       3.019   1.751  18.482  0.00  0.00    +0.000 A 
ATOM      6  C   UNL     1       1.716   1.522  18.722  0.00  0.00    +0.000 A 
ATOM      7  C   UNL     1       0.789   2.619  18.935  0.00  0.00    +0.000 A 
ATOM      8  C   UNL     1       1.250   3.881  18.891  0.00  0.00    +0.000 A 
ATOM      9  N   UNL     1       2.615   4.123  18.685  0.00  0.00    +0.000 N 
ENDROOT
BRANCH   1  13
ATOM     10  C   UNL     1       1.532   9.172  19.141  0.00  0.00    +0.000 A 
ATOM     11  C   UNL     1       1.603   8.300  20.218  0.00  0.00    +0.000 A 
ATOM     12  C   UNL     1       2.252   7.070  20.061  0.00  0.00    +0.000 A 
ATOM     13  C   UNL     1       2.773   6.669  18.819  0.00  0.00    +0.000 A 
ATOM     14  C   UNL     1       2.665   7.566  17.745  0.00  0.00    +0.000 A 
ATOM     15  C   UNL     1       2.076   8.824  17.913  0.00  0.00    +0.000 A 
BRANCH  10  16
ATOM     16  O   UNL     1       0.916  10.383  19.245  0.00  0.00    +0.000 OA
ATOM     17  H   UNL     1       1.509  11.064  18.888  0.00  0.00    +0.000 HD
ENDBRANCH  10  16
ENDBRANCH   1  13
BRANCH   2  18
ATOM     18  C   UNL     1       5.841   5.735  18.263  0.00  0.00    +0.000 A 
ATOM     19  C   UNL     1       6.950   5.598  19.112  0.00  0.00    +0.000 A 
ATOM     20  C   UNL     1       8.021   6.490  19.034  0.00  0.00    +0.000 A 
ATOM     21  C   UNL     1       8.024   7.496  18.071  0.00  0.00    +0.000 A 
ATOM     22  C   UNL     1       6.961   7.600  17.175  0.00  0.00    +0.000 A 
ATOM     23  C   UNL     1       5.876   6.726  17.272  0.00  0.00    +0.000 A 
ENDBRANCH   2  18
TORSDOF 3
ENDMDL
MODEL 3
REMARK VINA RESULT:      -8.1      2.739      5.334
REMARK  Name = 
REMARK  3 active torsions:
REMARK  status: ('A' for Active; 'I' for Inactive)
REMARK    1  A    between atoms: O_1  and  C_2
REMARK    2  A    between atoms: C_5  and  C_6
REMARK    3  A    between atoms: C_7  and  C_8
REMARK                            x       y       z     vdW  Elec       q    Type
REMARK                         _______ _______ _______ _____ _____    ______ ____
ROOT
ATOM      1  C   UNL     1       3.363   5.539  18.175  0.00  0.00    +0.000 A 
ATOM      2  C   UNL     1       3.218   6.911  17.923  0.00  0.00    +0.000 A 
ATOM      3  N   UNL     1       3.968   7.316  16.844  0.00  0.00    +0.000 NA
ATOM      4  C   UNL     1       4.620   6.250  16.450  0.00  0.00    +0.000 A 
ATOM      5  C   UNL     1       5.575   6.086  15.404  0.00  0.00    +0.000 A 
ATOM      6  C   UNL     1       6.132   4.884  15.179  0.00  0.00    +0.000 A 
ATOM      7  C   UNL     1       5.755   3.724  15.968  0.00  0.00    +0.000 A 
ATOM      8  C   UNL     1       4.836   3.865  16.938  0.00  0.00    +0.000 A 
ATOM      9  N   UNL     1       4.284   5.126  17.205  0.00  0.00    +0.000 N 
ENDROOT
BRANCH   1  13
ATOM     10  C   UNL     1       1.422   3.133  21.140  0.00  0.00    +0.000 A 
ATOM     11  C   UNL     1       0.801   3.358  19.920  0.00  0.00    +0.000 A 
ATOM     12  C   UNL     1       1.472   4.093  18.936  0.00  0.00    +0.000 A 
ATOM     13  C   UNL     1       2.731   4.666  19.181  0.00  0.00    +0.000 A 
ATOM     14  C   UNL     1       3.322   4.436  20.432  0.00  0.00    +0.000 A 
ATOM     15  C   UNL     1       2.685   3.647  21.396  0.00  0.00    +0.000 A 
BRANCH  10  16
ATOM     16  O   UNL     1       0.814   2.418  22.128  0.00  0.00    +0.000 OA
ATOM     17  H   UNL     1      -0.144   2.578  22.083  0.00  0.00    +0.000 HD
ENDBRANCH  10  16
ENDBRANCH   1  13
BRANCH   2  18
ATOM     18  C   UNL     1       2.367   7.855  18.639  0.00  0.00    +0.000 A 
ATOM     19  C   UNL     1       2.056   7.689  19.997  0.00  0.00    +0.000 A 
ATOM     20  C   UNL     1       1.145   8.538  20.629  0.00  0.00    +0.000 A 
ATOM     21  C   UNL     1       0.576   9.598  19.928  0.00  0.00    +0.000 A 
ATOM     22  C   UNL     1       0.931   9.818  18.598  0.00  0.00    +0.000 A 
ATOM     23  C   UNL     1       1.819   8.951  17.957  0.00  0.00    +0.000 A 
ENDBRANCH   2  18
TORSDOF 3
ENDMDL
MODEL 4
REMARK VINA RESULT:      -8.1      0.153      1.037
REMARK  Name = 
REMARK  3 active torsions:
REMARK  status: ('A' for Active; 'I' for Inactive)
REMARK    1  A    between atoms: O_1  and  C_2
REMARK    2  A    between atoms: C_5  and  C_6
REMARK    3  A    between atoms: C_7  and  C_8
REMARK                            x       y       z     vdW  Elec       q    Type
REMARK                         _______ _______ _______ _____ _____    ______ ____
ROOT
ATOM      1  C   UNL     1       3.203   5.278  18.668  0.00  0.00    +0.000 A 
ATOM      2  C   UNL     1       4.536   4.906  18.440  0.00  0.00    +0.000 A 
ATOM      3  N   UNL     1       4.669   3.546  18.286  0.00  0.00    +0.000 NA
ATOM      4  C   UNL     1       3.469   3.053  18.467  0.00  0.00    +0.000 A 
ATOM      5  C   UNL     1       3.017   1.701  18.467  0.00  0.00    +0.000 A 
ATOM      6  C   UNL     1       1.720   1.422  18.685  0.00  0.00    +0.000 A 
ATOM      7  C   UNL     1       0.750   2.482  18.895  0.00  0.00    +0.000 A 
ATOM      8  C   UNL     1       1.164   3.760  18.869  0.00  0.00    +0.000 A 
ATOM      9  N   UNL     1       2.522   4.055  18.685  0.00  0.00    +0.000 N 
ENDROOT
BRANCH   1  13
ATOM     10  C   UNL     1       1.559   9.202  19.174  0.00  0.00    +0.000 A 
ATOM     11  C   UNL     1       1.978   8.786  17.918  0.00  0.00    +0.000 A 
ATOM     12  C   UNL     1       2.455   7.480  17.753  0.00  0.00    +0.000 A 
ATOM     13  C   UNL     1       2.583   6.604  18.844  0.00  0.00    +0.000 A 
ATOM     14  C   UNL     1       2.169   7.063  20.104  0.00  0.00    +0.000 A 
ATOM     15  C   UNL     1       1.630   8.344  20.262  0.00  0.00    +0.000 A 
BRANCH  10  16
ATOM     16  O   UNL     1       1.081  10.460  19.386  0.00  0.00    +0.000 OA
ATOM     17  H   UNL     1       1.141  10.660  20.334  0.00  0.00    +0.000 HD
ENDBRANCH  10  16
ENDBRANCH   1  13
BRANCH   2  18
ATOM     18  C   UNL     1       5.691   5.789  18.325  0.00  0.00    +0.000 A 
ATOM     19  C   UNL     1       5.747   6.815  17.369  0.00  0.00    +0.000 A 
ATOM     20  C   UNL     1       6.911   7.569  17.200  0.00  0.00    +0.000 A 
ATOM     21  C   UNL     1       8.014   7.345  18.019  0.00  0.00    +0.000 A 
ATOM     22  C   UNL     1       7.947   6.377  19.020  0.00  0.00    +0.000 A 
ATOM     23  C   UNL     1       6.794   5.603  19.171  0.00  0.00    +0.000 A 
ENDBRANCH   2  18
TORSDOF 3
ENDMDL
MODEL 5
REMARK VINA RESULT:      -8.1      2.744      5.322
REMARK  Name = 
REMARK  3 active torsions:
REMARK  status: ('A' for Active; 'I' for Inactive)
REMARK    1  A    between atoms: O_1  and  C_2
REMARK    2  A    between atoms: C_5  and  C_6
REMARK    3  A    between atoms: C_7  and  C_8
REMARK                            x       y       z     vdW  Elec       q    Type
REMARK                         _______ _______ _______ _____ _____    ______ ____
ROOT
ATOM      1  C   UNL     1       3.189   5.658  18.310  0.00  0.00    +0.000 A 
ATOM      2  C   UNL     1       3.067   7.023  18.015  0.00  0.00    +0.000 A 
ATOM      3  N   UNL     1       3.853   7.389  16.947  0.00  0.00    +0.000 NA
ATOM      4  C   UNL     1       4.504   6.305  16.603  0.00  0.00    +0.000 A 
ATOM      5  C   UNL     1       5.486   6.101  15.590  0.00  0.00    +0.000 A 
ATOM      6  C   UNL     1       6.035   4.887  15.415  0.00  0.00    +0.000 A 
ATOM      7  C   UNL     1       5.622   3.754  16.225  0.00  0.00    +0.000 A 
ATOM      8  C   UNL     1       4.677   3.933  17.164  0.00  0.00    +0.000 A 
ATOM      9  N   UNL     1       4.132   5.207  17.379  0.00  0.00    +0.000 N 
ENDROOT
BRANCH   1  13
ATOM     10  C   UNL     1       1.370   3.109  21.234  0.00  0.00    +0.000 A 
ATOM     11  C   UNL     1       2.457   3.898  21.586  0.00  0.00    +0.000 A 
ATOM     12  C   UNL     1       3.003   4.772  20.640  0.00  0.00    +0.000 A 
ATOM     13  C   UNL     1       2.519   4.820  19.321  0.00  0.00    +0.000 A 
ATOM     14  C   UNL     1       1.433   3.995  18.993  0.00  0.00    +0.000 A 
ATOM     15  C   UNL     1       0.841   3.167  19.953  0.00  0.00    +0.000 A 
BRANCH  10  16
ATOM     16  O   UNL     1       0.799   2.247  22.120  0.00  0.00    +0.000 OA
ATOM     17  H   UNL     1       0.784   2.666  22.996  0.00  0.00    +0.000 HD
ENDBRANCH  10  16
ENDBRANCH   1  13
BRANCH   2  18
ATOM     18  C   UNL     1       2.208   7.996  18.680  0.00  0.00    +0.000 A 
ATOM     19  C   UNL     1       1.946   7.935  20.057  0.00  0.00    +0.000 A 
ATOM     20  C   UNL     1       1.027   8.805  20.648  0.00  0.00    +0.000 A 
ATOM     21  C   UNL     1       0.399   9.784  19.881  0.00  0.00    +0.000 A 
ATOM     22  C   UNL     1       0.703   9.902  18.526  0.00  0.00    +0.000 A 
ATOM     23  C   UNL     1       1.601   9.013  17.929  0.00  0.00    +0.000 A 
ENDBRANCH   2  18
TORSDOF 3
ENDMDL
MODEL 6
REMARK VINA RESULT:      -8.0      2.722      5.237
REMARK  Name = 
REMARK  3 active torsions:
REMARK  status: ('A' for Active; 'I' for Inactive)
REMARK    1  A    between atoms: O_1  and  C_2
REMARK    2  A    between atoms: C_5  and  C_6
REMARK    3  A    between atoms: C_7  and  C_8
REMARK                            x       y       z     vdW  Elec       q    Type
REMARK                         _______ _______ _______ _____ _____    ______ ____
ROOT
ATOM      1  C   UNL     1       3.388   5.496  18.112  0.00  0.00    +0.000 A 
ATOM      2  C   UNL     1       3.234   6.867  17.862  0.00  0.00    +0.000 A 
ATOM      3  N   UNL     1       4.012   7.286  16.808  0.00  0.00    +0.000 NA
ATOM      4  C   UNL     1       4.688   6.230  16.429  0.00  0.00    +0.000 A 
ATOM      5  C   UNL     1       5.676   6.083  15.411  0.00  0.00    +0.000 A 
ATOM      6  C   UNL     1       6.254   4.888  15.198  0.00  0.00    +0.000 A 
ATOM      7  C   UNL     1       5.868   3.720  15.970  0.00  0.00    +0.000 A 
ATOM      8  C   UNL     1       4.918   3.845  16.913  0.00  0.00    +0.000 A 
ATOM      9  N   UNL     1       4.343   5.098  17.169  0.00  0.00    +0.000 N 
ENDROOT
BRANCH   1  13
ATOM     10  C   UNL     1       1.395   3.055  21.014  0.00  0.00    +0.000 A 
ATOM     11  C   UNL     1       0.777   3.330  19.802  0.00  0.00    +0.000 A 
ATOM     12  C   UNL     1       1.464   4.075  18.837  0.00  0.00    +0.000 A 
ATOM     13  C   UNL     1       2.738   4.610  19.095  0.00  0.00    +0.000 A 
ATOM     14  C   UNL     1       3.325   4.331  20.338  0.00  0.00    +0.000 A 
ATOM     15  C   UNL     1       2.671   3.530  21.280  0.00  0.00    +0.000 A 
BRANCH  10  16
ATOM     16  O   UNL     1       0.771   2.328  21.983  0.00  0.00    +0.000 OA
ATOM     17  H   UNL     1       0.742   2.856  22.797  0.00  0.00    +0.000 HD
ENDBRANCH  10  16
ENDBRANCH   1  13
BRANCH   2  18
ATOM     18  C   UNL     1       2.351   7.797  18.557  0.00  0.00    +0.000 A 
ATOM     19  C   UNL     1       1.781   8.903  17.908  0.00  0.00    +0.000 A 
ATOM     20  C   UNL     1       1.037   9.843  18.623  0.00  0.00    +0.000 A 
ATOM     21  C   UNL     1       0.805   9.662  19.984  0.00  0.00    +0.000 A 
ATOM     22  C   UNL     1       1.306   8.531  20.627  0.00  0.00    +0.000 A 
ATOM     23  C   UNL     1       2.075   7.605  19.918  0.00  0.00    +0.000 A 
ENDBRANCH   2  18
TORSDOF 3
ENDMDL
MODEL 7
REMARK VINA RESULT:      -8.0      1.911      4.501
REMARK  Name = 
REMARK  3 active torsions:
REMARK  status: ('A' for Active; 'I' for Inactive)
REMARK    1  A    between atoms: O_1  and  C_2
REMARK    2  A    between atoms: C_5  and  C_6
REMARK    3  A    between atoms: C_7  and  C_8
REMARK                            x       y       z     vdW  Elec       q    Type
REMARK                         _______ _______ _______ _____ _____    ______ ____
ROOT
ATOM      1  C   UNL     1       3.659   5.442  17.820  0.00  0.00    +0.000 A 
ATOM      2  C   UNL     1       3.563   4.103  18.228  0.00  0.00    +0.000 A 
ATOM      3  N   UNL     1       4.398   3.285  17.504  0.00  0.00    +0.000 NA
ATOM      4  C   UNL     1       4.970   4.064  16.619  0.00  0.00    +0.000 A 
ATOM      5  C   UNL     1       5.897   3.755  15.579  0.00  0.00    +0.000 A 
ATOM      6  C   UNL     1       6.355   4.726  14.771  0.00  0.00    +0.000 A 
ATOM      7  C   UNL     1       5.946   6.108  14.953  0.00  0.00    +0.000 A 
ATOM      8  C   UNL     1       5.095   6.411  15.948  0.00  0.00    +0.000 A 
ATOM      9  N   UNL     1       4.581   5.395  16.767  0.00  0.00    +0.000 N 
ENDROOT
BRANCH   1  13
ATOM     10  C   UNL     1       1.593   8.897  19.284  0.00  0.00    +0.000 A 
ATOM     11  C   UNL     1       1.854   7.835  20.138  0.00  0.00    +0.000 A 
ATOM     12  C   UNL     1       2.584   6.739  19.665  0.00  0.00    +0.000 A 
ATOM     13  C   UNL     1       3.000   6.659  18.326  0.00  0.00    +0.000 A 
ATOM     14  C   UNL     1       2.702   7.741  17.483  0.00  0.00    +0.000 A 
ATOM     15  C   UNL     1       2.030   8.868  17.967  0.00  0.00    +0.000 A 
BRANCH  10  16
ATOM     16  O   UNL     1       0.892   9.989  19.698  0.00  0.00    +0.000 OA
ATOM     17  H   UNL     1       1.371  10.406  20.433  0.00  0.00    +0.000 HD
ENDBRANCH  10  16
ENDBRANCH   1  13
BRANCH   2  18
ATOM     18  C   UNL     1       2.738   3.566  19.304  0.00  0.00    +0.000 A 
ATOM     19  C   UNL     1       1.340   3.495  19.201  0.00  0.00    +0.000 A 
ATOM     20  C   UNL     1       0.565   3.089  20.289  0.00  0.00    +0.000 A 
ATOM     21  C   UNL     1       1.178   2.694  21.476  0.00  0.00    +0.000 A 
ATOM     22  C   UNL     1       2.569   2.692  21.568  0.00  0.00    +0.000 A 
ATOM     23  C   UNL     1       3.344   3.126  20.490  0.00  0.00    +0.000 A 
ENDBRANCH   2  18
TORSDOF 3
ENDMDL
MODEL 8
REMARK VINA RESULT:      -8.0      2.741      5.216
REMARK  Name = 
REMARK  3 active torsions:
REMARK  status: ('A' for Active; 'I' for Inactive)
REMARK    1  A    between atoms: O_1  and  C_2
REMARK    2  A    between atoms: C_5  and  C_6
REMARK    3  A    between atoms: C_7  and  C_8
REMARK                            x       y       z     vdW  Elec       q    Type
REMARK                         _______ _______ _______ _____ _____    ______ ____
ROOT
ATOM      1  C   UNL     1       3.179   5.658  18.316  0.00  0.00    +0.000 A 
ATOM      2  C   UNL     1       3.042   7.020  18.016  0.00  0.00    +0.000 A 
ATOM      3  N   UNL     1       3.829   7.392  16.951  0.00  0.00    +0.000 NA
ATOM      4  C   UNL     1       4.496   6.315  16.615  0.00  0.00    +0.000 A 
ATOM      5  C   UNL     1       5.487   6.119  15.609  0.00  0.00    +0.000 A 
ATOM      6  C   UNL     1       6.052   4.911  15.442  0.00  0.00    +0.000 A 
ATOM      7  C   UNL     1       5.649   3.777  16.254  0.00  0.00    +0.000 A 
ATOM      8  C   UNL     1       4.696   3.947  17.187  0.00  0.00    +0.000 A 
ATOM      9  N   UNL     1       4.134   5.215  17.393  0.00  0.00    +0.000 N 
ENDROOT
BRANCH   1  13
ATOM     10  C   UNL     1       1.372   3.097  21.237  0.00  0.00    +0.000 A 
ATOM     11  C   UNL     1       2.460   3.885  21.588  0.00  0.00    +0.000 A 
ATOM     12  C   UNL     1       3.002   4.764  20.644  0.00  0.00    +0.000 A 
ATOM     13  C   UNL     1       2.513   4.816  19.327  0.00  0.00    +0.000 A 
ATOM     14  C   UNL     1       1.427   3.991  19.000  0.00  0.00    +0.000 A 
ATOM     15  C   UNL     1       0.838   3.159  19.959  0.00  0.00    +0.000 A 
BRANCH  10  16
ATOM     16  O   UNL     1       0.805   2.231  22.123  0.00  0.00    +0.000 OA
ATOM     17  H   UNL     1      -0.151   2.198  21.956  0.00  0.00    +0.000 HD
ENDBRANCH  10  16
ENDBRANCH   1  13
BRANCH   2  18
ATOM     18  C   UNL     1       2.166   7.985  18.671  0.00  0.00    +0.000 A 
ATOM     19  C   UNL     1       1.592   9.058  17.974  0.00  0.00    +0.000 A 
ATOM     20  C   UNL     1       0.855  10.034  18.648  0.00  0.00    +0.000 A 
ATOM     21  C   UNL     1       0.635   9.922  20.018  0.00  0.00    +0.000 A 
ATOM     22  C   UNL     1       1.141   8.823  20.712  0.00  0.00    +0.000 A 
ATOM     23  C   UNL     1       1.902   7.862  20.043  0.00  0.00    +0.000 A 
ENDBRANCH   2  18
TORSDOF 3
ENDMDL
MODEL 9
REMARK VINA RESULT:      -7.9      0.272      1.476
REMARK  Name = 
REMARK  3 active torsions:
REMARK  status: ('A' for Active; 'I' for Inactive)
REMARK    1  A    between atoms: O_1  and  C_2
REMARK    2  A    between atoms: C_5  and  C_6
REMARK    3  A    between atoms: C_7  and  C_8
REMARK                            x       y       z     vdW  Elec       q    Type
REMARK                         _______ _______ _______ _____ _____    ______ ____
ROOT
ATOM      1  C   UNL     1       3.293   5.280  18.585  0.00  0.00    +0.000 A 
ATOM      2  C   UNL     1       4.619   4.884  18.359  0.00  0.00    +0.000 A 
ATOM      3  N   UNL     1       4.733   3.518  18.239  0.00  0.00    +0.000 NA
ATOM      4  C   UNL     1       3.527   3.047  18.440  0.00  0.00    +0.000 A 
ATOM      5  C   UNL     1       3.056   1.702  18.477  0.00  0.00    +0.000 A 
ATOM      6  C   UNL     1       1.757   1.446  18.711  0.00  0.00    +0.000 A 
ATOM      7  C   UNL     1       0.803   2.525  18.899  0.00  0.00    +0.000 A 
ATOM      8  C   UNL     1       1.235   3.797  18.839  0.00  0.00    +0.000 A 
ATOM      9  N   UNL     1       2.596   4.068  18.638  0.00  0.00    +0.000 N 
ENDROOT
BRANCH   1  13
ATOM     10  C   UNL     1       1.708   9.237  19.012  0.00  0.00    +0.000 A 
ATOM     11  C   UNL     1       2.173   8.809  17.776  0.00  0.00    +0.000 A 
ATOM     12  C   UNL     1       2.630   7.494  17.634  0.00  0.00    +0.000 A 
ATOM     13  C   UNL     1       2.693   6.618  18.732  0.00  0.00    +0.000 A 
ATOM     14  C   UNL     1       2.234   7.089  19.971  0.00  0.00    +0.000 A 
ATOM     15  C   UNL     1       1.714   8.381  20.104  0.00  0.00    +0.000 A 
BRANCH  10  16
ATOM     16  O   UNL     1       1.246  10.505  19.199  0.00  0.00    +0.000 OA
ATOM     17  H   UNL     1       1.412  11.019  18.392  0.00  0.00    +0.000 HD
ENDBRANCH  10  16
ENDBRANCH   1  13
BRANCH   2  18
ATOM     18  C   UNL     1       5.786   5.747  18.213  0.00  0.00    +0.000 A 
ATOM     19  C   UNL     1       6.913   5.615  19.038  0.00  0.00    +0.000 A 
ATOM     20  C   UNL     1       7.966   6.529  18.958  0.00  0.00    +0.000 A 
ATOM     21  C   UNL     1       7.932   7.553  18.015  0.00  0.00    +0.000 A 
ATOM     22  C   UNL     1       6.851   7.654  17.142  0.00  0.00    +0.000 A 
ATOM     23  C   UNL     1       5.784   6.758  17.241  0.00  0.00    +0.000 A 
ENDBRANCH   2  18
TORSDOF 3
ENDMDL
