MODEL 1
REMARK VINA RESULT:      -7.8      0.000      0.000
REMARK  Name = 
REMARK  12 active torsions:
REMARK  status: ('A' for Active; 'I' for Inactive)
REMARK    1  A    between atoms: C_2  and  C_3
REMARK    2  A    between atoms: C_3  and  O_4
REMARK    3  A    between atoms: O_4  and  C_5
REMARK    4  A    between atoms: C_8  and  C_9
REMARK    5  A    between atoms: C_10  and  C_11
REMARK    6  A    between atoms: C_11  and  O_13
REMARK    7  A    between atoms: O_13  and  C_14
REMARK    8  A    between atoms: C_14  and  C_15
REMARK    9  A    between atoms: N_17  and  C_18
REMARK   10  A    between atoms: N_17  and  C_19
REMARK   11  A    between atoms: C_19  and  C_20
REMARK   12  A    between atoms: N_22  and  C_23
REMARK                            x       y       z     vdW  Elec       q    Type
REMARK                         _______ _______ _______ _____ _____    ______ ____
ROOT
ATOM      1  C   UNL     1       7.501   5.295  18.125  0.00  0.00    +0.000 C 
ENDROOT
BRANCH   1   2
ATOM      2  C   UNL     1       6.168   4.896  18.779  0.00  0.00    +0.000 C 
ATOM      3  O   UNL     1       5.954   5.073  19.981  0.00  0.00    +0.000 OA
ATOM      4  N   UNL     1       5.194   4.347  17.953  0.00  0.00    +0.000 N 
ATOM      5  C   UNL     1       5.271   4.271  16.498  0.00  0.00    +0.000 C 
BRANCH   4   6
ATOM      6  C   UNL     1       3.944   3.896  18.567  0.00  0.00    +0.000 C 
BRANCH   6   7
ATOM      7  C   UNL     1       2.844   4.961  18.538  0.00  0.00    +0.000 C 
ATOM      8  O   UNL     1       1.685   4.637  18.282  0.00  0.00    +0.000 OA
ATOM      9  N   UNL     1       3.296   6.256  18.744  0.00  0.00    +0.000 N 
ATOM     10  H   UNL     1       4.296   6.407  18.631  0.00  0.00    +0.000 HD
BRANCH   9  11
ATOM     11  C   UNL     1       2.478   7.395  18.935  0.00  0.00    +0.000 A 
ATOM     12  C   UNL     1       1.877   7.699  20.164  0.00  0.00    +0.000 A 
ATOM     13  C   UNL     1       1.065   8.831  20.306  0.00  0.00    +0.000 A 
ATOM     14  C   UNL     1       0.861   9.669  19.223  0.00  0.00    +0.000 A 
ATOM     15  F   UNL     1       0.070  10.741  19.356  0.00  0.00    +0.000 F 
ATOM     16  C   UNL     1       1.468   9.403  18.001  0.00  0.00    +0.000 A 
ATOM     17  C   UNL     1       2.285   8.272  17.859  0.00  0.00    +0.000 A 
ENDBRANCH   9  11
ENDBRANCH   6   7
ENDBRANCH   4   6
ENDBRANCH   1   2
BRANCH   1  18
ATOM     18  O   UNL     1       7.887   6.647  18.368  0.00  0.00    +0.000 OA
BRANCH  18  19
ATOM     19  C   UNL     1       7.400   7.537  17.471  0.00  0.00    +0.000 C 
ATOM     20  O   UNL     1       6.706   7.289  16.500  0.00  0.00    +0.000 OA
BRANCH  19  22
ATOM     21  C   UNL     1       8.950   9.033  18.627  0.00  0.00    +0.000 C 
ATOM     22  C   UNL     1       7.832   8.887  17.900  0.00  0.00    +0.000 C 
BRANCH  21  26
ATOM     23  C   UNL     1      10.327  12.833  20.050  0.00  0.00    +0.000 A 
ATOM     24  C   UNL     1      10.517  12.444  18.724  0.00  0.00    +0.000 A 
ATOM     25  C   UNL     1      10.053  11.202  18.284  0.00  0.00    +0.000 A 
ATOM     26  C   UNL     1       9.430  10.313  19.166  0.00  0.00    +0.000 A 
ATOM     27  C   UNL     1       9.264  10.699  20.502  0.00  0.00    +0.000 A 
ATOM     28  C   UNL     1       9.723  11.948  20.941  0.00  0.00    +0.000 A 
BRANCH  23  29
ATOM     29  O   UNL     1      10.691  14.051  20.563  0.00  0.00    +0.000 OA
BRANCH  29  30
ATOM     30  C   UNL     1      10.564  15.142  19.650  0.00  0.00    +0.000 C 
BRANCH  30  32
ATOM     31  C   UNL     1       8.180  15.530  18.992  0.00  0.00    +0.000 C 
ATOM     32  C   UNL     1       9.207  15.752  19.824  0.00  0.00    +0.000 C 
ENDBRANCH  30  32
ENDBRANCH  29  30
ENDBRANCH  23  29
ENDBRANCH  21  26
ENDBRANCH  19  22
ENDBRANCH  18  19
ENDBRANCH   1  18
TORSDOF 11
ENDMDL
MODEL 2
REMARK VINA RESULT:      -7.1      1.351      1.921
REMARK  Name = 
REMARK  12 active torsions:
REMARK  status: ('A' for Active; 'I' for Inactive)
REMARK    1  A    between atoms: C_2  and  C_3
REMARK    2  A    between atoms: C_3  and  O_4
REMARK    3  A    between atoms: O_4  and  C_5
REMARK    4  A    between atoms: C_8  and  C_9
REMARK    5  A    between atoms: C_10  and  C_11
REMARK    6  A    between atoms: C_11  and  O_13
REMARK    7  A    between atoms: O_13  and  C_14
REMARK    8  A    between atoms: C_14  and  C_15
REMARK    9  A    between atoms: N_17  and  C_18
REMARK   10  A    between atoms: N_17  and  C_19
REMARK   11  A    between atoms: C_19  and  C_20
REMARK   12  A    between atoms: N_22  and  C_23
REMARK                            x       y       z     vdW  Elec       q    Type
REMARK                         _______ _______ _______ _____ _____    ______ ____
ROOT
ATOM      1  C   UNL     1       7.022   6.456  16.589  0.00  0.00    +0.000 C 
ENDROOT
BRANCH   1   2
ATOM      2  C   UNL     1       5.662   5.761  16.414  0.00  0.00    +0.000 C 
ATOM      3  O   UNL     1       5.022   5.838  15.362  0.00  0.00    +0.000 OA
ATOM      4  N   UNL     1       5.187   5.014  17.486  0.00  0.00    +0.000 N 
ATOM      5  C   UNL     1       5.943   4.701  18.693  0.00  0.00    +0.000 C 
BRANCH   4   6
ATOM      6  C   UNL     1       3.863   4.402  17.365  0.00  0.00    +0.000 C 
BRANCH   6   7
ATOM      7  C   UNL     1       2.733   5.319  17.843  0.00  0.00    +0.000 C 
ATOM      8  O   UNL     1       1.583   4.888  17.915  0.00  0.00    +0.000 OA
ATOM      9  N   UNL     1       3.125   6.626  18.093  0.00  0.00    +0.000 N 
ATOM     10  H   UNL     1       4.019   6.911  17.698  0.00  0.00    +0.000 HD
BRANCH   9  11
ATOM     11  C   UNL     1       2.328   7.626  18.701  0.00  0.00    +0.000 A 
ATOM     12  C   UNL     1       1.982   7.597  20.058  0.00  0.00    +0.000 A 
ATOM     13  C   UNL     1       1.181   8.601  20.617  0.00  0.00    +0.000 A 
ATOM     14  C   UNL     1       0.733   9.642  19.822  0.00  0.00    +0.000 A 
ATOM     15  F   UNL     1      -0.047  10.592  20.354  0.00  0.00    +0.000 F 
ATOM     16  C   UNL     1       1.085   9.706  18.479  0.00  0.00    +0.000 A 
ATOM     17  C   UNL     1       1.891   8.704  17.920  0.00  0.00    +0.000 A 
ENDBRANCH   9  11
ENDBRANCH   6   7
ENDBRANCH   4   6
ENDBRANCH   1   2
BRANCH   1  18
ATOM     18  O   UNL     1       6.965   7.671  17.336  0.00  0.00    +0.000 OA
BRANCH  18  19
ATOM     19  C   UNL     1       8.007   7.859  18.179  0.00  0.00    +0.000 C 
ATOM     20  O   UNL     1       8.450   7.055  18.982  0.00  0.00    +0.000 OA
BRANCH  19  22
ATOM     21  C   UNL     1       9.136   9.895  18.923  0.00  0.00    +0.000 C 
ATOM     22  C   UNL     1       8.547   9.215  17.929  0.00  0.00    +0.000 C 
BRANCH  21  26
ATOM     23  C   UNL     1      10.756  13.846  18.565  0.00  0.00    +0.000 A 
ATOM     24  C   UNL     1      11.491  12.811  19.144  0.00  0.00    +0.000 A 
ATOM     25  C   UNL     1      10.942  11.530  19.243  0.00  0.00    +0.000 A 
ATOM     26  C   UNL     1       9.639  11.270  18.805  0.00  0.00    +0.000 A 
ATOM     27  C   UNL     1       8.897  12.319  18.247  0.00  0.00    +0.000 A 
ATOM     28  C   UNL     1       9.450  13.602  18.141  0.00  0.00    +0.000 A 
BRANCH  23  29
ATOM     29  O   UNL     1      11.225  15.118  18.369  0.00  0.00    +0.000 OA
BRANCH  29  30
ATOM     30  C   UNL     1      11.904  15.681  19.493  0.00  0.00    +0.000 C 
BRANCH  30  32
ATOM     31  C   UNL     1      11.085  16.306  21.773  0.00  0.00    +0.000 C 
ATOM     32  C   UNL     1      10.882  16.206  20.453  0.00  0.00    +0.000 C 
ENDBRANCH  30  32
ENDBRANCH  29  30
ENDBRANCH  23  29
ENDBRANCH  21  26
ENDBRANCH  19  22
ENDBRANCH  18  19
ENDBRANCH   1  18
TORSDOF 11
ENDMDL
MODEL 3
REMARK VINA RESULT:      -7.0      4.244      7.149
REMARK  Name = 
REMARK  12 active torsions:
REMARK  status: ('A' for Active; 'I' for Inactive)
REMARK    1  A    between atoms: C_2  and  C_3
REMARK    2  A    between atoms: C_3  and  O_4
REMARK    3  A    between atoms: O_4  and  C_5
REMARK    4  A    between atoms: C_8  and  C_9
REMARK    5  A    between atoms: C_10  and  C_11
REMARK    6  A    between atoms: C_11  and  O_13
REMARK    7  A    between atoms: O_13  and  C_14
REMARK    8  A    between atoms: C_14  and  C_15
REMARK    9  A    between atoms: N_17  and  C_18
REMARK   10  A    between atoms: N_17  and  C_19
REMARK   11  A    between atoms: C_19  and  C_20
REMARK   12  A    between atoms: N_22  and  C_23
REMARK                            x       y       z     vdW  Elec       q    Type
REMARK                         _______ _______ _______ _____ _____    ______ ____
ROOT
ATOM      1  C   UNL     1       0.859   2.309  19.274  0.00  0.00    +0.000 C 
ENDROOT
BRANCH   1   2
ATOM      2  C   UNL     1       2.286   2.186  18.714  0.00  0.00    +0.000 C 
ATOM      3  O   UNL     1       3.040   1.270  19.051  0.00  0.00    +0.000 OA
ATOM      4  N   UNL     1       2.689   3.139  17.786  0.00  0.00    +0.000 N 
ATOM      5  C   UNL     1       1.820   4.142  17.180  0.00  0.00    +0.000 C 
BRANCH   4   6
ATOM      6  C   UNL     1       4.066   3.081  17.293  0.00  0.00    +0.000 C 
BRANCH   6   7
ATOM      7  C   UNL     1       5.016   4.006  18.060  0.00  0.00    +0.000 C 
ATOM      8  O   UNL     1       5.324   3.740  19.221  0.00  0.00    +0.000 OA
ATOM      9  N   UNL     1       5.399   5.140  17.360  0.00  0.00    +0.000 N 
ATOM     10  H   UNL     1       4.832   5.382  16.550  0.00  0.00    +0.000 HD
BRANCH   9  11
ATOM     11  C   UNL     1       6.393   6.063  17.763  0.00  0.00    +0.000 A 
ATOM     12  C   UNL     1       7.333   5.776  18.763  0.00  0.00    +0.000 A 
ATOM     13  C   UNL     1       8.293   6.723  19.140  0.00  0.00    +0.000 A 
ATOM     14  C   UNL     1       8.324   7.956  18.511  0.00  0.00    +0.000 A 
ATOM     15  F   UNL     1       9.232   8.867  18.885  0.00  0.00    +0.000 F 
ATOM     16  C   UNL     1       7.419   8.255  17.499  0.00  0.00    +0.000 A 
ATOM     17  C   UNL     1       6.460   7.305  17.117  0.00  0.00    +0.000 A 
ENDBRANCH   9  11
ENDBRANCH   6   7
ENDBRANCH   4   6
ENDBRANCH   1   2
BRANCH   1  18
ATOM     18  O   UNL     1       0.803   2.620  20.666  0.00  0.00    +0.000 OA
BRANCH  18  19
ATOM     19  C   UNL     1       1.724   3.525  21.073  0.00  0.00    +0.000 C 
ATOM     20  O   UNL     1       2.725   3.301  21.733  0.00  0.00    +0.000 OA
BRANCH  19  22
ATOM     21  C   UNL     1       2.245   5.792  20.323  0.00  0.00    +0.000 C 
ATOM     22  C   UNL     1       1.320   4.847  20.542  0.00  0.00    +0.000 C 
BRANCH  21  26
ATOM     23  C   UNL     1       1.370   9.717  18.843  0.00  0.00    +0.000 A 
ATOM     24  C   UNL     1       2.084   8.797  18.076  0.00  0.00    +0.000 A 
ATOM     25  C   UNL     1       2.351   7.521  18.579  0.00  0.00    +0.000 A 
ATOM     26  C   UNL     1       1.947   7.157  19.868  0.00  0.00    +0.000 A 
ATOM     27  C   UNL     1       1.252   8.095  20.643  0.00  0.00    +0.000 A 
ATOM     28  C   UNL     1       0.978   9.372  20.135  0.00  0.00    +0.000 A 
BRANCH  23  29
ATOM     29  O   UNL     1       1.008  10.969  18.418  0.00  0.00    +0.000 OA
BRANCH  29  30
ATOM     30  C   UNL     1       1.676  12.040  19.087  0.00  0.00    +0.000 C 
BRANCH  30  32
ATOM     31  C   UNL     1       0.836  14.397  19.040  0.00  0.00    +0.000 C 
ATOM     32  C   UNL     1       0.675  13.113  19.386  0.00  0.00    +0.000 C 
ENDBRANCH  30  32
ENDBRANCH  29  30
ENDBRANCH  23  29
ENDBRANCH  21  26
ENDBRANCH  19  22
ENDBRANCH  18  19
ENDBRANCH   1  18
TORSDOF 11
ENDMDL
MODEL 4
REMARK VINA RESULT:      -7.0      1.210      1.255
REMARK  Name = 
REMARK  12 active torsions:
REMARK  status: ('A' for Active; 'I' for Inactive)
REMARK    1  A    between atoms: C_2  and  C_3
REMARK    2  A    between atoms: C_3  and  O_4
REMARK    3  A    between atoms: O_4  and  C_5
REMARK    4  A    between atoms: C_8  and  C_9
REMARK    5  A    between atoms: C_10  and  C_11
REMARK    6  A    between atoms: C_11  and  O_13
REMARK    7  A    between atoms: O_13  and  C_14
REMARK    8  A    between atoms: C_14  and  C_15
REMARK    9  A    between atoms: N_17  and  C_18
REMARK   10  A    between atoms: N_17  and  C_19
REMARK   11  A    between atoms: C_19  and  C_20
REMARK   12  A    between atoms: N_22  and  C_23
REMARK                            x       y       z     vdW  Elec       q    Type
REMARK                         _______ _______ _______ _____ _____    ______ ____
ROOT
ATOM      1  C   UNL     1       7.695   5.081  17.203  0.00  0.00    +0.000 C 
ENDROOT
BRANCH   1   2
ATOM      2  C   UNL     1       6.496   4.651  18.063  0.00  0.00    +0.000 C 
ATOM      3  O   UNL     1       6.511   4.744  19.294  0.00  0.00    +0.000 OA
ATOM      4  N   UNL     1       5.373   4.175  17.396  0.00  0.00    +0.000 N 
ATOM      5  C   UNL     1       5.179   4.204  15.951  0.00  0.00    +0.000 C 
BRANCH   4   6
ATOM      6  C   UNL     1       4.247   3.695  18.199  0.00  0.00    +0.000 C 
BRANCH   6   7
ATOM      7  C   UNL     1       3.516   4.821  18.938  0.00  0.00    +0.000 C 
ATOM      8  O   UNL     1       3.370   4.757  20.158  0.00  0.00    +0.000 OA
ATOM      9  N   UNL     1       3.009   5.812  18.112  0.00  0.00    +0.000 N 
ATOM     10  H   UNL     1       2.932   5.579  17.124  0.00  0.00    +0.000 HD
BRANCH   9  11
ATOM     11  C   UNL     1       2.447   7.038  18.542  0.00  0.00    +0.000 A 
ATOM     12  C   UNL     1       2.035   7.260  19.863  0.00  0.00    +0.000 A 
ATOM     13  C   UNL     1       1.473   8.485  20.244  0.00  0.00    +0.000 A 
ATOM     14  C   UNL     1       1.331   9.495  19.308  0.00  0.00    +0.000 A 
ATOM     15  F   UNL     1       0.777  10.660  19.670  0.00  0.00    +0.000 F 
ATOM     16  C   UNL     1       1.756   9.308  17.998  0.00  0.00    +0.000 A 
ATOM     17  C   UNL     1       2.324   8.083  17.616  0.00  0.00    +0.000 A 
ENDBRANCH   9  11
ENDBRANCH   6   7
ENDBRANCH   4   6
ENDBRANCH   1   2
BRANCH   1  18
ATOM     18  O   UNL     1       7.509   6.321  16.521  0.00  0.00    +0.000 OA
BRANCH  18  19
ATOM     19  C   UNL     1       6.862   7.265  17.244  0.00  0.00    +0.000 C 
ATOM     20  O   UNL     1       5.655   7.386  17.370  0.00  0.00    +0.000 OA
BRANCH  19  22
ATOM     21  C   UNL     1       7.791   9.450  17.824  0.00  0.00    +0.000 C 
ATOM     22  C   UNL     1       7.887   8.114  17.892  0.00  0.00    +0.000 C 
BRANCH  21  26
ATOM     23  C   UNL     1      10.612  12.297  19.339  0.00  0.00    +0.000 A 
ATOM     24  C   UNL     1       9.926  12.522  18.145  0.00  0.00    +0.000 A 
ATOM     25  C   UNL     1       9.007  11.580  17.676  0.00  0.00    +0.000 A 
ATOM     26  C   UNL     1       8.787  10.383  18.366  0.00  0.00    +0.000 A 
ATOM     27  C   UNL     1       9.498  10.152  19.551  0.00  0.00    +0.000 A 
ATOM     28  C   UNL     1      10.414  11.100  20.026  0.00  0.00    +0.000 A 
BRANCH  23  29
ATOM     29  O   UNL     1      11.488  13.182  19.912  0.00  0.00    +0.000 OA
BRANCH  29  30
ATOM     30  C   UNL     1      11.299  14.542  19.519  0.00  0.00    +0.000 C 
BRANCH  30  32
ATOM     31  C   UNL     1      10.271  14.954  21.763  0.00  0.00    +0.000 C 
ATOM     32  C   UNL     1      11.042  15.362  20.746  0.00  0.00    +0.000 C 
ENDBRANCH  30  32
ENDBRANCH  29  30
ENDBRANCH  23  29
ENDBRANCH  21  26
ENDBRANCH  19  22
ENDBRANCH  18  19
ENDBRANCH   1  18
TORSDOF 11
ENDMDL
MODEL 5
REMARK VINA RESULT:      -6.8      4.577      7.644
REMARK  Name = 
REMARK  12 active torsions:
REMARK  status: ('A' for Active; 'I' for Inactive)
REMARK    1  A    between atoms: C_2  and  C_3
REMARK    2  A    between atoms: C_3  and  O_4
REMARK    3  A    between atoms: O_4  and  C_5
REMARK    4  A    between atoms: C_8  and  C_9
REMARK    5  A    between atoms: C_10  and  C_11
REMARK    6  A    between atoms: C_11  and  O_13
REMARK    7  A    between atoms: O_13  and  C_14
REMARK    8  A    between atoms: C_14  and  C_15
REMARK    9  A    between atoms: N_17  and  C_18
REMARK   10  A    between atoms: N_17  and  C_19
REMARK   11  A    between atoms: C_19  and  C_20
REMARK   12  A    between atoms: N_22  and  C_23
REMARK                            x       y       z     vdW  Elec       q    Type
REMARK                         _______ _______ _______ _____ _____    ______ ____
ROOT
ATOM      1  C   UNL     1       0.956   3.099  19.910  0.00  0.00    +0.000 C 
ENDROOT
BRANCH   1   2
ATOM      2  C   UNL     1       2.058   2.482  19.034  0.00  0.00    +0.000 C 
ATOM      3  O   UNL     1       2.590   1.405  19.319  0.00  0.00    +0.000 OA
ATOM      4  N   UNL     1       2.419   3.174  17.883  0.00  0.00    +0.000 N 
ATOM      5  C   UNL     1       1.728   4.345  17.356  0.00  0.00    +0.000 C 
BRANCH   4   6
ATOM      6  C   UNL     1       3.514   2.640  17.073  0.00  0.00    +0.000 C 
BRANCH   6   7
ATOM      7  C   UNL     1       4.630   3.660  16.825  0.00  0.00    +0.000 C 
ATOM      8  O   UNL     1       5.067   3.825  15.688  0.00  0.00    +0.000 OA
ATOM      9  N   UNL     1       5.105   4.277  17.973  0.00  0.00    +0.000 N 
ATOM     10  H   UNL     1       4.875   3.824  18.856  0.00  0.00    +0.000 HD
BRANCH   9  11
ATOM     11  C   UNL     1       6.004   5.370  18.012  0.00  0.00    +0.000 A 
ATOM     12  C   UNL     1       7.152   5.379  18.815  0.00  0.00    +0.000 A 
ATOM     13  C   UNL     1       8.008   6.487  18.832  0.00  0.00    +0.000 A 
ATOM     14  C   UNL     1       7.725   7.585  18.037  0.00  0.00    +0.000 A 
ATOM     15  F   UNL     1       8.535   8.651  18.067  0.00  0.00    +0.000 F 
ATOM     16  C   UNL     1       6.606   7.589  17.212  0.00  0.00    +0.000 A 
ATOM     17  C   UNL     1       5.750   6.477  17.191  0.00  0.00    +0.000 A 
ENDBRANCH   9  11
ENDBRANCH   6   7
ENDBRANCH   4   6
ENDBRANCH   1   2
BRANCH   1  18
ATOM     18  O   UNL     1       1.444   3.812  21.045  0.00  0.00    +0.000 OA
BRANCH  18  19
ATOM     19  C   UNL     1       2.287   4.828  20.747  0.00  0.00    +0.000 C 
ATOM     20  O   UNL     1       3.494   4.754  20.595  0.00  0.00    +0.000 OA
BRANCH  19  22
ATOM     21  C   UNL     1       2.043   7.189  20.162  0.00  0.00    +0.000 C 
ATOM     22  C   UNL     1       1.473   6.057  20.600  0.00  0.00    +0.000 C 
BRANCH  21  26
ATOM     23  C   UNL     1       0.004  10.925  19.670  0.00  0.00    +0.000 A 
ATOM     24  C   UNL     1       0.809  10.401  18.658  0.00  0.00    +0.000 A 
ATOM     25  C   UNL     1       1.458   9.177  18.842  0.00  0.00    +0.000 A 
ATOM     26  C   UNL     1       1.348   8.478  20.049  0.00  0.00    +0.000 A 
ATOM     27  C   UNL     1       0.559   9.023  21.070  0.00  0.00    +0.000 A 
ATOM     28  C   UNL     1      -0.099  10.246  20.883  0.00  0.00    +0.000 A 
BRANCH  23  29
ATOM     29  O   UNL     1      -0.719  12.085  19.565  0.00  0.00    +0.000 OA
BRANCH  29  30
ATOM     30  C   UNL     1      -1.151  12.398  18.239  0.00  0.00    +0.000 C 
BRANCH  30  32
ATOM     31  C   UNL     1      -3.524  11.822  18.785  0.00  0.00    +0.000 C 
ATOM     32  C   UNL     1      -2.454  11.706  17.987  0.00  0.00    +0.000 C 
ENDBRANCH  30  32
ENDBRANCH  29  30
ENDBRANCH  23  29
ENDBRANCH  21  26
ENDBRANCH  19  22
ENDBRANCH  18  19
ENDBRANCH   1  18
TORSDOF 11
ENDMDL
MODEL 6
REMARK VINA RESULT:      -6.8      3.029      3.508
REMARK  Name = 
REMARK  12 active torsions:
REMARK  status: ('A' for Active; 'I' for Inactive)
REMARK    1  A    between atoms: C_2  and  C_3
REMARK    2  A    between atoms: C_3  and  O_4
REMARK    3  A    between atoms: O_4  and  C_5
REMARK    4  A    between atoms: C_8  and  C_9
REMARK    5  A    between atoms: C_10  and  C_11
REMARK    6  A    between atoms: C_11  and  O_13
REMARK    7  A    between atoms: O_13  and  C_14
REMARK    8  A    between atoms: C_14  and  C_15
REMARK    9  A    between atoms: N_17  and  C_18
REMARK   10  A    between atoms: N_17  and  C_19
REMARK   11  A    between atoms: C_19  and  C_20
REMARK   12  A    between atoms: N_22  and  C_23
REMARK                            x       y       z     vdW  Elec       q    Type
REMARK                         _______ _______ _______ _____ _____    ______ ____
ROOT
ATOM      1  C   UNL     1       7.883   5.780  18.280  0.00  0.00    +0.000 C 
ENDROOT
BRANCH   1   2
ATOM      2  C   UNL     1       6.413   5.570  17.878  0.00  0.00    +0.000 C 
ATOM      3  O   UNL     1       5.482   5.917  18.610  0.00  0.00    +0.000 OA
ATOM      4  N   UNL     1       6.170   4.994  16.637  0.00  0.00    +0.000 N 
ATOM      5  C   UNL     1       7.182   4.726  15.621  0.00  0.00    +0.000 C 
BRANCH   4   6
ATOM      6  C   UNL     1       4.780   4.723  16.264  0.00  0.00    +0.000 C 
BRANCH   6   7
ATOM      7  C   UNL     1       4.064   3.801  17.256  0.00  0.00    +0.000 C 
ATOM      8  O   UNL     1       4.236   2.585  17.196  0.00  0.00    +0.000 OA
ATOM      9  N   UNL     1       3.198   4.455  18.121  0.00  0.00    +0.000 N 
ATOM     10  H   UNL     1       2.924   5.398  17.855  0.00  0.00    +0.000 HD
BRANCH   9  11
ATOM     11  C   UNL     1       2.548   3.872  19.235  0.00  0.00    +0.000 A 
ATOM     12  C   UNL     1       1.155   3.744  19.317  0.00  0.00    +0.000 A 
ATOM     13  C   UNL     1       0.551   3.171  20.444  0.00  0.00    +0.000 A 
ATOM     14  C   UNL     1       1.340   2.714  21.486  0.00  0.00    +0.000 A 
ATOM     15  F   UNL     1       0.760   2.183  22.570  0.00  0.00    +0.000 F 
ATOM     16  C   UNL     1       2.725   2.806  21.416  0.00  0.00    +0.000 A 
ATOM     17  C   UNL     1       3.330   3.375  20.286  0.00  0.00    +0.000 A 
ENDBRANCH   9  11
ENDBRANCH   6   7
ENDBRANCH   4   6
ENDBRANCH   1   2
BRANCH   1  18
ATOM     18  O   UNL     1       8.144   7.038  18.900  0.00  0.00    +0.000 OA
BRANCH  18  19
ATOM     19  C   UNL     1       8.144   8.091  18.049  0.00  0.00    +0.000 C 
ATOM     20  O   UNL     1       7.652   8.128  16.934  0.00  0.00    +0.000 OA
BRANCH  19  22
ATOM     21  C   UNL     1       8.958  10.395  18.104  0.00  0.00    +0.000 C 
ATOM     22  C   UNL     1       8.822   9.217  18.731  0.00  0.00    +0.000 C 
BRANCH  21  26
ATOM     23  C   UNL     1      11.106  13.803  19.566  0.00  0.00    +0.000 A 
ATOM     24  C   UNL     1      11.582  13.053  18.489  0.00  0.00    +0.000 A 
ATOM     25  C   UNL     1      10.859  11.950  18.028  0.00  0.00    +0.000 A 
ATOM     26  C   UNL     1       9.674  11.552  18.656  0.00  0.00    +0.000 A 
ATOM     27  C   UNL     1       9.215  12.294  19.752  0.00  0.00    +0.000 A 
ATOM     28  C   UNL     1       9.936  13.405  20.210  0.00  0.00    +0.000 A 
BRANCH  23  29
ATOM     29  O   UNL     1      11.709  14.932  20.053  0.00  0.00    +0.000 OA
BRANCH  29  30
ATOM     30  C   UNL     1      10.807  15.911  20.572  0.00  0.00    +0.000 C 
BRANCH  30  32
ATOM     31  C   UNL     1      10.654  17.183  22.722  0.00  0.00    +0.000 C 
ATOM     32  C   UNL     1      11.354  16.424  21.868  0.00  0.00    +0.000 C 
ENDBRANCH  30  32
ENDBRANCH  29  30
ENDBRANCH  23  29
ENDBRANCH  21  26
ENDBRANCH  19  22
ENDBRANCH  18  19
ENDBRANCH   1  18
TORSDOF 11
ENDMDL
MODEL 7
REMARK VINA RESULT:      -6.7      1.255      1.725
REMARK  Name = 
REMARK  12 active torsions:
REMARK  status: ('A' for Active; 'I' for Inactive)
REMARK    1  A    between atoms: C_2  and  C_3
REMARK    2  A    between atoms: C_3  and  O_4
REMARK    3  A    between atoms: O_4  and  C_5
REMARK    4  A    between atoms: C_8  and  C_9
REMARK    5  A    between atoms: C_10  and  C_11
REMARK    6  A    between atoms: C_11  and  O_13
REMARK    7  A    between atoms: O_13  and  C_14
REMARK    8  A    between atoms: C_14  and  C_15
REMARK    9  A    between atoms: N_17  and  C_18
REMARK   10  A    between atoms: N_17  and  C_19
REMARK   11  A    between atoms: C_19  and  C_20
REMARK   12  A    between atoms: N_22  and  C_23
REMARK                            x       y       z     vdW  Elec       q    Type
REMARK                         _______ _______ _______ _____ _____    ______ ____
ROOT
ATOM      1  C   UNL     1       7.096   4.655  17.263  0.00  0.00    +0.000 C 
ENDROOT
BRANCH   1   2
ATOM      2  C   UNL     1       5.710   4.205  17.753  0.00  0.00    +0.000 C 
ATOM      3  O   UNL     1       5.478   3.995  18.947  0.00  0.00    +0.000 OA
ATOM      4  N   UNL     1       4.710   4.069  16.796  0.00  0.00    +0.000 N 
ATOM      5  C   UNL     1       4.823   4.473  15.400  0.00  0.00    +0.000 C 
BRANCH   4   6
ATOM      6  C   UNL     1       3.403   3.575  17.232  0.00  0.00    +0.000 C 
BRANCH   6   7
ATOM      7  C   UNL     1       2.446   4.698  17.645  0.00  0.00    +0.000 C 
ATOM      8  O   UNL     1       1.233   4.555  17.496  0.00  0.00    +0.000 OA
ATOM      9  N   UNL     1       3.076   5.845  18.105  0.00  0.00    +0.000 N 
ATOM     10  H   UNL     1       4.065   5.936  17.883  0.00  0.00    +0.000 HD
BRANCH   9  11
ATOM     11  C   UNL     1       2.434   6.955  18.705  0.00  0.00    +0.000 A 
ATOM     12  C   UNL     1       2.076   6.982  20.059  0.00  0.00    +0.000 A 
ATOM     13  C   UNL     1       1.432   8.098  20.610  0.00  0.00    +0.000 A 
ATOM     14  C   UNL     1       1.153   9.193  19.810  0.00  0.00    +0.000 A 
ATOM     15  F   UNL     1       0.521  10.251  20.334  0.00  0.00    +0.000 F 
ATOM     16  C   UNL     1       1.522   9.200  18.470  0.00  0.00    +0.000 A 
ATOM     17  C   UNL     1       2.172   8.086  17.919  0.00  0.00    +0.000 A 
ENDBRANCH   9  11
ENDBRANCH   6   7
ENDBRANCH   4   6
ENDBRANCH   1   2
BRANCH   1  18
ATOM     18  O   UNL     1       7.438   5.992  17.626  0.00  0.00    +0.000 OA
BRANCH  18  19
ATOM     19  C   UNL     1       8.088   6.101  18.809  0.00  0.00    +0.000 C 
ATOM     20  O   UNL     1       8.481   5.185  19.512  0.00  0.00    +0.000 OA
BRANCH  19  22
ATOM     21  C   UNL     1       8.381   8.412  18.070  0.00  0.00    +0.000 C 
ATOM     22  C   UNL     1       8.274   7.543  19.086  0.00  0.00    +0.000 C 
BRANCH  21  26
ATOM     23  C   UNL     1       9.286  12.569  18.586  0.00  0.00    +0.000 A 
ATOM     24  C   UNL     1       9.884  11.593  19.383  0.00  0.00    +0.000 A 
ATOM     25  C   UNL     1       9.577  10.244  19.190  0.00  0.00    +0.000 A 
ATOM     26  C   UNL     1       8.639   9.849  18.230  0.00  0.00    +0.000 A 
ATOM     27  C   UNL     1       8.023  10.836  17.450  0.00  0.00    +0.000 A 
ATOM     28  C   UNL     1       8.337  12.189  17.638  0.00  0.00    +0.000 A 
BRANCH  23  29
ATOM     29  O   UNL     1       9.564  13.909  18.657  0.00  0.00    +0.000 OA
BRANCH  29  30
ATOM     30  C   UNL     1       8.523  14.702  19.228  0.00  0.00    +0.000 C 
BRANCH  30  32
ATOM     31  C   UNL     1       9.211  16.788  18.028  0.00  0.00    +0.000 C 
ATOM     32  C   UNL     1       8.276  15.879  18.335  0.00  0.00    +0.000 C 
ENDBRANCH  30  32
ENDBRANCH  29  30
ENDBRANCH  23  29
ENDBRANCH  21  26
ENDBRANCH  19  22
ENDBRANCH  18  19
ENDBRANCH   1  18
TORSDOF 11
ENDMDL
MODEL 8
REMARK VINA RESULT:      -6.7      4.981      8.268
REMARK  Name = 
REMARK  12 active torsions:
REMARK  status: ('A' for Active; 'I' for Inactive)
REMARK    1  A    between atoms: C_2  and  C_3
REMARK    2  A    between atoms: C_3  and  O_4
REMARK    3  A    between atoms: O_4  and  C_5
REMARK    4  A    between atoms: C_8  and  C_9
REMARK    5  A    between atoms: C_10  and  C_11
REMARK    6  A    between atoms: C_11  and  O_13
REMARK    7  A    between atoms: O_13  and  C_14
REMARK    8  A    between atoms: C_14  and  C_15
REMARK    9  A    between atoms: N_17  and  C_18
REMARK   10  A    between atoms: N_17  and  C_19
REMARK   11  A    between atoms: C_19  and  C_20
REMARK   12  A    between atoms: N_22  and  C_23
REMARK                            x       y       z     vdW  Elec       q    Type
REMARK                         _______ _______ _______ _____ _____    ______ ____
ROOT
ATOM      1  C   UNL     1       2.032   7.761  20.500  0.00  0.00    +0.000 C 
ENDROOT
BRANCH   1   2
ATOM      2  C   UNL     1       1.180   8.940  20.000  0.00  0.00    +0.000 C 
ATOM      3  O   UNL     1       1.163   9.272  18.812  0.00  0.00    +0.000 OA
ATOM      4  N   UNL     1       0.403   9.606  20.941  0.00  0.00    +0.000 N 
ATOM      5  C   UNL     1       0.203   9.178  22.321  0.00  0.00    +0.000 C 
BRANCH   4   6
ATOM      6  C   UNL     1      -0.362  10.774  20.499  0.00  0.00    +0.000 C 
BRANCH   6   7
ATOM      7  C   UNL     1       0.478  12.054  20.445  0.00  0.00    +0.000 C 
ATOM      8  O   UNL     1       0.903  12.551  21.487  0.00  0.00    +0.000 OA
ATOM      9  N   UNL     1       0.625  12.588  19.173  0.00  0.00    +0.000 N 
ATOM     10  H   UNL     1      -0.028  12.254  18.467  0.00  0.00    +0.000 HD
BRANCH   9  11
ATOM     11  C   UNL     1       1.483  13.657  18.821  0.00  0.00    +0.000 A 
ATOM     12  C   UNL     1       2.812  13.460  18.421  0.00  0.00    +0.000 A 
ATOM     13  C   UNL     1       3.631  14.548  18.091  0.00  0.00    +0.000 A 
ATOM     14  C   UNL     1       3.120  15.833  18.150  0.00  0.00    +0.000 A 
ATOM     15  F   UNL     1       3.910  16.873  17.852  0.00  0.00    +0.000 F 
ATOM     16  C   UNL     1       1.798  16.051  18.519  0.00  0.00    +0.000 A 
ATOM     17  C   UNL     1       0.975  14.963  18.844  0.00  0.00    +0.000 A 
ENDBRANCH   9  11
ENDBRANCH   6   7
ENDBRANCH   4   6
ENDBRANCH   1   2
BRANCH   1  18
ATOM     18  O   UNL     1       1.284   6.580  20.785  0.00  0.00    +0.000 OA
BRANCH  18  19
ATOM     19  C   UNL     1       1.976   5.427  20.628  0.00  0.00    +0.000 C 
ATOM     20  O   UNL     1       1.878   4.420  21.307  0.00  0.00    +0.000 OA
BRANCH  19  22
ATOM     21  C   UNL     1       3.885   4.750  19.260  0.00  0.00    +0.000 C 
ATOM     22  C   UNL     1       2.859   5.592  19.451  0.00  0.00    +0.000 C 
BRANCH  21  26
ATOM     23  C   UNL     1       6.660   5.220  16.029  0.00  0.00    +0.000 A 
ATOM     24  C   UNL     1       5.334   5.635  15.911  0.00  0.00    +0.000 A 
ATOM     25  C   UNL     1       4.451   5.476  16.981  0.00  0.00    +0.000 A 
ATOM     26  C   UNL     1       4.863   4.865  18.170  0.00  0.00    +0.000 A 
ATOM     27  C   UNL     1       6.190   4.427  18.273  0.00  0.00    +0.000 A 
ATOM     28  C   UNL     1       7.078   4.593  17.202  0.00  0.00    +0.000 A 
BRANCH  23  29
ATOM     29  O   UNL     1       7.616   5.385  15.061  0.00  0.00    +0.000 OA
BRANCH  29  30
ATOM     30  C   UNL     1       7.145   5.203  13.724  0.00  0.00    +0.000 C 
BRANCH  30  32
ATOM     31  C   UNL     1       5.962   3.367  12.501  0.00  0.00    +0.000 C 
ATOM     32  C   UNL     1       6.450   3.879  13.640  0.00  0.00    +0.000 C 
ENDBRANCH  30  32
ENDBRANCH  29  30
ENDBRANCH  23  29
ENDBRANCH  21  26
ENDBRANCH  19  22
ENDBRANCH  18  19
ENDBRANCH   1  18
TORSDOF 11
ENDMDL
MODEL 9
REMARK VINA RESULT:      -6.6      1.642      2.225
REMARK  Name = 
REMARK  12 active torsions:
REMARK  status: ('A' for Active; 'I' for Inactive)
REMARK    1  A    between atoms: C_2  and  C_3
REMARK    2  A    between atoms: C_3  and  O_4
REMARK    3  A    between atoms: O_4  and  C_5
REMARK    4  A    between atoms: C_8  and  C_9
REMARK    5  A    between atoms: C_10  and  C_11
REMARK    6  A    between atoms: C_11  and  O_13
REMARK    7  A    between atoms: O_13  and  C_14
REMARK    8  A    between atoms: C_14  and  C_15
REMARK    9  A    between atoms: N_17  and  C_18
REMARK   10  A    between atoms: N_17  and  C_19
REMARK   11  A    between atoms: C_19  and  C_20
REMARK   12  A    between atoms: N_22  and  C_23
REMARK                            x       y       z     vdW  Elec       q    Type
REMARK                         _______ _______ _______ _____ _____    ______ ____
ROOT
ATOM      1  C   UNL     1       6.222   5.213  18.270  0.00  0.00    +0.000 C 
ENDROOT
BRANCH   1   2
ATOM      2  C   UNL     1       4.754   5.386  18.692  0.00  0.00    +0.000 C 
ATOM      3  O   UNL     1       4.333   4.960  19.772  0.00  0.00    +0.000 OA
ATOM      4  N   UNL     1       3.917   6.068  17.817  0.00  0.00    +0.000 N 
ATOM      5  C   UNL     1       4.350   6.773  16.617  0.00  0.00    +0.000 C 
BRANCH   4   6
ATOM      6  C   UNL     1       2.500   6.183  18.169  0.00  0.00    +0.000 C 
BRANCH   6   7
ATOM      7  C   UNL     1       2.161   7.503  18.868  0.00  0.00    +0.000 C 
ATOM      8  O   UNL     1       2.251   7.588  20.092  0.00  0.00    +0.000 OA
ATOM      9  N   UNL     1       1.699   8.498  18.019  0.00  0.00    +0.000 N 
ATOM     10  H   UNL     1       1.384   8.195  17.099  0.00  0.00    +0.000 HD
BRANCH   9  11
ATOM     11  C   UNL     1       1.480   9.850  18.374  0.00  0.00    +0.000 A 
ATOM     12  C   UNL     1       0.405  10.259  19.175  0.00  0.00    +0.000 A 
ATOM     13  C   UNL     1       0.219  11.610  19.493  0.00  0.00    +0.000 A 
ATOM     14  C   UNL     1       1.113  12.555  19.020  0.00  0.00    +0.000 A 
ATOM     15  F   UNL     1       0.924  13.849  19.311  0.00  0.00    +0.000 F 
ATOM     16  C   UNL     1       2.202  12.171  18.246  0.00  0.00    +0.000 A 
ATOM     17  C   UNL     1       2.393  10.818  17.931  0.00  0.00    +0.000 A 
ENDBRANCH   9  11
ENDBRANCH   6   7
ENDBRANCH   4   6
ENDBRANCH   1   2
BRANCH   1  18
ATOM     18  O   UNL     1       7.096   6.223  18.773  0.00  0.00    +0.000 OA
BRANCH  18  19
ATOM     19  C   UNL     1       7.756   6.918  17.816  0.00  0.00    +0.000 C 
ATOM     20  O   UNL     1       7.731   6.709  16.615  0.00  0.00    +0.000 OA
BRANCH  19  22
ATOM     21  C   UNL     1       8.359   9.275  18.054  0.00  0.00    +0.000 C 
ATOM     22  C   UNL     1       8.494   8.012  18.487  0.00  0.00    +0.000 C 
BRANCH  21  26
ATOM     23  C   UNL     1      10.553  12.532  19.767  0.00  0.00    +0.000 A 
ATOM     24  C   UNL     1       9.932  11.575  20.570  0.00  0.00    +0.000 A 
ATOM     25  C   UNL     1       9.228  10.519  19.987  0.00  0.00    +0.000 A 
ATOM     26  C   UNL     1       9.096  10.423  18.597  0.00  0.00    +0.000 A 
ATOM     27  C   UNL     1       9.701  11.401  17.797  0.00  0.00    +0.000 A 
ATOM     28  C   UNL     1      10.414  12.455  18.383  0.00  0.00    +0.000 A 
BRANCH  23  29
ATOM     29  O   UNL     1      11.314  13.569  20.241  0.00  0.00    +0.000 OA
BRANCH  29  30
ATOM     30  C   UNL     1      10.608  14.494  21.068  0.00  0.00    +0.000 C 
BRANCH  30  32
ATOM     31  C   UNL     1       9.847  16.818  20.536  0.00  0.00    +0.000 C 
ATOM     32  C   UNL     1       9.975  15.530  20.191  0.00  0.00    +0.000 C 
ENDBRANCH  30  32
ENDBRANCH  29  30
ENDBRANCH  23  29
ENDBRANCH  21  26
ENDBRANCH  19  22
ENDBRANCH  18  19
ENDBRANCH   1  18
TORSDOF 11
ENDMDL
