MODEL 1
REMARK VINA RESULT:      -8.4      0.000      0.000
REMARK  Name = 
REMARK  9 active torsions:
REMARK  status: ('A' for Active; 'I' for Inactive)
REMARK    1  A    between atoms: C_1  and  O_2
REMARK    2  A    between atoms: O_2  and  C_3
REMARK    3  A    between atoms: C_5  and  C_6
REMARK    4  A    between atoms: C_13  and  C_14
REMARK    5  A    between atoms: N_16  and  C_17
REMARK    6  A    between atoms: C_17  and  C_18
REMARK    7  A    between atoms: C_22  and  C_23
REMARK    8  A    between atoms: N_25  and  C_26
REMARK    9  A    between atoms: N_29  and  C_30
REMARK                            x       y       z     vdW  Elec       q    Type
REMARK                         _______ _______ _______ _____ _____    ______ ____
ROOT
ATOM      1  C   UNL     1       3.436   5.912  19.006  0.00  0.00    +0.000 C 
ATOM      2  O   UNL     1       3.713   5.340  20.059  0.00  0.00    +0.000 OA
ATOM      3  N   UNL     1       2.545   6.964  18.976  0.00  0.00    +0.000 N 
ATOM      4  H   UNL     1       2.340   7.422  18.095  0.00  0.00    +0.000 HD
ENDROOT
BRANCH   1  10
ATOM      5  C   UNL     1       4.191   4.114  17.311  0.00  0.00    +0.000 A 
ATOM      6  C   UNL     1       4.874   3.829  16.114  0.00  0.00    +0.000 A 
ATOM      7  C   UNL     1       5.402   4.843  15.299  0.00  0.00    +0.000 A 
ATOM      8  C   UNL     1       5.232   6.170  15.690  0.00  0.00    +0.000 A 
ATOM      9  C   UNL     1       4.577   6.468  16.890  0.00  0.00    +0.000 A 
ATOM     10  C   UNL     1       4.067   5.452  17.724  0.00  0.00    +0.000 A 
BRANCH   7  11
ATOM     11  C   UNL     1       6.146   4.510  14.095  0.00  0.00    +0.000 A 
ATOM     12  C   UNL     1       5.864   3.591  13.058  0.00  0.00    +0.000 A 
ATOM     13  N   UNL     1       6.788   3.600  12.093  0.00  0.00    +0.000 NA
ATOM     14  N   UNL     1       7.668   4.524  12.510  0.00  0.00    +0.000 N 
ATOM     15  C   UNL     1       7.332   5.093  13.704  0.00  0.00    +0.000 A 
ATOM     16  H   UNL     1       8.473   4.720  11.924  0.00  0.00    +0.000 HD
ENDBRANCH   7  11
BRANCH   5  18
ATOM     17  C   UNL     1       2.478   2.498  17.655  0.00  0.00    +0.000 C 
ATOM     18  O   UNL     1       3.678   3.122  18.113  0.00  0.00    +0.000 OA
ENDBRANCH   5  18
ENDBRANCH   1  10
BRANCH   3  19
ATOM     19  C   UNL     1       1.920   7.403  20.200  0.00  0.00    +0.000 C 
BRANCH  19  20
ATOM     20  C   UNL     1       1.225   8.735  20.091  0.00  0.00    +0.000 A 
ATOM     21  C   UNL     1       1.220   9.419  18.866  0.00  0.00    +0.000 A 
ATOM     22  C   UNL     1       0.654  10.689  18.765  0.00  0.00    +0.000 A 
ATOM     23  C   UNL     1       0.086  11.290  19.888  0.00  0.00    +0.000 A 
ATOM     24  C   UNL     1       0.072  10.624  21.120  0.00  0.00    +0.000 A 
ATOM     25  C   UNL     1       0.622   9.336  21.213  0.00  0.00    +0.000 A 
BRANCH  24  26
ATOM     26  C   UNL     1      -0.538  11.336  22.284  0.00  0.00    +0.000 C 
ATOM     27  O   UNL     1      -0.520  10.814  23.397  0.00  0.00    +0.000 OA
ATOM     28  N   UNL     1      -1.139  12.553  22.033  0.00  0.00    +0.000 N 
ATOM     29  H   UNL     1      -1.320  12.815  21.073  0.00  0.00    +0.000 HD
BRANCH  28  30
ATOM     30  C   UNL     1      -1.879  13.266  23.075  0.00  0.00    +0.000 C 
ATOM     31  C   UNL     1      -3.251  13.727  22.578  0.00  0.00    +0.000 C 
ATOM     32  C   UNL     1      -3.978  14.525  23.662  0.00  0.00    +0.000 C 
ATOM     33  N   UNL     1      -3.174  15.672  24.111  0.00  0.00    +0.000 NA
ATOM     34  C   UNL     1      -3.902  16.437  25.126  0.00  0.00    +0.000 C 
ATOM     35  C   UNL     1      -1.872  15.239  24.635  0.00  0.00    +0.000 C 
ATOM     36  C   UNL     1      -1.079  14.465  23.582  0.00  0.00    +0.000 C 
ENDBRANCH  28  30
ENDBRANCH  24  26
ENDBRANCH  19  20
ENDBRANCH   3  19
TORSDOF 7
ENDMDL
MODEL 2
REMARK VINA RESULT:      -8.2      2.927      3.783
REMARK  Name = 
REMARK  9 active torsions:
REMARK  status: ('A' for Active; 'I' for Inactive)
REMARK    1  A    between atoms: C_1  and  O_2
REMARK    2  A    between atoms: O_2  and  C_3
REMARK    3  A    between atoms: C_5  and  C_6
REMARK    4  A    between atoms: C_13  and  C_14
REMARK    5  A    between atoms: N_16  and  C_17
REMARK    6  A    between atoms: C_17  and  C_18
REMARK    7  A    between atoms: C_22  and  C_23
REMARK    8  A    between atoms: N_25  and  C_26
REMARK    9  A    between atoms: N_29  and  C_30
REMARK                            x       y       z     vdW  Elec       q    Type
REMARK                         _______ _______ _______ _____ _____    ______ ____
ROOT
ATOM      1  C   UNL     1       2.168   5.877  20.187  0.00  0.00    +0.000 C 
ATOM      2  O   UNL     1       1.910   4.969  20.976  0.00  0.00    +0.000 OA
ATOM      3  N   UNL     1       1.702   7.158  20.393  0.00  0.00    +0.000 N 
ATOM      4  H   UNL     1       1.936   7.889  19.730  0.00  0.00    +0.000 HD
ENDROOT
BRANCH   1  10
ATOM      5  C   UNL     1       2.951   4.401  18.216  0.00  0.00    +0.000 A 
ATOM      6  C   UNL     1       3.842   4.242  17.138  0.00  0.00    +0.000 A 
ATOM      7  C   UNL     1       4.747   5.248  16.766  0.00  0.00    +0.000 A 
ATOM      8  C   UNL     1       4.751   6.442  17.486  0.00  0.00    +0.000 A 
ATOM      9  C   UNL     1       3.889   6.605  18.576  0.00  0.00    +0.000 A 
ATOM     10  C   UNL     1       2.996   5.587  18.969  0.00  0.00    +0.000 A 
BRANCH   7  11
ATOM     11  C   UNL     1       5.688   5.030  15.679  0.00  0.00    +0.000 A 
ATOM     12  C   UNL     1       5.529   4.375  14.436  0.00  0.00    +0.000 A 
ATOM     13  N   UNL     1       6.633   4.416  13.684  0.00  0.00    +0.000 NA
ATOM     14  N   UNL     1       7.505   5.095  14.445  0.00  0.00    +0.000 N 
ATOM     15  C   UNL     1       6.991   5.480  15.649  0.00  0.00    +0.000 A 
ATOM     16  H   UNL     1       8.435   5.266  14.075  0.00  0.00    +0.000 HD
ENDBRANCH   7  11
BRANCH   5  18
ATOM     17  C   UNL     1       2.354   2.100  18.106  0.00  0.00    +0.000 C 
ATOM     18  O   UNL     1       2.068   3.414  18.585  0.00  0.00    +0.000 OA
ENDBRANCH   5  18
ENDBRANCH   1  10
BRANCH   3  19
ATOM     19  C   UNL     1       0.890   7.443  21.552  0.00  0.00    +0.000 C 
BRANCH  19  20
ATOM     20  C   UNL     1       0.497   8.891  21.684  0.00  0.00    +0.000 A 
ATOM     21  C   UNL     1      -0.208   9.320  22.818  0.00  0.00    +0.000 A 
ATOM     22  C   UNL     1      -0.653  10.638  22.922  0.00  0.00    +0.000 A 
ATOM     23  C   UNL     1      -0.397  11.542  21.891  0.00  0.00    +0.000 A 
ATOM     24  C   UNL     1       0.311  11.139  20.752  0.00  0.00    +0.000 A 
ATOM     25  C   UNL     1       0.777   9.818  20.661  0.00  0.00    +0.000 A 
BRANCH  24  26
ATOM     26  C   UNL     1       0.533  12.157  19.680  0.00  0.00    +0.000 C 
ATOM     27  O   UNL     1       1.152  11.849  18.663  0.00  0.00    +0.000 OA
ATOM     28  N   UNL     1       0.052  13.429  19.912  0.00  0.00    +0.000 N 
ATOM     29  H   UNL     1      -0.240  13.674  20.848  0.00  0.00    +0.000 HD
BRANCH  28  30
ATOM     30  C   UNL     1       0.332  14.529  18.987  0.00  0.00    +0.000 C 
ATOM     31  C   UNL     1       1.726  15.117  19.215  0.00  0.00    +0.000 C 
ATOM     32  C   UNL     1       1.970  16.305  18.282  0.00  0.00    +0.000 C 
ATOM     33  N   UNL     1       0.935  17.337  18.449  0.00  0.00    +0.000 NA
ATOM     34  C   UNL     1       1.206  18.476  17.568  0.00  0.00    +0.000 C 
ATOM     35  C   UNL     1      -0.405  16.797  18.186  0.00  0.00    +0.000 C 
ATOM     36  C   UNL     1      -0.723  15.626  19.116  0.00  0.00    +0.000 C 
ENDBRANCH  28  30
ENDBRANCH  24  26
ENDBRANCH  19  20
ENDBRANCH   3  19
TORSDOF 7
ENDMDL
MODEL 3
REMARK VINA RESULT:      -8.1      1.208      1.867
REMARK  Name = 
REMARK  9 active torsions:
REMARK  status: ('A' for Active; 'I' for Inactive)
REMARK    1  A    between atoms: C_1  and  O_2
REMARK    2  A    between atoms: O_2  and  C_3
REMARK    3  A    between atoms: C_5  and  C_6
REMARK    4  A    between atoms: C_13  and  C_14
REMARK    5  A    between atoms: N_16  and  C_17
REMARK    6  A    between atoms: C_17  and  C_18
REMARK    7  A    between atoms: C_22  and  C_23
REMARK    8  A    between atoms: N_25  and  C_26
REMARK    9  A    between atoms: N_29  and  C_30
REMARK                            x       y       z     vdW  Elec       q    Type
REMARK                         _______ _______ _______ _____ _____    ______ ____
ROOT
ATOM      1  C   UNL     1       4.169   5.813  18.710  0.00  0.00    +0.000 C 
ATOM      2  O   UNL     1       4.657   5.445  19.778  0.00  0.00    +0.000 OA
ATOM      3  N   UNL     1       3.018   6.570  18.671  0.00  0.00    +0.000 N 
ATOM      4  H   UNL     1       2.642   6.864  17.776  0.00  0.00    +0.000 HD
ENDROOT
BRANCH   1  10
ATOM      5  C   UNL     1       5.821   6.162  16.753  0.00  0.00    +0.000 A 
ATOM      6  C   UNL     1       6.297   5.703  15.511  0.00  0.00    +0.000 A 
ATOM      7  C   UNL     1       5.842   4.506  14.936  0.00  0.00    +0.000 A 
ATOM      8  C   UNL     1       4.896   3.751  15.627  0.00  0.00    +0.000 A 
ATOM      9  C   UNL     1       4.395   4.206  16.850  0.00  0.00    +0.000 A 
ATOM     10  C   UNL     1       4.830   5.420  17.421  0.00  0.00    +0.000 A 
BRANCH   7  11
ATOM     11  C   UNL     1       6.319   4.089  13.627  0.00  0.00    +0.000 A 
ATOM     12  C   UNL     1       5.851   3.083  12.749  0.00  0.00    +0.000 A 
ATOM     13  N   UNL     1       6.542   3.030  11.607  0.00  0.00    +0.000 NA
ATOM     14  N   UNL     1       7.458   4.000  11.750  0.00  0.00    +0.000 N 
ATOM     15  C   UNL     1       7.370   4.660  12.942  0.00  0.00    +0.000 A 
ATOM     16  H   UNL     1       8.109   4.163  10.988  0.00  0.00    +0.000 HD
ENDBRANCH   7  11
BRANCH   5  18
ATOM     17  C   UNL     1       7.594   7.329  17.828  0.00  0.00    +0.000 C 
ATOM     18  O   UNL     1       6.261   7.336  17.315  0.00  0.00    +0.000 OA
ENDBRANCH   5  18
ENDBRANCH   1  10
BRANCH   3  19
ATOM     19  C   UNL     1       2.365   6.937  19.904  0.00  0.00    +0.000 C 
BRANCH  19  20
ATOM     20  C   UNL     1       1.625   8.247  19.840  0.00  0.00    +0.000 A 
ATOM     21  C   UNL     1       1.505   8.919  18.615  0.00  0.00    +0.000 A 
ATOM     22  C   UNL     1       0.894  10.172  18.548  0.00  0.00    +0.000 A 
ATOM     23  C   UNL     1       0.397  10.766  19.708  0.00  0.00    +0.000 A 
ATOM     24  C   UNL     1       0.498  10.111  20.942  0.00  0.00    +0.000 A 
ATOM     25  C   UNL     1       1.092   8.841  21.001  0.00  0.00    +0.000 A 
BRANCH  24  26
ATOM     26  C   UNL     1      -0.042  10.816  22.145  0.00  0.00    +0.000 C 
ATOM     27  O   UNL     1       0.033  10.282  23.250  0.00  0.00    +0.000 OA
ATOM     28  N   UNL     1      -0.644  12.040  21.939  0.00  0.00    +0.000 N 
ATOM     29  H   UNL     1      -0.874  12.314  20.993  0.00  0.00    +0.000 HD
BRANCH  28  30
ATOM     30  C   UNL     1      -1.319  12.748  23.027  0.00  0.00    +0.000 C 
ATOM     31  C   UNL     1      -2.841  12.705  22.870  0.00  0.00    +0.000 C 
ATOM     32  C   UNL     1      -3.522  13.506  23.981  0.00  0.00    +0.000 C 
ATOM     33  N   UNL     1      -3.041  14.895  24.011  0.00  0.00    +0.000 NA
ATOM     34  C   UNL     1      -3.728  15.649  25.062  0.00  0.00    +0.000 C 
ATOM     35  C   UNL     1      -1.586  14.952  24.210  0.00  0.00    +0.000 C 
ATOM     36  C   UNL     1      -0.845  14.199  23.105  0.00  0.00    +0.000 C 
ENDBRANCH  28  30
ENDBRANCH  24  26
ENDBRANCH  19  20
ENDBRANCH   3  19
TORSDOF 7
ENDMDL
MODEL 4
REMARK VINA RESULT:      -8.1      1.203      1.408
REMARK  Name = 
REMARK  9 active torsions:
REMARK  status: ('A' for Active; 'I' for Inactive)
REMARK    1  A    between atoms: C_1  and  O_2
REMARK    2  A    between atoms: O_2  and  C_3
REMARK    3  A    between atoms: C_5  and  C_6
REMARK    4  A    between atoms: C_13  and  C_14
REMARK    5  A    between atoms: N_16  and  C_17
REMARK    6  A    between atoms: C_17  and  C_18
REMARK    7  A    between atoms: C_22  and  C_23
REMARK    8  A    between atoms: N_25  and  C_26
REMARK    9  A    between atoms: N_29  and  C_30
REMARK                            x       y       z     vdW  Elec       q    Type
REMARK                         _______ _______ _______ _____ _____    ______ ____
ROOT
ATOM      1  C   UNL     1       2.174   6.210  19.895  0.00  0.00    +0.000 C 
ATOM      2  O   UNL     1       1.523   5.383  20.532  0.00  0.00    +0.000 OA
ATOM      3  N   UNL     1       2.123   7.553  20.203  0.00  0.00    +0.000 N 
ATOM      4  H   UNL     1       2.676   8.212  19.665  0.00  0.00    +0.000 HD
ENDROOT
BRANCH   1  10
ATOM      5  C   UNL     1       3.328   4.417  18.435  0.00  0.00    +0.000 A 
ATOM      6  C   UNL     1       4.210   4.144  17.373  0.00  0.00    +0.000 A 
ATOM      7  C   UNL     1       4.772   5.166  16.592  0.00  0.00    +0.000 A 
ATOM      8  C   UNL     1       4.435   6.488  16.879  0.00  0.00    +0.000 A 
ATOM      9  C   UNL     1       3.580   6.776  17.948  0.00  0.00    +0.000 A 
ATOM     10  C   UNL     1       3.032   5.755  18.751  0.00  0.00    +0.000 A 
BRANCH   7  11
ATOM     11  C   UNL     1       5.719   4.850  15.535  0.00  0.00    +0.000 A 
ATOM     12  C   UNL     1       5.528   4.238  14.274  0.00  0.00    +0.000 A 
ATOM     13  N   UNL     1       6.656   4.155  13.562  0.00  0.00    +0.000 NA
ATOM     14  N   UNL     1       7.575   4.712  14.366  0.00  0.00    +0.000 N 
ATOM     15  C   UNL     1       7.067   5.139  15.559  0.00  0.00    +0.000 A 
ATOM     16  H   UNL     1       8.532   4.775  14.032  0.00  0.00    +0.000 HD
ENDBRANCH   7  11
BRANCH   5  18
ATOM     17  C   UNL     1       2.382   2.234  18.511  0.00  0.00    +0.000 C 
ATOM     18  O   UNL     1       2.781   3.417  19.204  0.00  0.00    +0.000 OA
ENDBRANCH   5  18
ENDBRANCH   1  10
BRANCH   3  19
ATOM     19  C   UNL     1       1.288   8.003  21.290  0.00  0.00    +0.000 C 
BRANCH  19  20
ATOM     20  C   UNL     1       0.563   9.294  21.013  0.00  0.00    +0.000 A 
ATOM     21  C   UNL     1       0.697   9.912  19.760  0.00  0.00    +0.000 A 
ATOM     22  C   UNL     1       0.100  11.147  19.511  0.00  0.00    +0.000 A 
ATOM     23  C   UNL     1      -0.637  11.780  20.512  0.00  0.00    +0.000 A 
ATOM     24  C   UNL     1      -0.790  11.179  21.769  0.00  0.00    +0.000 A 
ATOM     25  C   UNL     1      -0.208   9.924  22.008  0.00  0.00    +0.000 A 
BRANCH  24  26
ATOM     26  C   UNL     1      -1.579  11.922  22.798  0.00  0.00    +0.000 C 
ATOM     27  O   UNL     1      -2.297  11.303  23.581  0.00  0.00    +0.000 OA
ATOM     28  N   UNL     1      -1.486  13.298  22.789  0.00  0.00    +0.000 N 
ATOM     29  H   UNL     1      -1.066  13.751  21.989  0.00  0.00    +0.000 HD
BRANCH  28  30
ATOM     30  C   UNL     1      -2.317  14.124  23.667  0.00  0.00    +0.000 C 
ATOM     31  C   UNL     1      -3.422  14.841  22.888  0.00  0.00    +0.000 C 
ATOM     32  C   UNL     1      -4.236  15.746  23.815  0.00  0.00    +0.000 C 
ATOM     33  N   UNL     1      -3.374  16.715  24.508  0.00  0.00    +0.000 NA
ATOM     34  C   UNL     1      -4.178  17.589  25.366  0.00  0.00    +0.000 C 
ATOM     35  C   UNL     1      -2.338  16.038  25.299  0.00  0.00    +0.000 C 
ATOM     36  C   UNL     1      -1.464  15.144  24.419  0.00  0.00    +0.000 C 
ENDBRANCH  28  30
ENDBRANCH  24  26
ENDBRANCH  19  20
ENDBRANCH   3  19
TORSDOF 7
ENDMDL
MODEL 5
REMARK VINA RESULT:      -8.0      3.532      5.143
REMARK  Name = 
REMARK  9 active torsions:
REMARK  status: ('A' for Active; 'I' for Inactive)
REMARK    1  A    between atoms: C_1  and  O_2
REMARK    2  A    between atoms: O_2  and  C_3
REMARK    3  A    between atoms: C_5  and  C_6
REMARK    4  A    between atoms: C_13  and  C_14
REMARK    5  A    between atoms: N_16  and  C_17
REMARK    6  A    between atoms: C_17  and  C_18
REMARK    7  A    between atoms: C_22  and  C_23
REMARK    8  A    between atoms: N_25  and  C_26
REMARK    9  A    between atoms: N_29  and  C_30
REMARK                            x       y       z     vdW  Elec       q    Type
REMARK                         _______ _______ _______ _____ _____    ______ ____
ROOT
ATOM      1  C   UNL     1       0.739  10.387  18.751  0.00  0.00    +0.000 C 
ATOM      2  O   UNL     1       1.212  11.399  19.266  0.00  0.00    +0.000 OA
ATOM      3  N   UNL     1      -0.418  10.438  18.004  0.00  0.00    +0.000 N 
ATOM      4  H   UNL     1      -0.782   9.588  17.585  0.00  0.00    +0.000 HD
ENDROOT
BRANCH   1  10
ATOM      5  C   UNL     1       1.353   8.274  20.107  0.00  0.00    +0.000 A 
ATOM      6  C   UNL     1       2.112   7.091  20.174  0.00  0.00    +0.000 A 
ATOM      7  C   UNL     1       2.909   6.657  19.104  0.00  0.00    +0.000 A 
ATOM      8  C   UNL     1       2.938   7.422  17.939  0.00  0.00    +0.000 A 
ATOM      9  C   UNL     1       2.208   8.613  17.866  0.00  0.00    +0.000 A 
ATOM     10  C   UNL     1       1.426   9.067  18.948  0.00  0.00    +0.000 A 
BRANCH   7  11
ATOM     11  C   UNL     1       3.720   5.456  19.228  0.00  0.00    +0.000 A 
ATOM     12  C   UNL     1       3.358   4.121  19.522  0.00  0.00    +0.000 A 
ATOM     13  N   UNL     1       4.401   3.286  19.510  0.00  0.00    +0.000 NA
ATOM     14  N   UNL     1       5.437   4.085  19.210  0.00  0.00    +0.000 N 
ATOM     15  C   UNL     1       5.084   5.391  19.036  0.00  0.00    +0.000 A 
ATOM     16  H   UNL     1       6.359   3.667  19.132  0.00  0.00    +0.000 HD
ENDBRANCH   7  11
BRANCH   5  18
ATOM     17  C   UNL     1       1.275   9.185  22.304  0.00  0.00    +0.000 C 
ATOM     18  O   UNL     1       0.576   8.704  21.156  0.00  0.00    +0.000 OA
ENDBRANCH   5  18
ENDBRANCH   1  10
BRANCH   3  19
ATOM     19  C   UNL     1      -1.095  11.699  17.824  0.00  0.00    +0.000 C 
BRANCH  19  20
ATOM     20  C   UNL     1      -2.520  11.705  18.312  0.00  0.00    +0.000 A 
ATOM     21  C   UNL     1      -3.544  11.232  17.477  0.00  0.00    +0.000 A 
ATOM     22  C   UNL     1      -4.878  11.305  17.878  0.00  0.00    +0.000 A 
ATOM     23  C   UNL     1      -5.203  11.852  19.119  0.00  0.00    +0.000 A 
ATOM     24  C   UNL     1      -4.198  12.324  19.973  0.00  0.00    +0.000 A 
ATOM     25  C   UNL     1      -2.855  12.228  19.576  0.00  0.00    +0.000 A 
BRANCH  24  26
ATOM     26  C   UNL     1      -4.622  12.913  21.280  0.00  0.00    +0.000 C 
ATOM     27  O   UNL     1      -5.521  12.379  21.927  0.00  0.00    +0.000 OA
ATOM     28  N   UNL     1      -3.993  14.073  21.680  0.00  0.00    +0.000 N 
ATOM     29  H   UNL     1      -3.434  14.580  21.007  0.00  0.00    +0.000 HD
BRANCH  28  30
ATOM     30  C   UNL     1      -4.424  14.800  22.876  0.00  0.00    +0.000 C 
ATOM     31  C   UNL     1      -5.509  15.829  22.550  0.00  0.00    +0.000 C 
ATOM     32  C   UNL     1      -5.897  16.619  23.801  0.00  0.00    +0.000 C 
ATOM     33  N   UNL     1      -4.726  17.271  24.406  0.00  0.00    +0.000 NA
ATOM     34  C   UNL     1      -5.126  18.045  25.584  0.00  0.00    +0.000 C 
ATOM     35  C   UNL     1      -3.696  16.288  24.768  0.00  0.00    +0.000 C 
ATOM     36  C   UNL     1      -3.238  15.489  23.548  0.00  0.00    +0.000 C 
ENDBRANCH  28  30
ENDBRANCH  24  26
ENDBRANCH  19  20
ENDBRANCH   3  19
TORSDOF 7
ENDMDL
MODEL 6
REMARK VINA RESULT:      -7.9      2.927      4.453
REMARK  Name = 
REMARK  9 active torsions:
REMARK  status: ('A' for Active; 'I' for Inactive)
REMARK    1  A    between atoms: C_1  and  O_2
REMARK    2  A    between atoms: O_2  and  C_3
REMARK    3  A    between atoms: C_5  and  C_6
REMARK    4  A    between atoms: C_13  and  C_14
REMARK    5  A    between atoms: N_16  and  C_17
REMARK    6  A    between atoms: C_17  and  C_18
REMARK    7  A    between atoms: C_22  and  C_23
REMARK    8  A    between atoms: N_25  and  C_26
REMARK    9  A    between atoms: N_29  and  C_30
REMARK                            x       y       z     vdW  Elec       q    Type
REMARK                         _______ _______ _______ _____ _____    ______ ____
ROOT
ATOM      1  C   UNL     1       1.993   6.031  19.973  0.00  0.00    +0.000 C 
ATOM      2  O   UNL     1       1.331   5.048  20.304  0.00  0.00    +0.000 OA
ATOM      3  N   UNL     1       1.812   7.254  20.582  0.00  0.00    +0.000 N 
ATOM      4  H   UNL     1       2.377   8.046  20.294  0.00  0.00    +0.000 HD
ENDROOT
BRANCH   1  10
ATOM      5  C   UNL     1       3.490   6.958  18.081  0.00  0.00    +0.000 A 
ATOM      6  C   UNL     1       4.392   6.673  17.040  0.00  0.00    +0.000 A 
ATOM      7  C   UNL     1       4.861   5.372  16.796  0.00  0.00    +0.000 A 
ATOM      8  C   UNL     1       4.420   4.339  17.620  0.00  0.00    +0.000 A 
ATOM      9  C   UNL     1       3.503   4.602  18.644  0.00  0.00    +0.000 A 
ATOM     10  C   UNL     1       3.011   5.902  18.877  0.00  0.00    +0.000 A 
BRANCH   7  11
ATOM     11  C   UNL     1       5.753   5.107  15.679  0.00  0.00    +0.000 A 
ATOM     12  C   UNL     1       7.075   5.542  15.427  0.00  0.00    +0.000 A 
ATOM     13  N   UNL     1       7.576   5.046  14.292  0.00  0.00    +0.000 NA
ATOM     14  N   UNL     1       6.575   4.293  13.811  0.00  0.00    +0.000 N 
ATOM     15  C   UNL     1       5.462   4.299  14.600  0.00  0.00    +0.000 A 
ATOM     16  H   UNL     1       6.725   3.793  12.939  0.00  0.00    +0.000 HD
ENDBRANCH   7  11
BRANCH   5  18
ATOM     17  C   UNL     1       1.936   8.666  17.507  0.00  0.00    +0.000 C 
ATOM     18  O   UNL     1       3.027   8.230  18.318  0.00  0.00    +0.000 OA
ENDBRANCH   5  18
ENDBRANCH   1  10
BRANCH   3  19
ATOM     19  C   UNL     1       0.823   7.391  21.624  0.00  0.00    +0.000 C 
BRANCH  19  20
ATOM     20  C   UNL     1       0.336   8.802  21.825  0.00  0.00    +0.000 A 
ATOM     21  C   UNL     1      -0.317   9.150  23.016  0.00  0.00    +0.000 A 
ATOM     22  C   UNL     1      -0.847  10.429  23.189  0.00  0.00    +0.000 A 
ATOM     23  C   UNL     1      -0.730  11.374  22.170  0.00  0.00    +0.000 A 
ATOM     24  C   UNL     1      -0.076  11.053  20.974  0.00  0.00    +0.000 A 
ATOM     25  C   UNL     1       0.477   9.773  20.813  0.00  0.00    +0.000 A 
BRANCH  24  26
ATOM     26  C   UNL     1      -0.003  12.110  19.920  0.00  0.00    +0.000 C 
ATOM     27  O   UNL     1      -0.826  12.120  19.007  0.00  0.00    +0.000 OA
ATOM     28  N   UNL     1       1.033  13.017  20.010  0.00  0.00    +0.000 N 
ATOM     29  H   UNL     1       1.796  12.821  20.643  0.00  0.00    +0.000 HD
BRANCH  28  30
ATOM     30  C   UNL     1       1.270  14.008  18.959  0.00  0.00    +0.000 C 
ATOM     31  C   UNL     1       2.760  14.140  18.633  0.00  0.00    +0.000 C 
ATOM     32  C   UNL     1       2.989  15.225  17.580  0.00  0.00    +0.000 C 
ATOM     33  N   UNL     1       2.434  16.517  18.014  0.00  0.00    +0.000 NA
ATOM     34  C   UNL     1       2.691  17.546  17.004  0.00  0.00    +0.000 C 
ATOM     35  C   UNL     1       0.994  16.416  18.284  0.00  0.00    +0.000 C 
ATOM     36  C   UNL     1       0.703  15.369  19.360  0.00  0.00    +0.000 C 
ENDBRANCH  28  30
ENDBRANCH  24  26
ENDBRANCH  19  20
ENDBRANCH   3  19
TORSDOF 7
ENDMDL
MODEL 7
REMARK VINA RESULT:      -7.8      3.409      5.003
REMARK  Name = 
REMARK  9 active torsions:
REMARK  status: ('A' for Active; 'I' for Inactive)
REMARK    1  A    between atoms: C_1  and  O_2
REMARK    2  A    between atoms: O_2  and  C_3
REMARK    3  A    between atoms: C_5  and  C_6
REMARK    4  A    between atoms: C_13  and  C_14
REMARK    5  A    between atoms: N_16  and  C_17
REMARK    6  A    between atoms: C_17  and  C_18
REMARK    7  A    between atoms: C_22  and  C_23
REMARK    8  A    between atoms: N_25  and  C_26
REMARK    9  A    between atoms: N_29  and  C_30
REMARK                            x       y       z     vdW  Elec       q    Type
REMARK                         _______ _______ _______ _____ _____    ______ ____
ROOT
ATOM      1  C   UNL     1       1.781   6.880  20.437  0.00  0.00    +0.000 C 
ATOM      2  O   UNL     1       1.197   5.897  20.892  0.00  0.00    +0.000 OA
ATOM      3  N   UNL     1       1.523   8.149  20.909  0.00  0.00    +0.000 N 
ATOM      4  H   UNL     1       2.025   8.940  20.521  0.00  0.00    +0.000 HD
ENDROOT
BRANCH   1  10
ATOM      5  C   UNL     1       2.792   7.391  18.114  0.00  0.00    +0.000 A 
ATOM      6  C   UNL     1       3.759   7.062  17.147  0.00  0.00    +0.000 A 
ATOM      7  C   UNL     1       4.747   6.092  17.381  0.00  0.00    +0.000 A 
ATOM      8  C   UNL     1       4.767   5.445  18.616  0.00  0.00    +0.000 A 
ATOM      9  C   UNL     1       3.796   5.743  19.578  0.00  0.00    +0.000 A 
ATOM     10  C   UNL     1       2.788   6.699  19.338  0.00  0.00    +0.000 A 
BRANCH   7  11
ATOM     11  C   UNL     1       5.699   5.742  16.340  0.00  0.00    +0.000 A 
ATOM     12  C   UNL     1       7.113   5.721  16.349  0.00  0.00    +0.000 A 
ATOM     13  N   UNL     1       7.632   5.301  15.191  0.00  0.00    +0.000 NA
ATOM     14  N   UNL     1       6.551   5.053  14.435  0.00  0.00    +0.000 N 
ATOM     15  C   UNL     1       5.371   5.305  15.074  0.00  0.00    +0.000 A 
ATOM     16  H   UNL     1       6.693   4.705  13.492  0.00  0.00    +0.000 HD
ENDBRANCH   7  11
BRANCH   5  18
ATOM     17  C   UNL     1       2.266   9.692  17.814  0.00  0.00    +0.000 C 
ATOM     18  O   UNL     1       1.821   8.337  17.884  0.00  0.00    +0.000 OA
ENDBRANCH   5  18
ENDBRANCH   1  10
BRANCH   3  19
ATOM     19  C   UNL     1       0.544   8.334  21.953  0.00  0.00    +0.000 C 
BRANCH  19  20
ATOM     20  C   UNL     1       0.107   9.764  22.137  0.00  0.00    +0.000 A 
ATOM     21  C   UNL     1      -0.950  10.062  23.010  0.00  0.00    +0.000 A 
ATOM     22  C   UNL     1      -1.423  11.369  23.132  0.00  0.00    +0.000 A 
ATOM     23  C   UNL     1      -0.843  12.392  22.383  0.00  0.00    +0.000 A 
ATOM     24  C   UNL     1       0.218  12.120  21.510  0.00  0.00    +0.000 A 
ATOM     25  C   UNL     1       0.707  10.809  21.407  0.00  0.00    +0.000 A 
BRANCH  24  26
ATOM     26  C   UNL     1       0.779  13.263  20.727  0.00  0.00    +0.000 C 
ATOM     27  O   UNL     1       0.128  13.749  19.804  0.00  0.00    +0.000 OA
ATOM     28  N   UNL     1       2.045  13.697  21.065  0.00  0.00    +0.000 N 
ATOM     29  H   UNL     1       2.610  13.117  21.670  0.00  0.00    +0.000 HD
BRANCH  28  30
ATOM     30  C   UNL     1       2.735  14.718  20.277  0.00  0.00    +0.000 C 
ATOM     31  C   UNL     1       3.655  14.094  19.225  0.00  0.00    +0.000 C 
ATOM     32  C   UNL     1       4.414  15.179  18.458  0.00  0.00    +0.000 C 
ATOM     33  N   UNL     1       5.177  16.043  19.371  0.00  0.00    +0.000 NA
ATOM     34  C   UNL     1       5.918  17.054  18.613  0.00  0.00    +0.000 C 
ATOM     35  C   UNL     1       4.299  16.687  20.357  0.00  0.00    +0.000 C 
ATOM     36  C   UNL     1       3.539  15.650  21.183  0.00  0.00    +0.000 C 
ENDBRANCH  28  30
ENDBRANCH  24  26
ENDBRANCH  19  20
ENDBRANCH   3  19
TORSDOF 7
ENDMDL
MODEL 8
REMARK VINA RESULT:      -7.7      4.715      5.949
REMARK  Name = 
REMARK  9 active torsions:
REMARK  status: ('A' for Active; 'I' for Inactive)
REMARK    1  A    between atoms: C_1  and  O_2
REMARK    2  A    between atoms: O_2  and  C_3
REMARK    3  A    between atoms: C_5  and  C_6
REMARK    4  A    between atoms: C_13  and  C_14
REMARK    5  A    between atoms: N_16  and  C_17
REMARK    6  A    between atoms: C_17  and  C_18
REMARK    7  A    between atoms: C_22  and  C_23
REMARK    8  A    between atoms: N_25  and  C_26
REMARK    9  A    between atoms: N_29  and  C_30
REMARK                            x       y       z     vdW  Elec       q    Type
REMARK                         _______ _______ _______ _____ _____    ______ ____
ROOT
ATOM      1  C   UNL     1       1.280   8.748  18.752  0.00  0.00    +0.000 C 
ATOM      2  O   UNL     1       0.657   9.185  17.786  0.00  0.00    +0.000 OA
ATOM      3  N   UNL     1       0.957   9.120  20.040  0.00  0.00    +0.000 N 
ATOM      4  H   UNL     1       1.484   8.738  20.818  0.00  0.00    +0.000 HD
ENDROOT
BRANCH   1  10
ATOM      5  C   UNL     1       2.725   6.684  19.330  0.00  0.00    +0.000 A 
ATOM      6  C   UNL     1       3.875   5.927  19.039  0.00  0.00    +0.000 A 
ATOM      7  C   UNL     1       4.708   6.227  17.950  0.00  0.00    +0.000 A 
ATOM      8  C   UNL     1       4.375   7.305  17.132  0.00  0.00    +0.000 A 
ATOM      9  C   UNL     1       3.249   8.082  17.422  0.00  0.00    +0.000 A 
ATOM     10  C   UNL     1       2.422   7.800  18.529  0.00  0.00    +0.000 A 
BRANCH   7  11
ATOM     11  C   UNL     1       5.916   5.454  17.710  0.00  0.00    +0.000 A 
ATOM     12  C   UNL     1       6.540   5.063  16.503  0.00  0.00    +0.000 A 
ATOM     13  N   UNL     1       7.671   4.380  16.702  0.00  0.00    +0.000 NA
ATOM     14  N   UNL     1       7.774   4.328  18.039  0.00  0.00    +0.000 N 
ATOM     15  C   UNL     1       6.748   4.951  18.688  0.00  0.00    +0.000 A 
ATOM     16  H   UNL     1       8.579   3.857  18.441  0.00  0.00    +0.000 HD
ENDBRANCH   7  11
BRANCH   5  18
ATOM     17  C   UNL     1       1.546   5.024  20.561  0.00  0.00    +0.000 C 
ATOM     18  O   UNL     1       1.910   6.395  20.399  0.00  0.00    +0.000 OA
ENDBRANCH   5  18
ENDBRANCH   1  10
BRANCH   3  19
ATOM     19  C   UNL     1      -0.128  10.044  20.264  0.00  0.00    +0.000 C 
BRANCH  19  20
ATOM     20  C   UNL     1       0.224  11.482  19.983  0.00  0.00    +0.000 A 
ATOM     21  C   UNL     1      -0.647  12.277  19.224  0.00  0.00    +0.000 A 
ATOM     22  C   UNL     1      -0.302  13.585  18.885  0.00  0.00    +0.000 A 
ATOM     23  C   UNL     1       0.919  14.113  19.302  0.00  0.00    +0.000 A 
ATOM     24  C   UNL     1       1.803  13.341  20.067  0.00  0.00    +0.000 A 
ATOM     25  C   UNL     1       1.442  12.033  20.427  0.00  0.00    +0.000 A 
BRANCH  24  26
ATOM     26  C   UNL     1       3.101  13.967  20.464  0.00  0.00    +0.000 C 
ATOM     27  O   UNL     1       3.542  13.793  21.598  0.00  0.00    +0.000 OA
ATOM     28  N   UNL     1       3.732  14.757  19.525  0.00  0.00    +0.000 N 
ATOM     29  H   UNL     1       3.214  15.042  18.705  0.00  0.00    +0.000 HD
BRANCH  28  30
ATOM     30  C   UNL     1       4.937  15.519  19.856  0.00  0.00    +0.000 C 
ATOM     31  C   UNL     1       4.661  17.025  19.889  0.00  0.00    +0.000 C 
ATOM     32  C   UNL     1       5.948  17.803  20.173  0.00  0.00    +0.000 C 
ATOM     33  N   UNL     1       6.993  17.485  19.189  0.00  0.00    +0.000 NA
ATOM     34  C   UNL     1       8.204  18.263  19.463  0.00  0.00    +0.000 C 
ATOM     35  C   UNL     1       7.301  16.049  19.182  0.00  0.00    +0.000 C 
ATOM     36  C   UNL     1       6.059  15.216  18.865  0.00  0.00    +0.000 C 
ENDBRANCH  28  30
ENDBRANCH  24  26
ENDBRANCH  19  20
ENDBRANCH   3  19
TORSDOF 7
ENDMDL
MODEL 9
REMARK VINA RESULT:      -7.7      5.732      8.341
REMARK  Name = 
REMARK  9 active torsions:
REMARK  status: ('A' for Active; 'I' for Inactive)
REMARK    1  A    between atoms: C_1  and  O_2
REMARK    2  A    between atoms: O_2  and  C_3
REMARK    3  A    between atoms: C_5  and  C_6
REMARK    4  A    between atoms: C_13  and  C_14
REMARK    5  A    between atoms: N_16  and  C_17
REMARK    6  A    between atoms: C_17  and  C_18
REMARK    7  A    between atoms: C_22  and  C_23
REMARK    8  A    between atoms: N_25  and  C_26
REMARK    9  A    between atoms: N_29  and  C_30
REMARK                            x       y       z     vdW  Elec       q    Type
REMARK                         _______ _______ _______ _____ _____    ______ ____
ROOT
ATOM      1  C   UNL     1       0.743  10.356  18.896  0.00  0.00    +0.000 C 
ATOM      2  O   UNL     1      -0.485  10.382  18.973  0.00  0.00    +0.000 OA
ATOM      3  N   UNL     1       1.473  11.510  18.703  0.00  0.00    +0.000 N 
ATOM      4  H   UNL     1       2.485  11.459  18.650  0.00  0.00    +0.000 HD
ENDROOT
BRANCH   1  10
ATOM      5  C   UNL     1       1.427   8.180  20.111  0.00  0.00    +0.000 A 
ATOM      6  C   UNL     1       2.216   7.015  20.095  0.00  0.00    +0.000 A 
ATOM      7  C   UNL     1       3.006   6.666  18.989  0.00  0.00    +0.000 A 
ATOM      8  C   UNL     1       2.999   7.501  17.874  0.00  0.00    +0.000 A 
ATOM      9  C   UNL     1       2.241   8.676  17.884  0.00  0.00    +0.000 A 
ATOM     10  C   UNL     1       1.464   9.044  19.002  0.00  0.00    +0.000 A 
BRANCH   7  11
ATOM     11  C   UNL     1       3.847   5.480  19.028  0.00  0.00    +0.000 A 
ATOM     12  C   UNL     1       3.529   4.129  19.299  0.00  0.00    +0.000 A 
ATOM     13  N   UNL     1       4.588   3.318  19.201  0.00  0.00    +0.000 NA
ATOM     14  N   UNL     1       5.588   4.149  18.870  0.00  0.00    +0.000 N 
ATOM     15  C   UNL     1       5.199   5.452  18.758  0.00  0.00    +0.000 A 
ATOM     16  H   UNL     1       6.513   3.754  18.726  0.00  0.00    +0.000 HD
ENDBRANCH   7  11
BRANCH   5  18
ATOM     17  C   UNL     1       1.327   9.208  22.255  0.00  0.00    +0.000 C 
ATOM     18  O   UNL     1       0.656   8.526  21.195  0.00  0.00    +0.000 OA
ENDBRANCH   5  18
ENDBRANCH   1  10
BRANCH   3  19
ATOM     19  C   UNL     1       0.788  12.774  18.582  0.00  0.00    +0.000 C 
BRANCH  19  20
ATOM     20  C   UNL     1       1.672  13.973  18.803  0.00  0.00    +0.000 A 
ATOM     21  C   UNL     1       1.147  15.264  18.640  0.00  0.00    +0.000 A 
ATOM     22  C   UNL     1       1.968  16.385  18.761  0.00  0.00    +0.000 A 
ATOM     23  C   UNL     1       3.324  16.227  19.046  0.00  0.00    +0.000 A 
ATOM     24  C   UNL     1       3.870  14.949  19.221  0.00  0.00    +0.000 A 
ATOM     25  C   UNL     1       3.036  13.824  19.122  0.00  0.00    +0.000 A 
BRANCH  24  26
ATOM     26  C   UNL     1       5.334  14.856  19.507  0.00  0.00    +0.000 C 
ATOM     27  O   UNL     1       5.726  14.793  20.671  0.00  0.00    +0.000 OA
ATOM     28  N   UNL     1       6.190  14.884  18.425  0.00  0.00    +0.000 N 
ATOM     29  H   UNL     1       5.824  15.163  17.525  0.00  0.00    +0.000 HD
BRANCH  28  30
ATOM     30  C   UNL     1       7.642  14.931  18.604  0.00  0.00    +0.000 C 
ATOM     31  C   UNL     1       8.262  16.125  17.875  0.00  0.00    +0.000 C 
ATOM     32  C   UNL     1       9.785  16.117  18.022  0.00  0.00    +0.000 C 
ATOM     33  N   UNL     1      10.362  14.853  17.539  0.00  0.00    +0.000 NA
ATOM     34  C   UNL     1      11.821  14.880  17.662  0.00  0.00    +0.000 C 
ATOM     35  C   UNL     1       9.810  13.702  18.265  0.00  0.00    +0.000 C 
ATOM     36  C   UNL     1       8.289  13.634  18.123  0.00  0.00    +0.000 C 
ENDBRANCH  28  30
ENDBRANCH  24  26
ENDBRANCH  19  20
ENDBRANCH   3  19
TORSDOF 7
ENDMDL
