MODEL 1
REMARK VINA RESULT:      -6.6      0.000      0.000
REMARK  Name = 
REMARK  6 active torsions:
REMARK  status: ('A' for Active; 'I' for Inactive)
REMARK    1  A    between atoms: C_2  and  O_3
REMARK    2  A    between atoms: C_2  and  C_4
REMARK    3  A    between atoms: C_4  and  C_5
REMARK    4  A    between atoms: C_5  and  N_6
REMARK    5  A    between atoms: C_7  and  C_8
REMARK    6  A    between atoms: C_8  and  O_9
REMARK                            x       y       z     vdW  Elec       q    Type
REMARK                         _______ _______ _______ _____ _____    ______ ____
ROOT
ATOM      1  N   UNL     1       5.113   5.130  17.588  0.00  0.00    +0.000 N 
ATOM      2  C   UNL     1       6.116   4.662  18.416  0.00  0.00    +0.000 A 
ATOM      3  N   UNL     1       5.628   3.826  19.314  0.00  0.00    +0.000 NA
ATOM      4  C   UNL     1       4.275   3.789  19.098  0.00  0.00    +0.000 A 
ATOM      5  C   UNL     1       3.284   3.093  19.805  0.00  0.00    +0.000 A 
ATOM      6  C   UNL     1       1.951   3.215  19.398  0.00  0.00    +0.000 A 
ATOM      7  C   UNL     1       1.613   4.011  18.303  0.00  0.00    +0.000 A 
ATOM      8  C   UNL     1       2.590   4.717  17.586  0.00  0.00    +0.000 A 
ATOM      9  C   UNL     1       3.918   4.587  18.014  0.00  0.00    +0.000 A 
ENDROOT
BRANCH   1  10
ATOM     10  C   UNL     1       5.269   6.082  16.502  0.00  0.00    +0.000 C 
BRANCH  10  11
ATOM     11  C   UNL     1       5.216   5.425  15.128  0.00  0.00    +0.000 C 
BRANCH  11  13
ATOM     12  O   UNL     1       7.618   5.326  14.840  0.00  0.00    +0.000 OA
ATOM     13  C   UNL     1       6.534   4.764  14.825  0.00  0.00    +0.000 C 
BRANCH  13  14
ATOM     14  O   UNL     1       6.403   3.457  14.509  0.00  0.00    +0.000 OA
ATOM     15  H   UNL     1       5.941   3.290  13.665  0.00  0.00    +0.000 HD
ENDBRANCH  13  14
ENDBRANCH  11  13
ENDBRANCH  10  11
ENDBRANCH   1  10
BRANCH   2  16
ATOM     16  C   UNL     1       7.544   5.073  18.329  0.00  0.00    +0.000 C 
BRANCH  16  17
ATOM     17  O   UNL     1       8.257   4.049  17.646  0.00  0.00    +0.000 OA
ATOM     18  H   UNL     1       7.623   3.677  17.006  0.00  0.00    +0.000 HD
ENDBRANCH  16  17
ENDBRANCH   2  16
TORSDOF 6
ENDMDL
MODEL 2
REMARK VINA RESULT:      -6.6      0.810      1.088
REMARK  Name = 
REMARK  6 active torsions:
REMARK  status: ('A' for Active; 'I' for Inactive)
REMARK    1  A    between atoms: C_2  and  O_3
REMARK    2  A    between atoms: C_2  and  C_4
REMARK    3  A    between atoms: C_4  and  C_5
REMARK    4  A    between atoms: C_5  and  N_6
REMARK    5  A    between atoms: C_7  and  C_8
REMARK    6  A    between atoms: C_8  and  O_9
REMARK                            x       y       z     vdW  Elec       q    Type
REMARK                         _______ _______ _______ _____ _____    ______ ____
ROOT
ATOM      1  N   UNL     1       5.062   4.452  17.279  0.00  0.00    +0.000 N 
ATOM      2  C   UNL     1       6.028   4.476  18.266  0.00  0.00    +0.000 A 
ATOM      3  N   UNL     1       5.573   3.933  19.380  0.00  0.00    +0.000 NA
ATOM      4  C   UNL     1       4.268   3.596  19.128  0.00  0.00    +0.000 A 
ATOM      5  C   UNL     1       3.318   3.030  19.990  0.00  0.00    +0.000 A 
ATOM      6  C   UNL     1       2.031   2.776  19.504  0.00  0.00    +0.000 A 
ATOM      7  C   UNL     1       1.700   3.075  18.182  0.00  0.00    +0.000 A 
ATOM      8  C   UNL     1       2.636   3.643  17.306  0.00  0.00    +0.000 A 
ATOM      9  C   UNL     1       3.918   3.896  17.815  0.00  0.00    +0.000 A 
ENDROOT
BRANCH   1  10
ATOM     10  C   UNL     1       5.193   4.981  15.933  0.00  0.00    +0.000 C 
BRANCH  10  11
ATOM     11  C   UNL     1       5.699   3.943  14.937  0.00  0.00    +0.000 C 
BRANCH  11  13
ATOM     12  O   UNL     1       6.898   4.328  12.869  0.00  0.00    +0.000 OA
ATOM     13  C   UNL     1       6.764   4.549  14.062  0.00  0.00    +0.000 C 
BRANCH  13  14
ATOM     14  O   UNL     1       7.593   5.372  14.741  0.00  0.00    +0.000 OA
ATOM     15  H   UNL     1       8.264   5.815  14.187  0.00  0.00    +0.000 HD
ENDBRANCH  13  14
ENDBRANCH  11  13
ENDBRANCH  10  11
ENDBRANCH   1  10
BRANCH   2  16
ATOM     16  C   UNL     1       7.386   5.067  18.106  0.00  0.00    +0.000 C 
BRANCH  16  17
ATOM     17  O   UNL     1       8.200   4.122  17.423  0.00  0.00    +0.000 OA
ATOM     18  H   UNL     1       9.117   4.409  17.583  0.00  0.00    +0.000 HD
ENDBRANCH  16  17
ENDBRANCH   2  16
TORSDOF 6
ENDMDL
MODEL 3
REMARK VINA RESULT:      -6.4      1.594      2.941
REMARK  Name = 
REMARK  6 active torsions:
REMARK  status: ('A' for Active; 'I' for Inactive)
REMARK    1  A    between atoms: C_2  and  O_3
REMARK    2  A    between atoms: C_2  and  C_4
REMARK    3  A    between atoms: C_4  and  C_5
REMARK    4  A    between atoms: C_5  and  N_6
REMARK    5  A    between atoms: C_7  and  C_8
REMARK    6  A    between atoms: C_8  and  O_9
REMARK                            x       y       z     vdW  Elec       q    Type
REMARK                         _______ _______ _______ _____ _____    ______ ____
ROOT
ATOM      1  N   UNL     1       3.958   4.846  18.197  0.00  0.00    +0.000 N 
ATOM      2  C   UNL     1       3.939   4.121  17.021  0.00  0.00    +0.000 A 
ATOM      3  N   UNL     1       2.916   3.286  17.003  0.00  0.00    +0.000 NA
ATOM      4  C   UNL     1       2.287   3.434  18.211  0.00  0.00    +0.000 A 
ATOM      5  C   UNL     1       1.174   2.750  18.721  0.00  0.00    +0.000 A 
ATOM      6  C   UNL     1       0.709   3.074  20.000  0.00  0.00    +0.000 A 
ATOM      7  C   UNL     1       1.337   4.066  20.753  0.00  0.00    +0.000 A 
ATOM      8  C   UNL     1       2.452   4.759  20.261  0.00  0.00    +0.000 A 
ATOM      9  C   UNL     1       2.907   4.415  18.981  0.00  0.00    +0.000 A 
ENDROOT
BRANCH   1  10
ATOM     10  C   UNL     1       4.946   5.839  18.579  0.00  0.00    +0.000 C 
BRANCH  10  11
ATOM     11  C   UNL     1       6.127   5.237  19.333  0.00  0.00    +0.000 C 
BRANCH  11  13
ATOM     12  O   UNL     1       7.935   6.522  18.361  0.00  0.00    +0.000 OA
ATOM     13  C   UNL     1       7.395   5.443  18.547  0.00  0.00    +0.000 C 
BRANCH  13  14
ATOM     14  O   UNL     1       7.886   4.292  18.038  0.00  0.00    +0.000 OA
ATOM     15  H   UNL     1       7.650   3.493  18.546  0.00  0.00    +0.000 HD
ENDBRANCH  13  14
ENDBRANCH  11  13
ENDBRANCH  10  11
ENDBRANCH   1  10
BRANCH   2  16
ATOM     16  C   UNL     1       4.954   4.239  15.938  0.00  0.00    +0.000 C 
BRANCH  16  17
ATOM     17  O   UNL     1       5.934   3.227  16.139  0.00  0.00    +0.000 OA
ATOM     18  H   UNL     1       5.443   2.386  16.111  0.00  0.00    +0.000 HD
ENDBRANCH  16  17
ENDBRANCH   2  16
TORSDOF 6
ENDMDL
MODEL 4
REMARK VINA RESULT:      -6.3      1.305      1.352
REMARK  Name = 
REMARK  6 active torsions:
REMARK  status: ('A' for Active; 'I' for Inactive)
REMARK    1  A    between atoms: C_2  and  O_3
REMARK    2  A    between atoms: C_2  and  C_4
REMARK    3  A    between atoms: C_4  and  C_5
REMARK    4  A    between atoms: C_5  and  N_6
REMARK    5  A    between atoms: C_7  and  C_8
REMARK    6  A    between atoms: C_8  and  O_9
REMARK                            x       y       z     vdW  Elec       q    Type
REMARK                         _______ _______ _______ _____ _____    ______ ____
ROOT
ATOM      1  N   UNL     1       5.430   4.454  17.764  0.00  0.00    +0.000 N 
ATOM      2  C   UNL     1       5.974   5.137  18.836  0.00  0.00    +0.000 A 
ATOM      3  N   UNL     1       5.061   5.350  19.765  0.00  0.00    +0.000 NA
ATOM      4  C   UNL     1       3.890   4.842  19.267  0.00  0.00    +0.000 A 
ATOM      5  C   UNL     1       2.607   4.851  19.834  0.00  0.00    +0.000 A 
ATOM      6  C   UNL     1       1.550   4.269  19.126  0.00  0.00    +0.000 A 
ATOM      7  C   UNL     1       1.769   3.682  17.879  0.00  0.00    +0.000 A 
ATOM      8  C   UNL     1       3.044   3.666  17.295  0.00  0.00    +0.000 A 
ATOM      9  C   UNL     1       4.088   4.261  18.017  0.00  0.00    +0.000 A 
ENDROOT
BRANCH   1  10
ATOM     10  C   UNL     1       6.126   4.067  16.549  0.00  0.00    +0.000 C 
BRANCH  10  11
ATOM     11  C   UNL     1       5.844   5.007  15.382  0.00  0.00    +0.000 C 
BRANCH  11  13
ATOM     12  O   UNL     1       7.773   5.439  13.983  0.00  0.00    +0.000 OA
ATOM     13  C   UNL     1       6.813   4.738  14.262  0.00  0.00    +0.000 C 
BRANCH  13  14
ATOM     14  O   UNL     1       6.505   3.624  13.561  0.00  0.00    +0.000 OA
ATOM     15  H   UNL     1       6.621   3.711  12.595  0.00  0.00    +0.000 HD
ENDBRANCH  13  14
ENDBRANCH  11  13
ENDBRANCH  10  11
ENDBRANCH   1  10
BRANCH   2  16
ATOM     16  C   UNL     1       7.387   5.600  18.914  0.00  0.00    +0.000 C 
BRANCH  16  17
ATOM     17  O   UNL     1       7.808   5.503  20.270  0.00  0.00    +0.000 OA
ATOM     18  H   UNL     1       8.774   5.625  20.248  0.00  0.00    +0.000 HD
ENDBRANCH  16  17
ENDBRANCH   2  16
TORSDOF 6
ENDMDL
MODEL 5
REMARK VINA RESULT:      -6.2      3.118      4.927
REMARK  Name = 
REMARK  6 active torsions:
REMARK  status: ('A' for Active; 'I' for Inactive)
REMARK    1  A    between atoms: C_2  and  O_3
REMARK    2  A    between atoms: C_2  and  C_4
REMARK    3  A    between atoms: C_4  and  C_5
REMARK    4  A    between atoms: C_5  and  N_6
REMARK    5  A    between atoms: C_7  and  C_8
REMARK    6  A    between atoms: C_8  and  O_9
REMARK                            x       y       z     vdW  Elec       q    Type
REMARK                         _______ _______ _______ _____ _____    ______ ____
ROOT
ATOM      1  N   UNL     1       4.086   3.916  18.119  0.00  0.00    +0.000 N 
ATOM      2  C   UNL     1       4.685   3.426  19.264  0.00  0.00    +0.000 A 
ATOM      3  N   UNL     1       5.777   4.110  19.549  0.00  0.00    +0.000 NA
ATOM      4  C   UNL     1       5.919   5.030  18.543  0.00  0.00    +0.000 A 
ATOM      5  C   UNL     1       6.937   5.973  18.341  0.00  0.00    +0.000 A 
ATOM      6  C   UNL     1       6.870   6.813  17.225  0.00  0.00    +0.000 A 
ATOM      7  C   UNL     1       5.804   6.719  16.330  0.00  0.00    +0.000 A 
ATOM      8  C   UNL     1       4.777   5.782  16.514  0.00  0.00    +0.000 A 
ATOM      9  C   UNL     1       4.867   4.945  17.635  0.00  0.00    +0.000 A 
ENDROOT
BRANCH   1  10
ATOM     10  C   UNL     1       2.882   3.400  17.490  0.00  0.00    +0.000 C 
BRANCH  10  11
ATOM     11  C   UNL     1       1.616   4.091  17.982  0.00  0.00    +0.000 C 
BRANCH  11  13
ATOM     12  O   UNL     1       0.283   2.144  18.528  0.00  0.00    +0.000 OA
ATOM     13  C   UNL     1       0.847   3.166  18.887  0.00  0.00    +0.000 C 
BRANCH  13  14
ATOM     14  O   UNL     1       0.823   3.591  20.170  0.00  0.00    +0.000 OA
ATOM     15  H   UNL     1       1.239   2.978  20.806  0.00  0.00    +0.000 HD
ENDBRANCH  13  14
ENDBRANCH  11  13
ENDBRANCH  10  11
ENDBRANCH   1  10
BRANCH   2  16
ATOM     16  C   UNL     1       4.186   2.262  20.047  0.00  0.00    +0.000 C 
BRANCH  16  17
ATOM     17  O   UNL     1       5.259   1.339  20.197  0.00  0.00    +0.000 OA
ATOM     18  H   UNL     1       5.943   1.819  20.698  0.00  0.00    +0.000 HD
ENDBRANCH  16  17
ENDBRANCH   2  16
TORSDOF 6
ENDMDL
MODEL 6
REMARK VINA RESULT:      -6.1      3.462      5.713
REMARK  Name = 
REMARK  6 active torsions:
REMARK  status: ('A' for Active; 'I' for Inactive)
REMARK    1  A    between atoms: C_2  and  O_3
REMARK    2  A    between atoms: C_2  and  C_4
REMARK    3  A    between atoms: C_4  and  C_5
REMARK    4  A    between atoms: C_5  and  N_6
REMARK    5  A    between atoms: C_7  and  C_8
REMARK    6  A    between atoms: C_8  and  O_9
REMARK                            x       y       z     vdW  Elec       q    Type
REMARK                         _______ _______ _______ _____ _____    ______ ____
ROOT
ATOM      1  N   UNL     1       4.299   3.825  18.749  0.00  0.00    +0.000 N 
ATOM      2  C   UNL     1       3.682   3.521  17.550  0.00  0.00    +0.000 A 
ATOM      3  N   UNL     1       4.329   4.070  16.540  0.00  0.00    +0.000 NA
ATOM      4  C   UNL     1       5.357   4.787  17.095  0.00  0.00    +0.000 A 
ATOM      5  C   UNL     1       6.316   5.594  16.465  0.00  0.00    +0.000 A 
ATOM      6  C   UNL     1       7.277   6.239  17.250  0.00  0.00    +0.000 A 
ATOM      7  C   UNL     1       7.286   6.078  18.636  0.00  0.00    +0.000 A 
ATOM      8  C   UNL     1       6.334   5.277  19.283  0.00  0.00    +0.000 A 
ATOM      9  C   UNL     1       5.376   4.645  18.480  0.00  0.00    +0.000 A 
ENDROOT
BRANCH   1  10
ATOM     10  C   UNL     1       3.858   3.416  20.071  0.00  0.00    +0.000 C 
BRANCH  10  11
ATOM     11  C   UNL     1       2.715   4.272  20.604  0.00  0.00    +0.000 C 
BRANCH  11  13
ATOM     12  O   UNL     1       1.691   2.680  22.114  0.00  0.00    +0.000 OA
ATOM     13  C   UNL     1       1.612   3.388  21.123  0.00  0.00    +0.000 C 
BRANCH  13  14
ATOM     14  O   UNL     1       0.499   3.440  20.359  0.00  0.00    +0.000 OA
ATOM     15  H   UNL     1      -0.106   4.175  20.576  0.00  0.00    +0.000 HD
ENDBRANCH  13  14
ENDBRANCH  11  13
ENDBRANCH  10  11
ENDBRANCH   1  10
BRANCH   2  16
ATOM     16  C   UNL     1       2.437   2.715  17.421  0.00  0.00    +0.000 C 
BRANCH  16  17
ATOM     17  O   UNL     1       1.328   3.604  17.474  0.00  0.00    +0.000 OA
ATOM     18  H   UNL     1       1.680   4.471  17.200  0.00  0.00    +0.000 HD
ENDBRANCH  16  17
ENDBRANCH   2  16
TORSDOF 6
ENDMDL
MODEL 7
REMARK VINA RESULT:      -6.0      1.271      1.538
REMARK  Name = 
REMARK  6 active torsions:
REMARK  status: ('A' for Active; 'I' for Inactive)
REMARK    1  A    between atoms: C_2  and  O_3
REMARK    2  A    between atoms: C_2  and  C_4
REMARK    3  A    between atoms: C_4  and  C_5
REMARK    4  A    between atoms: C_5  and  N_6
REMARK    5  A    between atoms: C_7  and  C_8
REMARK    6  A    between atoms: C_8  and  O_9
REMARK                            x       y       z     vdW  Elec       q    Type
REMARK                         _______ _______ _______ _____ _____    ______ ____
ROOT
ATOM      1  N   UNL     1       5.717   4.906  17.691  0.00  0.00    +0.000 N 
ATOM      2  C   UNL     1       6.303   5.066  18.933  0.00  0.00    +0.000 A 
ATOM      3  N   UNL     1       5.583   4.477  19.869  0.00  0.00    +0.000 NA
ATOM      4  C   UNL     1       4.481   3.967  19.232  0.00  0.00    +0.000 A 
ATOM      5  C   UNL     1       3.380   3.288  19.773  0.00  0.00    +0.000 A 
ATOM      6  C   UNL     1       2.360   2.863  18.915  0.00  0.00    +0.000 A 
ATOM      7  C   UNL     1       2.439   3.104  17.543  0.00  0.00    +0.000 A 
ATOM      8  C   UNL     1       3.531   3.783  16.985  0.00  0.00    +0.000 A 
ATOM      9  C   UNL     1       4.539   4.208  17.862  0.00  0.00    +0.000 A 
ENDROOT
BRANCH   1  10
ATOM     10  C   UNL     1       6.211   5.436  16.432  0.00  0.00    +0.000 C 
BRANCH  10  11
ATOM     11  C   UNL     1       7.110   4.454  15.690  0.00  0.00    +0.000 C 
BRANCH  11  13
ATOM     12  O   UNL     1       6.219   4.090  13.468  0.00  0.00    +0.000 OA
ATOM     13  C   UNL     1       6.996   4.677  14.205  0.00  0.00    +0.000 C 
BRANCH  13  14
ATOM     14  O   UNL     1       7.868   5.601  13.747  0.00  0.00    +0.000 OA
ATOM     15  H   UNL     1       7.720   6.502  14.093  0.00  0.00    +0.000 HD
ENDBRANCH  13  14
ENDBRANCH  11  13
ENDBRANCH  10  11
ENDBRANCH   1  10
BRANCH   2  16
ATOM     16  C   UNL     1       7.557   5.829  19.184  0.00  0.00    +0.000 C 
BRANCH  16  17
ATOM     17  O   UNL     1       8.042   5.470  20.472  0.00  0.00    +0.000 OA
ATOM     18  H   UNL     1       7.813   4.529  20.579  0.00  0.00    +0.000 HD
ENDBRANCH  16  17
ENDBRANCH   2  16
TORSDOF 6
ENDMDL
MODEL 8
REMARK VINA RESULT:      -6.0      3.438      5.402
REMARK  Name = 
REMARK  6 active torsions:
REMARK  status: ('A' for Active; 'I' for Inactive)
REMARK    1  A    between atoms: C_2  and  O_3
REMARK    2  A    between atoms: C_2  and  C_4
REMARK    3  A    between atoms: C_4  and  C_5
REMARK    4  A    between atoms: C_5  and  N_6
REMARK    5  A    between atoms: C_7  and  C_8
REMARK    6  A    between atoms: C_8  and  O_9
REMARK                            x       y       z     vdW  Elec       q    Type
REMARK                         _______ _______ _______ _____ _____    ______ ____
ROOT
ATOM      1  N   UNL     1       2.982   4.184  18.385  0.00  0.00    +0.000 N 
ATOM      2  C   UNL     1       3.501   2.986  17.932  0.00  0.00    +0.000 A 
ATOM      3  N   UNL     1       4.477   3.196  17.069  0.00  0.00    +0.000 NA
ATOM      4  C   UNL     1       4.561   4.555  16.918  0.00  0.00    +0.000 A 
ATOM      5  C   UNL     1       5.401   5.304  16.082  0.00  0.00    +0.000 A 
ATOM      6  C   UNL     1       5.301   6.699  16.096  0.00  0.00    +0.000 A 
ATOM      7  C   UNL     1       4.384   7.336  16.933  0.00  0.00    +0.000 A 
ATOM      8  C   UNL     1       3.533   6.604  17.774  0.00  0.00    +0.000 A 
ATOM      9  C   UNL     1       3.645   5.208  17.740  0.00  0.00    +0.000 A 
ENDROOT
BRANCH   1  10
ATOM     10  C   UNL     1       1.884   4.346  19.322  0.00  0.00    +0.000 C 
BRANCH  10  11
ATOM     11  C   UNL     1       2.349   4.411  20.772  0.00  0.00    +0.000 C 
BRANCH  11  13
ATOM     12  O   UNL     1       2.775   2.477  22.165  0.00  0.00    +0.000 OA
ATOM     13  C   UNL     1       2.003   3.128  21.479  0.00  0.00    +0.000 C 
BRANCH  13  14
ATOM     14  O   UNL     1       0.725   2.742  21.265  0.00  0.00    +0.000 OA
ATOM     15  H   UNL     1       0.623   1.801  21.025  0.00  0.00    +0.000 HD
ENDBRANCH  13  14
ENDBRANCH  11  13
ENDBRANCH  10  11
ENDBRANCH   1  10
BRANCH   2  16
ATOM     16  C   UNL     1       3.002   1.642  18.336  0.00  0.00    +0.000 C 
BRANCH  16  17
ATOM     17  O   UNL     1       4.118   0.765  18.424  0.00  0.00    +0.000 OA
ATOM     18  H   UNL     1       4.784   1.247  18.946  0.00  0.00    +0.000 HD
ENDBRANCH  16  17
ENDBRANCH   2  16
TORSDOF 6
ENDMDL
MODEL 9
REMARK VINA RESULT:      -6.0      1.506      1.687
REMARK  Name = 
REMARK  6 active torsions:
REMARK  status: ('A' for Active; 'I' for Inactive)
REMARK    1  A    between atoms: C_2  and  O_3
REMARK    2  A    between atoms: C_2  and  C_4
REMARK    3  A    between atoms: C_4  and  C_5
REMARK    4  A    between atoms: C_5  and  N_6
REMARK    5  A    between atoms: C_7  and  C_8
REMARK    6  A    between atoms: C_8  and  O_9
REMARK                            x       y       z     vdW  Elec       q    Type
REMARK                         _______ _______ _______ _____ _____    ______ ____
ROOT
ATOM      1  N   UNL     1       5.099   4.200  17.908  0.00  0.00    +0.000 N 
ATOM      2  C   UNL     1       5.670   5.016  18.866  0.00  0.00    +0.000 A 
ATOM      3  N   UNL     1       4.795   5.314  19.808  0.00  0.00    +0.000 NA
ATOM      4  C   UNL     1       3.618   4.723  19.430  0.00  0.00    +0.000 A 
ATOM      5  C   UNL     1       2.363   4.766  20.054  0.00  0.00    +0.000 A 
ATOM      6  C   UNL     1       1.293   4.079  19.472  0.00  0.00    +0.000 A 
ATOM      7  C   UNL     1       1.472   3.357  18.292  0.00  0.00    +0.000 A 
ATOM      8  C   UNL     1       2.718   3.303  17.652  0.00  0.00    +0.000 A 
ATOM      9  C   UNL     1       3.775   4.004  18.247  0.00  0.00    +0.000 A 
ENDROOT
BRANCH   1  10
ATOM     10  C   UNL     1       5.749   3.690  16.713  0.00  0.00    +0.000 C 
BRANCH  10  11
ATOM     11  C   UNL     1       5.267   4.377  15.440  0.00  0.00    +0.000 C 
BRANCH  11  13
ATOM     12  O   UNL     1       5.334   6.792  15.277  0.00  0.00    +0.000 OA
ATOM     13  C   UNL     1       5.925   5.724  15.304  0.00  0.00    +0.000 C 
BRANCH  13  14
ATOM     14  O   UNL     1       7.269   5.640  15.196  0.00  0.00    +0.000 OA
ATOM     15  H   UNL     1       7.625   5.951  14.341  0.00  0.00    +0.000 HD
ENDBRANCH  13  14
ENDBRANCH  11  13
ENDBRANCH  10  11
ENDBRANCH   1  10
BRANCH   2  16
ATOM     16  C   UNL     1       7.070   5.520  18.821  0.00  0.00    +0.000 C 
BRANCH  16  17
ATOM     17  O   UNL     1       7.590   5.498  20.145  0.00  0.00    +0.000 OA
ATOM     18  H   UNL     1       8.224   4.759  20.160  0.00  0.00    +0.000 HD
ENDBRANCH  16  17
ENDBRANCH   2  16
TORSDOF 6
ENDMDL
