MODEL 1
REMARK VINA RESULT:      -7.5      0.000      0.000
REMARK  Name = 
REMARK  11 active torsions:
REMARK  status: ('A' for Active; 'I' for Inactive)
REMARK    1  A    between atoms: C_1  and  C_2
REMARK    2  A    between atoms: C_3  and  C_4
REMARK    3  A    between atoms: C_4  and  O_6
REMARK    4  A    between atoms: O_6  and  C_7
REMARK    5  A    between atoms: C_7  and  C_8
REMARK    6  A    between atoms: C_12  and  C_13
REMARK    7  A    between atoms: C_12  and  O_14
REMARK    8  A    between atoms: O_14  and  C_15
REMARK    9  A    between atoms: C_16  and  C_17
REMARK   10  A    between atoms: C_16  and  O_18
REMARK   11  A    between atoms: O_18  and  C_19
REMARK                            x       y       z     vdW  Elec       q    Type
REMARK                         _______ _______ _______ _____ _____    ______ ____
ROOT
ATOM      1  C   UNL     1       6.023   4.870  15.636  0.00  0.00    +0.000 C 
ATOM      2  C   UNL     1       4.914   4.140  15.868  0.00  0.00    +0.000 C 
ATOM      3  C   UNL     1       4.158   4.163  17.163  0.00  0.00    +0.000 C 
ATOM      4  O   UNL     1       3.613   2.862  17.386  0.00  0.00    +0.000 OA
ATOM      5  C   UNL     1       2.838   2.842  18.614  0.00  0.00    +0.000 C 
ATOM      6  C   UNL     1       2.330   1.398  18.767  0.00  0.00    +0.000 C 
ATOM      7  C   UNL     1       3.791   3.289  19.850  0.00  0.00    +0.000 C 
ATOM      8  C   UNL     1       2.993   3.455  21.156  0.00  0.00    +0.000 C 
ATOM      9  O   UNL     1       4.376   4.589  19.565  0.00  0.00    +0.000 OA
ATOM     10  C   UNL     1       5.080   4.564  18.314  0.00  0.00    +0.000 C 
ATOM     11  C   UNL     1       5.680   5.923  17.977  0.00  0.00    +0.000 C 
ATOM     12  F   UNL     1       4.674   6.831  17.787  0.00  0.00    +0.000 F 
ATOM     13  C   UNL     1       6.524   5.786  16.715  0.00  0.00    +0.000 C 
ATOM     14  O   UNL     1       7.539   6.456  16.540  0.00  0.00    +0.000 OA
ENDROOT
BRANCH   5  15
ATOM     15  O   UNL     1       1.721   3.753  18.510  0.00  0.00    +0.000 OA
ATOM     16  C   UNL     1       0.438   3.169  18.721  0.00  0.00    +0.000 C 
ENDBRANCH   5  15
BRANCH   7  17
ATOM     17  O   UNL     1       4.840   2.311  20.026  0.00  0.00    +0.000 OA
ATOM     18  C   UNL     1       4.789   1.576  21.247  0.00  0.00    +0.000 C 
ENDBRANCH   7  17
BRANCH   1  19
ATOM     19  C   UNL     1       6.824   4.838  14.363  0.00  0.00    +0.000 C 
BRANCH  19  20
ATOM     20  O   UNL     1       6.620   3.615  13.638  0.00  0.00    +0.000 OA
BRANCH  20  21
ATOM     21  C   UNL     1       6.638   3.764  12.290  0.00  0.00    +0.000 C 
ATOM     22  O   UNL     1       7.442   4.395  11.637  0.00  0.00    +0.000 OA
BRANCH  21  25
ATOM     23  C   UNL     1       3.204   2.918  10.758  0.00  0.00    +0.000 C 
ATOM     24  C   UNL     1       4.380   3.623  11.346  0.00  0.00    +0.000 C 
ATOM     25  C   UNL     1       5.500   2.991  11.721  0.00  0.00    +0.000 C 
ENDBRANCH  21  25
ENDBRANCH  20  21
ENDBRANCH  19  20
ENDBRANCH   1  19
TORSDOF 6
ENDMDL
MODEL 2
REMARK VINA RESULT:      -7.3      1.123      1.171
REMARK  Name = 
REMARK  11 active torsions:
REMARK  status: ('A' for Active; 'I' for Inactive)
REMARK    1  A    between atoms: C_1  and  C_2
REMARK    2  A    between atoms: C_3  and  C_4
REMARK    3  A    between atoms: C_4  and  O_6
REMARK    4  A    between atoms: O_6  and  C_7
REMARK    5  A    between atoms: C_7  and  C_8
REMARK    6  A    between atoms: C_12  and  C_13
REMARK    7  A    between atoms: C_12  and  O_14
REMARK    8  A    between atoms: O_14  and  C_15
REMARK    9  A    between atoms: C_16  and  C_17
REMARK   10  A    between atoms: C_16  and  O_18
REMARK   11  A    between atoms: O_18  and  C_19
REMARK                            x       y       z     vdW  Elec       q    Type
REMARK                         _______ _______ _______ _____ _____    ______ ____
ROOT
ATOM      1  C   UNL     1       5.742   4.259  15.647  0.00  0.00    +0.000 C 
ATOM      2  C   UNL     1       4.444   4.100  15.971  0.00  0.00    +0.000 C 
ATOM      3  C   UNL     1       3.929   4.116  17.378  0.00  0.00    +0.000 C 
ATOM      4  O   UNL     1       2.823   3.216  17.461  0.00  0.00    +0.000 OA
ATOM      5  C   UNL     1       2.264   3.224  18.802  0.00  0.00    +0.000 C 
ATOM      6  C   UNL     1       1.111   2.205  18.782  0.00  0.00    +0.000 C 
ATOM      7  C   UNL     1       3.423   2.813  19.863  0.00  0.00    +0.000 C 
ATOM      8  C   UNL     1       2.945   2.966  21.318  0.00  0.00    +0.000 C 
ATOM      9  O   UNL     1       4.556   3.711  19.712  0.00  0.00    +0.000 OA
ATOM     10  C   UNL     1       5.030   3.706  18.356  0.00  0.00    +0.000 C 
ATOM     11  C   UNL     1       6.202   4.660  18.164  0.00  0.00    +0.000 C 
ATOM     12  F   UNL     1       5.782   5.945  18.376  0.00  0.00    +0.000 F 
ATOM     13  C   UNL     1       6.737   4.498  16.746  0.00  0.00    +0.000 C 
ATOM     14  O   UNL     1       7.930   4.635  16.486  0.00  0.00    +0.000 OA
ENDROOT
BRANCH   5  15
ATOM     15  O   UNL     1       1.760   4.539  19.121  0.00  0.00    +0.000 OA
ATOM     16  C   UNL     1       0.870   4.596  20.234  0.00  0.00    +0.000 C 
ENDBRANCH   5  15
BRANCH   7  17
ATOM     17  O   UNL     1       3.843   1.453  19.614  0.00  0.00    +0.000 OA
ATOM     18  C   UNL     1       4.906   0.984  20.440  0.00  0.00    +0.000 C 
ENDBRANCH   7  17
BRANCH   1  19
ATOM     19  C   UNL     1       6.294   4.208  14.247  0.00  0.00    +0.000 C 
BRANCH  19  20
ATOM     20  O   UNL     1       5.267   3.930  13.283  0.00  0.00    +0.000 OA
BRANCH  20  21
ATOM     21  C   UNL     1       5.710   3.278  12.179  0.00  0.00    +0.000 C 
ATOM     22  O   UNL     1       6.856   2.972  11.924  0.00  0.00    +0.000 OA
BRANCH  21  25
ATOM     23  C   UNL     1       2.736   3.715   9.767  0.00  0.00    +0.000 C 
ATOM     24  C   UNL     1       3.910   3.950  10.656  0.00  0.00    +0.000 C 
ATOM     25  C   UNL     1       4.536   2.968  11.319  0.00  0.00    +0.000 C 
ENDBRANCH  21  25
ENDBRANCH  20  21
ENDBRANCH  19  20
ENDBRANCH   1  19
TORSDOF 6
ENDMDL
MODEL 3
REMARK VINA RESULT:      -7.1      1.443      1.609
REMARK  Name = 
REMARK  11 active torsions:
REMARK  status: ('A' for Active; 'I' for Inactive)
REMARK    1  A    between atoms: C_1  and  C_2
REMARK    2  A    between atoms: C_3  and  C_4
REMARK    3  A    between atoms: C_4  and  O_6
REMARK    4  A    between atoms: O_6  and  C_7
REMARK    5  A    between atoms: C_7  and  C_8
REMARK    6  A    between atoms: C_12  and  C_13
REMARK    7  A    between atoms: C_12  and  O_14
REMARK    8  A    between atoms: O_14  and  C_15
REMARK    9  A    between atoms: C_16  and  C_17
REMARK   10  A    between atoms: C_16  and  O_18
REMARK   11  A    between atoms: O_18  and  C_19
REMARK                            x       y       z     vdW  Elec       q    Type
REMARK                         _______ _______ _______ _____ _____    ______ ____
ROOT
ATOM      1  C   UNL     1       6.236   4.625  15.927  0.00  0.00    +0.000 C 
ATOM      2  C   UNL     1       4.934   4.896  16.144  0.00  0.00    +0.000 C 
ATOM      3  C   UNL     1       4.332   5.055  17.508  0.00  0.00    +0.000 C 
ATOM      4  O   UNL     1       2.991   4.566  17.465  0.00  0.00    +0.000 OA
ATOM      5  C   UNL     1       2.350   4.733  18.758  0.00  0.00    +0.000 C 
ATOM      6  C   UNL     1       0.935   4.150  18.604  0.00  0.00    +0.000 C 
ATOM      7  C   UNL     1       3.215   3.946  19.884  0.00  0.00    +0.000 C 
ATOM      8  C   UNL     1       2.689   4.221  21.304  0.00  0.00    +0.000 C 
ATOM      9  O   UNL     1       4.588   4.424  19.861  0.00  0.00    +0.000 OA
ATOM     10  C   UNL     1       5.150   4.288  18.547  0.00  0.00    +0.000 C 
ATOM     11  C   UNL     1       6.580   4.808  18.488  0.00  0.00    +0.000 C 
ATOM     12  F   UNL     1       6.586   6.156  18.725  0.00  0.00    +0.000 F 
ATOM     13  C   UNL     1       7.155   4.504  17.109  0.00  0.00    +0.000 C 
ATOM     14  O   UNL     1       8.346   4.247  16.948  0.00  0.00    +0.000 OA
ENDROOT
BRANCH   5  15
ATOM     15  O   UNL     1       2.276   6.135  19.097  0.00  0.00    +0.000 OA
ATOM     16  C   UNL     1       2.014   7.013  18.005  0.00  0.00    +0.000 C 
ENDBRANCH   5  15
BRANCH   7  17
ATOM     17  O   UNL     1       3.189   2.528  19.607  0.00  0.00    +0.000 OA
ATOM     18  C   UNL     1       4.127   1.747  20.344  0.00  0.00    +0.000 C 
ENDBRANCH   7  17
BRANCH   1  19
ATOM     19  C   UNL     1       6.861   4.421  14.573  0.00  0.00    +0.000 C 
BRANCH  19  20
ATOM     20  O   UNL     1       6.044   3.592  13.733  0.00  0.00    +0.000 OA
BRANCH  20  21
ATOM     21  C   UNL     1       6.368   3.653  12.417  0.00  0.00    +0.000 C 
ATOM     22  O   UNL     1       7.347   4.178  11.931  0.00  0.00    +0.000 OA
BRANCH  21  25
ATOM     23  C   UNL     1       3.120   2.927  10.472  0.00  0.00    +0.000 C 
ATOM     24  C   UNL     1       4.209   3.578  11.257  0.00  0.00    +0.000 C 
ATOM     25  C   UNL     1       5.317   2.933  11.645  0.00  0.00    +0.000 C 
ENDBRANCH  21  25
ENDBRANCH  20  21
ENDBRANCH  19  20
ENDBRANCH   1  19
TORSDOF 6
ENDMDL
MODEL 4
REMARK VINA RESULT:      -7.0      1.969      2.513
REMARK  Name = 
REMARK  11 active torsions:
REMARK  status: ('A' for Active; 'I' for Inactive)
REMARK    1  A    between atoms: C_1  and  C_2
REMARK    2  A    between atoms: C_3  and  C_4
REMARK    3  A    between atoms: C_4  and  O_6
REMARK    4  A    between atoms: O_6  and  C_7
REMARK    5  A    between atoms: C_7  and  C_8
REMARK    6  A    between atoms: C_12  and  C_13
REMARK    7  A    between atoms: C_12  and  O_14
REMARK    8  A    between atoms: O_14  and  C_15
REMARK    9  A    between atoms: C_16  and  C_17
REMARK   10  A    between atoms: C_16  and  O_18
REMARK   11  A    between atoms: O_18  and  C_19
REMARK                            x       y       z     vdW  Elec       q    Type
REMARK                         _______ _______ _______ _____ _____    ______ ____
ROOT
ATOM      1  C   UNL     1       6.863   5.135  16.465  0.00  0.00    +0.000 C 
ATOM      2  C   UNL     1       5.644   5.706  16.501  0.00  0.00    +0.000 C 
ATOM      3  C   UNL     1       4.797   5.787  17.736  0.00  0.00    +0.000 C 
ATOM      4  O   UNL     1       3.426   5.693  17.347  0.00  0.00    +0.000 OA
ATOM      5  C   UNL     1       2.563   5.804  18.509  0.00  0.00    +0.000 C 
ATOM      6  C   UNL     1       1.125   5.660  17.979  0.00  0.00    +0.000 C 
ATOM      7  C   UNL     1       2.943   4.633  19.567  0.00  0.00    +0.000 C 
ATOM      8  C   UNL     1       2.182   4.793  20.895  0.00  0.00    +0.000 C 
ATOM      9  O   UNL     1       4.356   4.719  19.896  0.00  0.00    +0.000 OA
ATOM     10  C   UNL     1       5.158   4.662  18.706  0.00  0.00    +0.000 C 
ATOM     11  C   UNL     1       6.644   4.779  19.022  0.00  0.00    +0.000 C 
ATOM     12  F   UNL     1       6.902   6.014  19.550  0.00  0.00    +0.000 F 
ATOM     13  C   UNL     1       7.434   4.571  17.734  0.00  0.00    +0.000 C 
ATOM     14  O   UNL     1       8.539   4.033  17.734  0.00  0.00    +0.000 OA
ENDROOT
BRANCH   5  15
ATOM     15  O   UNL     1       2.734   7.095  19.134  0.00  0.00    +0.000 OA
ATOM     16  C   UNL     1       2.087   8.181  18.475  0.00  0.00    +0.000 C 
ENDBRANCH   5  15
BRANCH   7  17
ATOM     17  O   UNL     1       2.658   3.344  18.980  0.00  0.00    +0.000 OA
ATOM     18  C   UNL     1       2.219   2.342  19.895  0.00  0.00    +0.000 C 
ENDBRANCH   7  17
BRANCH   1  19
ATOM     19  C   UNL     1       7.718   5.004  15.233  0.00  0.00    +0.000 C 
BRANCH  19  20
ATOM     20  O   UNL     1       6.967   5.264  14.038  0.00  0.00    +0.000 OA
BRANCH  20  21
ATOM     21  C   UNL     1       7.706   5.212  12.901  0.00  0.00    +0.000 C 
ATOM     22  O   UNL     1       8.630   5.938  12.598  0.00  0.00    +0.000 OA
BRANCH  21  25
ATOM     23  C   UNL     1       5.463   2.374  11.571  0.00  0.00    +0.000 C 
ATOM     24  C   UNL     1       6.032   3.504  12.361  0.00  0.00    +0.000 C 
ATOM     25  C   UNL     1       7.207   4.080  12.073  0.00  0.00    +0.000 C 
ENDBRANCH  21  25
ENDBRANCH  20  21
ENDBRANCH  19  20
ENDBRANCH   1  19
TORSDOF 6
ENDMDL
MODEL 5
REMARK VINA RESULT:      -6.9      1.603      2.008
REMARK  Name = 
REMARK  11 active torsions:
REMARK  status: ('A' for Active; 'I' for Inactive)
REMARK    1  A    between atoms: C_1  and  C_2
REMARK    2  A    between atoms: C_3  and  C_4
REMARK    3  A    between atoms: C_4  and  O_6
REMARK    4  A    between atoms: O_6  and  C_7
REMARK    5  A    between atoms: C_7  and  C_8
REMARK    6  A    between atoms: C_12  and  C_13
REMARK    7  A    between atoms: C_12  and  O_14
REMARK    8  A    between atoms: O_14  and  C_15
REMARK    9  A    between atoms: C_16  and  C_17
REMARK   10  A    between atoms: C_16  and  O_18
REMARK   11  A    between atoms: O_18  and  C_19
REMARK                            x       y       z     vdW  Elec       q    Type
REMARK                         _______ _______ _______ _____ _____    ______ ____
ROOT
ATOM      1  C   UNL     1       5.895   5.420  16.353  0.00  0.00    +0.000 C 
ATOM      2  C   UNL     1       4.675   5.614  16.890  0.00  0.00    +0.000 C 
ATOM      3  C   UNL     1       4.265   5.098  18.237  0.00  0.00    +0.000 C 
ATOM      4  O   UNL     1       2.876   4.770  18.188  0.00  0.00    +0.000 OA
ATOM      5  C   UNL     1       2.423   4.298  19.484  0.00  0.00    +0.000 C 
ATOM      6  C   UNL     1       0.935   3.949  19.307  0.00  0.00    +0.000 C 
ATOM      7  C   UNL     1       3.305   3.006  19.918  0.00  0.00    +0.000 C 
ATOM      8  C   UNL     1       2.993   2.557  21.357  0.00  0.00    +0.000 C 
ATOM      9  O   UNL     1       4.716   3.356  19.900  0.00  0.00    +0.000 OA
ATOM     10  C   UNL     1       5.094   3.870  18.613  0.00  0.00    +0.000 C 
ATOM     11  C   UNL     1       6.563   4.271  18.576  0.00  0.00    +0.000 C 
ATOM     12  F   UNL     1       6.773   5.313  19.436  0.00  0.00    +0.000 F 
ATOM     13  C   UNL     1       6.924   4.671  17.150  0.00  0.00    +0.000 C 
ATOM     14  O   UNL     1       8.043   4.466  16.684  0.00  0.00    +0.000 OA
ENDROOT
BRANCH   5  15
ATOM     15  O   UNL     1       2.574   5.341  20.473  0.00  0.00    +0.000 OA
ATOM     16  C   UNL     1       1.448   6.202  20.627  0.00  0.00    +0.000 C 
ENDBRANCH   5  15
BRANCH   7  17
ATOM     17  O   UNL     1       3.060   1.925  18.992  0.00  0.00    +0.000 OA
ATOM     18  C   UNL     1       4.050   0.899  18.979  0.00  0.00    +0.000 C 
ENDBRANCH   7  17
BRANCH   1  19
ATOM     19  C   UNL     1       6.321   5.891  14.988  0.00  0.00    +0.000 C 
BRANCH  19  20
ATOM     20  O   UNL     1       6.265   4.832  14.021  0.00  0.00    +0.000 OA
BRANCH  20  21
ATOM     21  C   UNL     1       7.227   4.906  13.066  0.00  0.00    +0.000 C 
ATOM     22  O   UNL     1       8.128   5.716  13.001  0.00  0.00    +0.000 OA
BRANCH  21  25
ATOM     23  C   UNL     1       5.653   1.869  11.290  0.00  0.00    +0.000 C 
ATOM     24  C   UNL     1       5.942   2.995  12.225  0.00  0.00    +0.000 C 
ATOM     25  C   UNL     1       7.010   3.794  12.101  0.00  0.00    +0.000 C 
ENDBRANCH  21  25
ENDBRANCH  20  21
ENDBRANCH  19  20
ENDBRANCH   1  19
TORSDOF 6
ENDMDL
MODEL 6
REMARK VINA RESULT:      -6.8      0.812      1.089
REMARK  Name = 
REMARK  11 active torsions:
REMARK  status: ('A' for Active; 'I' for Inactive)
REMARK    1  A    between atoms: C_1  and  C_2
REMARK    2  A    between atoms: C_3  and  C_4
REMARK    3  A    between atoms: C_4  and  O_6
REMARK    4  A    between atoms: O_6  and  C_7
REMARK    5  A    between atoms: C_7  and  C_8
REMARK    6  A    between atoms: C_12  and  C_13
REMARK    7  A    between atoms: C_12  and  O_14
REMARK    8  A    between atoms: O_14  and  C_15
REMARK    9  A    between atoms: C_16  and  C_17
REMARK   10  A    between atoms: C_16  and  O_18
REMARK   11  A    between atoms: O_18  and  C_19
REMARK                            x       y       z     vdW  Elec       q    Type
REMARK                         _______ _______ _______ _____ _____    ______ ____
ROOT
ATOM      1  C   UNL     1       5.970   4.772  15.482  0.00  0.00    +0.000 C 
ATOM      2  C   UNL     1       4.868   4.053  15.770  0.00  0.00    +0.000 C 
ATOM      3  C   UNL     1       4.150   4.117  17.085  0.00  0.00    +0.000 C 
ATOM      4  O   UNL     1       3.610   2.825  17.365  0.00  0.00    +0.000 OA
ATOM      5  C   UNL     1       2.872   2.846  18.615  0.00  0.00    +0.000 C 
ATOM      6  C   UNL     1       2.366   1.408  18.828  0.00  0.00    +0.000 C 
ATOM      7  C   UNL     1       3.862   3.327  19.808  0.00  0.00    +0.000 C 
ATOM      8  C   UNL     1       3.104   3.535  21.132  0.00  0.00    +0.000 C 
ATOM      9  O   UNL     1       4.441   4.616  19.466  0.00  0.00    +0.000 OA
ATOM     10  C   UNL     1       5.107   4.551  18.195  0.00  0.00    +0.000 C 
ATOM     11  C   UNL     1       5.699   5.898  17.800  0.00  0.00    +0.000 C 
ATOM     12  F   UNL     1       4.690   6.802  17.611  0.00  0.00    +0.000 F 
ATOM     13  C   UNL     1       6.505   5.719  16.518  0.00  0.00    +0.000 C 
ATOM     14  O   UNL     1       7.516   6.380  16.292  0.00  0.00    +0.000 OA
ENDROOT
BRANCH   5  15
ATOM     15  O   UNL     1       1.755   3.756  18.517  0.00  0.00    +0.000 OA
ATOM     16  C   UNL     1       0.469   3.160  18.672  0.00  0.00    +0.000 C 
ENDBRANCH   5  15
BRANCH   7  17
ATOM     17  O   UNL     1       4.914   2.352  19.983  0.00  0.00    +0.000 OA
ATOM     18  C   UNL     1       4.829   1.571  21.172  0.00  0.00    +0.000 C 
ENDBRANCH   7  17
BRANCH   1  19
ATOM     19  C   UNL     1       6.734   4.698  14.187  0.00  0.00    +0.000 C 
BRANCH  19  20
ATOM     20  O   UNL     1       5.904   4.240  13.109  0.00  0.00    +0.000 OA
BRANCH  20  21
ATOM     21  C   UNL     1       6.590   3.636  12.105  0.00  0.00    +0.000 C 
ATOM     22  O   UNL     1       7.592   4.046  11.558  0.00  0.00    +0.000 OA
BRANCH  21  25
ATOM     23  C   UNL     1       6.029  -0.031  11.061  0.00  0.00    +0.000 C 
ATOM     24  C   UNL     1       6.634   1.294  11.384  0.00  0.00    +0.000 C 
ATOM     25  C   UNL     1       5.913   2.349  11.789  0.00  0.00    +0.000 C 
ENDBRANCH  21  25
ENDBRANCH  20  21
ENDBRANCH  19  20
ENDBRANCH   1  19
TORSDOF 6
ENDMDL
MODEL 7
REMARK VINA RESULT:      -6.6      1.359      1.566
REMARK  Name = 
REMARK  11 active torsions:
REMARK  status: ('A' for Active; 'I' for Inactive)
REMARK    1  A    between atoms: C_1  and  C_2
REMARK    2  A    between atoms: C_3  and  C_4
REMARK    3  A    between atoms: C_4  and  O_6
REMARK    4  A    between atoms: O_6  and  C_7
REMARK    5  A    between atoms: C_7  and  C_8
REMARK    6  A    between atoms: C_12  and  C_13
REMARK    7  A    between atoms: C_12  and  O_14
REMARK    8  A    between atoms: O_14  and  C_15
REMARK    9  A    between atoms: C_16  and  C_17
REMARK   10  A    between atoms: C_16  and  O_18
REMARK   11  A    between atoms: O_18  and  C_19
REMARK                            x       y       z     vdW  Elec       q    Type
REMARK                         _______ _______ _______ _____ _____    ______ ____
ROOT
ATOM      1  C   UNL     1       5.801   4.707  15.662  0.00  0.00    +0.000 C 
ATOM      2  C   UNL     1       4.517   4.613  16.057  0.00  0.00    +0.000 C 
ATOM      3  C   UNL     1       4.096   4.411  17.482  0.00  0.00    +0.000 C 
ATOM      4  O   UNL     1       2.907   3.620  17.490  0.00  0.00    +0.000 OA
ATOM      5  C   UNL     1       2.438   3.427  18.851  0.00  0.00    +0.000 C 
ATOM      6  C   UNL     1       1.182   2.545  18.741  0.00  0.00    +0.000 C 
ATOM      7  C   UNL     1       3.609   2.716  19.721  0.00  0.00    +0.000 C 
ATOM      8  C   UNL     1       3.244   2.635  21.214  0.00  0.00    +0.000 C 
ATOM      9  O   UNL     1       4.821   3.515  19.643  0.00  0.00    +0.000 OA
ATOM     10  C   UNL     1       5.205   3.721  18.275  0.00  0.00    +0.000 C 
ATOM     11  C   UNL     1       6.459   4.580  18.165  0.00  0.00    +0.000 C 
ATOM     12  F   UNL     1       6.195   5.835  18.639  0.00  0.00    +0.000 F 
ATOM     13  C   UNL     1       6.884   4.638  16.701  0.00  0.00    +0.000 C 
ATOM     14  O   UNL     1       8.066   4.708  16.374  0.00  0.00    +0.000 OA
ENDROOT
BRANCH   5  15
ATOM     15  O   UNL     1       2.099   4.700  19.444  0.00  0.00    +0.000 OA
ATOM     16  C   UNL     1       0.926   4.702  20.254  0.00  0.00    +0.000 C 
ENDBRANCH   5  15
BRANCH   7  17
ATOM     17  O   UNL     1       3.863   1.394  19.196  0.00  0.00    +0.000 OA
ATOM     18  C   UNL     1       4.834   0.632  19.909  0.00  0.00    +0.000 C 
ENDBRANCH   7  17
BRANCH   1  19
ATOM     19  C   UNL     1       6.255   4.870  14.236  0.00  0.00    +0.000 C 
BRANCH  19  20
ATOM     20  O   UNL     1       5.526   4.010  13.347  0.00  0.00    +0.000 OA
BRANCH  20  21
ATOM     21  C   UNL     1       6.255   3.560  12.295  0.00  0.00    +0.000 C 
ATOM     22  O   UNL     1       7.209   4.106  11.783  0.00  0.00    +0.000 OA
BRANCH  21  25
ATOM     23  C   UNL     1       6.039  -0.070  11.017  0.00  0.00    +0.000 C 
ATOM     24  C   UNL     1       6.520   1.276  11.445  0.00  0.00    +0.000 C 
ATOM     25  C   UNL     1       5.699   2.245  11.873  0.00  0.00    +0.000 C 
ENDBRANCH  21  25
ENDBRANCH  20  21
ENDBRANCH  19  20
ENDBRANCH   1  19
TORSDOF 6
ENDMDL
MODEL 8
REMARK VINA RESULT:      -6.3      1.596      2.163
REMARK  Name = 
REMARK  11 active torsions:
REMARK  status: ('A' for Active; 'I' for Inactive)
REMARK    1  A    between atoms: C_1  and  C_2
REMARK    2  A    between atoms: C_3  and  C_4
REMARK    3  A    between atoms: C_4  and  O_6
REMARK    4  A    between atoms: O_6  and  C_7
REMARK    5  A    between atoms: C_7  and  C_8
REMARK    6  A    between atoms: C_12  and  C_13
REMARK    7  A    between atoms: C_12  and  O_14
REMARK    8  A    between atoms: O_14  and  C_15
REMARK    9  A    between atoms: C_16  and  C_17
REMARK   10  A    between atoms: C_16  and  O_18
REMARK   11  A    between atoms: O_18  and  C_19
REMARK                            x       y       z     vdW  Elec       q    Type
REMARK                         _______ _______ _______ _____ _____    ______ ____
ROOT
ATOM      1  C   UNL     1       6.207   3.981  14.186  0.00  0.00    +0.000 C 
ATOM      2  C   UNL     1       5.212   3.461  14.932  0.00  0.00    +0.000 C 
ATOM      3  C   UNL     1       4.587   4.169  16.096  0.00  0.00    +0.000 C 
ATOM      4  O   UNL     1       4.211   3.190  17.066  0.00  0.00    +0.000 OA
ATOM      5  C   UNL     1       3.565   3.825  18.201  0.00  0.00    +0.000 C 
ATOM      6  C   UNL     1       3.235   2.690  19.185  0.00  0.00    +0.000 C 
ATOM      7  C   UNL     1       4.579   4.916  18.847  0.00  0.00    +0.000 C 
ATOM      8  C   UNL     1       3.898   5.748  19.949  0.00  0.00    +0.000 C 
ATOM      9  O   UNL     1       4.988   5.862  17.821  0.00  0.00    +0.000 OA
ATOM     10  C   UNL     1       5.566   5.175  16.700  0.00  0.00    +0.000 C 
ATOM     11  C   UNL     1       5.979   6.142  15.598  0.00  0.00    +0.000 C 
ATOM     12  F   UNL     1       4.867   6.753  15.088  0.00  0.00    +0.000 F 
ATOM     13  C   UNL     1       6.708   5.360  14.510  0.00  0.00    +0.000 C 
ATOM     14  O   UNL     1       7.622   5.858  13.858  0.00  0.00    +0.000 OA
ENDROOT
BRANCH   5  15
ATOM     15  O   UNL     1       2.351   4.483  17.777  0.00  0.00    +0.000 OA
ATOM     16  C   UNL     1       1.142   3.811  18.121  0.00  0.00    +0.000 C 
ENDBRANCH   5  15
BRANCH   7  17
ATOM     17  O   UNL     1       5.740   4.240  19.376  0.00  0.00    +0.000 OA
ATOM     18  C   UNL     1       6.883   5.066  19.585  0.00  0.00    +0.000 C 
ENDBRANCH   7  17
BRANCH   1  19
ATOM     19  C   UNL     1       6.881   3.280  13.038  0.00  0.00    +0.000 C 
BRANCH  19  20
ATOM     20  O   UNL     1       6.213   3.538  11.794  0.00  0.00    +0.000 OA
BRANCH  20  21
ATOM     21  C   UNL     1       5.329   2.574  11.432  0.00  0.00    +0.000 C 
ATOM     22  O   UNL     1       5.536   1.381  11.372  0.00  0.00    +0.000 OA
BRANCH  21  25
ATOM     23  C   UNL     1       2.513   4.419   9.554  0.00  0.00    +0.000 C 
ATOM     24  C   UNL     1       3.798   3.760   9.928  0.00  0.00    +0.000 C 
ATOM     25  C   UNL     1       4.024   3.227  11.136  0.00  0.00    +0.000 C 
ENDBRANCH  21  25
ENDBRANCH  20  21
ENDBRANCH  19  20
ENDBRANCH   1  19
TORSDOF 6
ENDMDL
MODEL 9
REMARK VINA RESULT:      -6.2      2.526      5.473
REMARK  Name = 
REMARK  11 active torsions:
REMARK  status: ('A' for Active; 'I' for Inactive)
REMARK    1  A    between atoms: C_1  and  C_2
REMARK    2  A    between atoms: C_3  and  C_4
REMARK    3  A    between atoms: C_4  and  O_6
REMARK    4  A    between atoms: O_6  and  C_7
REMARK    5  A    between atoms: C_7  and  C_8
REMARK    6  A    between atoms: C_12  and  C_13
REMARK    7  A    between atoms: C_12  and  O_14
REMARK    8  A    between atoms: O_14  and  C_15
REMARK    9  A    between atoms: C_16  and  C_17
REMARK   10  A    between atoms: C_16  and  O_18
REMARK   11  A    between atoms: O_18  and  C_19
REMARK                            x       y       z     vdW  Elec       q    Type
REMARK                         _______ _______ _______ _____ _____    ______ ____
ROOT
ATOM      1  C   UNL     1       5.703   6.536  17.231  0.00  0.00    +0.000 C 
ATOM      2  C   UNL     1       5.549   5.880  18.398  0.00  0.00    +0.000 C 
ATOM      3  C   UNL     1       5.009   4.485  18.505  0.00  0.00    +0.000 C 
ATOM      4  O   UNL     1       4.274   4.382  19.725  0.00  0.00    +0.000 OA
ATOM      5  C   UNL     1       3.761   3.034  19.893  0.00  0.00    +0.000 C 
ATOM      6  C   UNL     1       2.969   3.047  21.212  0.00  0.00    +0.000 C 
ATOM      7  C   UNL     1       2.822   2.661  18.622  0.00  0.00    +0.000 C 
ATOM      8  C   UNL     1       2.380   1.187  18.649  0.00  0.00    +0.000 C 
ATOM      9  O   UNL     1       3.580   2.835  17.393  0.00  0.00    +0.000 OA
ATOM     10  C   UNL     1       4.112   4.166  17.309  0.00  0.00    +0.000 C 
ATOM     11  C   UNL     1       4.935   4.365  16.043  0.00  0.00    +0.000 C 
ATOM     12  F   UNL     1       6.038   3.558  16.085  0.00  0.00    +0.000 F 
ATOM     13  C   UNL     1       5.346   5.831  15.953  0.00  0.00    +0.000 C 
ATOM     14  O   UNL     1       5.463   6.404  14.873  0.00  0.00    +0.000 OA
ENDROOT
BRANCH   5  15
ATOM     15  O   UNL     1       4.853   2.093  19.979  0.00  0.00    +0.000 OA
ATOM     16  C   UNL     1       4.901   1.323  21.178  0.00  0.00    +0.000 C 
ENDBRANCH   5  15
BRANCH   7  17
ATOM     17  O   UNL     1       1.667   3.529  18.606  0.00  0.00    +0.000 OA
ATOM     18  C   UNL     1       0.416   2.882  18.827  0.00  0.00    +0.000 C 
ENDBRANCH   7  17
BRANCH   1  19
ATOM     19  C   UNL     1       6.204   7.948  17.095  0.00  0.00    +0.000 C 
BRANCH  19  20
ATOM     20  O   UNL     1       7.635   7.994  16.988  0.00  0.00    +0.000 OA
BRANCH  20  21
ATOM     21  C   UNL     1       8.262   8.373  18.130  0.00  0.00    +0.000 C 
ATOM     22  O   UNL     1       8.726   7.645  18.982  0.00  0.00    +0.000 OA
BRANCH  21  25
ATOM     23  C   UNL     1       9.624  11.976  18.269  0.00  0.00    +0.000 C 
ATOM     24  C   UNL     1       9.493  10.490  18.245  0.00  0.00    +0.000 C 
ATOM     25  C   UNL     1       8.313   9.860  18.162  0.00  0.00    +0.000 C 
ENDBRANCH  21  25
ENDBRANCH  20  21
ENDBRANCH  19  20
ENDBRANCH   1  19
TORSDOF 6
ENDMDL
