MODEL 1
REMARK VINA RESULT:      -7.3      0.000      0.000
REMARK  Name = 
REMARK  5 active torsions:
REMARK  status: ('A' for Active; 'I' for Inactive)
REMARK    1  A    between atoms: C_1  and  C_2
REMARK    2  A    between atoms: C_6  and  C_7
REMARK    3  A    between atoms: CA_9  and  C_10
REMARK    4  A    between atoms: C_10  and  OXT_12
REMARK    5  A    between atoms: C_13  and  C_14
REMARK                            x       y       z     vdW  Elec       q    Type
REMARK                         _______ _______ _______ _____ _____    ______ ____
ROOT
ATOM      1  C   UNL     1       4.451   4.473  17.697  0.00  0.00    +0.000 A 
ATOM      2  N   UNL     1       4.926   4.077  16.531  0.00  0.00    +0.000 NA
ATOM      3  CA  UNL     1       6.079   4.826  16.308  0.00  0.00    +0.000 A 
ATOM      4  C   UNL     1       6.318   5.663  17.382  0.00  0.00    +0.000 A 
ATOM      5  C   UNL     1       7.379   6.640  17.708  0.00  0.00    +0.000 C 
ATOM      6  N   UNL     1       5.280   5.423  18.244  0.00  0.00    +0.000 N 
ATOM      7  H   UNL     1       5.153   5.852  19.149  0.00  0.00    +0.000 HD
ENDROOT
BRANCH   1  13
ATOM      8  C   UNL     1       2.211   3.023  21.909  0.00  0.00    +0.000 C 
ATOM      9  C   UNL     1       2.147   3.277  20.432  0.00  0.00    +0.000 A 
ATOM     10  C   UNL     1       0.961   3.079  19.719  0.00  0.00    +0.000 A 
ATOM     11  C   UNL     1       0.917   3.319  18.347  0.00  0.00    +0.000 A 
ATOM     12  C   UNL     1       2.055   3.767  17.678  0.00  0.00    +0.000 A 
ATOM     13  C   UNL     1       3.253   3.982  18.375  0.00  0.00    +0.000 A 
ATOM     14  C   UNL     1       3.289   3.723  19.752  0.00  0.00    +0.000 A 
ENDBRANCH   1  13
BRANCH   3  15
ATOM     15  C   UNL     1       6.840   4.652  15.075  0.00  0.00    +0.000 C 
ATOM     16  O   UNL     1       7.718   5.402  14.672  0.00  0.00    +0.000 OA
BRANCH  15  17
ATOM     17  OXT UNL     1       6.456   3.534  14.400  0.00  0.00    +0.000 OA
ATOM     18  HXT UNL     1       6.921   3.560  13.530  0.00  0.00    +0.000 HD
ENDBRANCH  15  17
ENDBRANCH   3  15
TORSDOF 3
ENDMDL
MODEL 2
REMARK VINA RESULT:      -7.3      3.108      6.174
REMARK  Name = 
REMARK  5 active torsions:
REMARK  status: ('A' for Active; 'I' for Inactive)
REMARK    1  A    between atoms: C_1  and  C_2
REMARK    2  A    between atoms: C_6  and  C_7
REMARK    3  A    between atoms: CA_9  and  C_10
REMARK    4  A    between atoms: C_10  and  OXT_12
REMARK    5  A    between atoms: C_13  and  C_14
REMARK                            x       y       z     vdW  Elec       q    Type
REMARK                         _______ _______ _______ _____ _____    ______ ____
ROOT
ATOM      1  C   UNL     1       6.607   4.627  15.998  0.00  0.00    +0.000 A 
ATOM      2  N   UNL     1       5.592   4.176  16.712  0.00  0.00    +0.000 NA
ATOM      3  CA  UNL     1       5.872   4.506  18.035  0.00  0.00    +0.000 A 
ATOM      4  C   UNL     1       7.064   5.201  18.110  0.00  0.00    +0.000 A 
ATOM      5  C   UNL     1       7.832   5.813  19.217  0.00  0.00    +0.000 C 
ATOM      6  N   UNL     1       7.508   5.265  16.815  0.00  0.00    +0.000 N 
ATOM      7  H   UNL     1       8.348   5.729  16.501  0.00  0.00    +0.000 HD
ENDROOT
BRANCH   1  13
ATOM      8  C   UNL     1       5.274   2.555  11.663  0.00  0.00    +0.000 C 
ATOM      9  C   UNL     1       6.129   3.525  12.424  0.00  0.00    +0.000 A 
ATOM     10  C   UNL     1       7.051   4.342  11.764  0.00  0.00    +0.000 A 
ATOM     11  C   UNL     1       7.839   5.239  12.483  0.00  0.00    +0.000 A 
ATOM     12  C   UNL     1       7.705   5.332  13.868  0.00  0.00    +0.000 A 
ATOM     13  C   UNL     1       6.779   4.529  14.550  0.00  0.00    +0.000 A 
ATOM     14  C   UNL     1       6.004   3.621  13.817  0.00  0.00    +0.000 A 
ENDBRANCH   1  13
BRANCH   3  15
ATOM     15  C   UNL     1       4.952   4.117  19.100  0.00  0.00    +0.000 C 
ATOM     16  O   UNL     1       4.105   4.841  19.603  0.00  0.00    +0.000 OA
BRANCH  15  17
ATOM     17  OXT UNL     1       5.145   2.825  19.484  0.00  0.00    +0.000 OA
ATOM     18  HXT UNL     1       4.717   2.263  18.793  0.00  0.00    +0.000 HD
ENDBRANCH  15  17
ENDBRANCH   3  15
TORSDOF 3
ENDMDL
MODEL 3
REMARK VINA RESULT:      -7.2      0.960      1.580
REMARK  Name = 
REMARK  5 active torsions:
REMARK  status: ('A' for Active; 'I' for Inactive)
REMARK    1  A    between atoms: C_1  and  C_2
REMARK    2  A    between atoms: C_6  and  C_7
REMARK    3  A    between atoms: CA_9  and  C_10
REMARK    4  A    between atoms: C_10  and  OXT_12
REMARK    5  A    between atoms: C_13  and  C_14
REMARK                            x       y       z     vdW  Elec       q    Type
REMARK                         _______ _______ _______ _____ _____    ______ ____
ROOT
ATOM      1  C   UNL     1       4.523   5.107  17.864  0.00  0.00    +0.000 A 
ATOM      2  N   UNL     1       4.910   4.499  16.758  0.00  0.00    +0.000 NA
ATOM      3  CA  UNL     1       6.082   5.135  16.357  0.00  0.00    +0.000 A 
ATOM      4  C   UNL     1       6.423   6.121  17.263  0.00  0.00    +0.000 A 
ATOM      5  C   UNL     1       7.546   7.078  17.369  0.00  0.00    +0.000 C 
ATOM      6  N   UNL     1       5.426   6.085  18.203  0.00  0.00    +0.000 N 
ATOM      7  H   UNL     1       5.373   6.662  19.030  0.00  0.00    +0.000 HD
ENDROOT
BRANCH   1  13
ATOM      8  C   UNL     1       0.626   2.137  18.791  0.00  0.00    +0.000 C 
ATOM      9  C   UNL     1       1.439   3.350  19.137  0.00  0.00    +0.000 A 
ATOM     10  C   UNL     1       1.099   4.157  20.227  0.00  0.00    +0.000 A 
ATOM     11  C   UNL     1       1.863   5.280  20.536  0.00  0.00    +0.000 A 
ATOM     12  C   UNL     1       2.978   5.602  19.764  0.00  0.00    +0.000 A 
ATOM     13  C   UNL     1       3.344   4.801  18.672  0.00  0.00    +0.000 A 
ATOM     14  C   UNL     1       2.559   3.682  18.362  0.00  0.00    +0.000 A 
ENDBRANCH   1  13
BRANCH   3  15
ATOM     15  C   UNL     1       6.761   4.720  15.133  0.00  0.00    +0.000 C 
ATOM     16  O   UNL     1       7.645   5.345  14.565  0.00  0.00    +0.000 OA
BRANCH  15  17
ATOM     17  OXT UNL     1       6.289   3.527  14.676  0.00  0.00    +0.000 OA
ATOM     18  HXT UNL     1       6.296   2.911  15.448  0.00  0.00    +0.000 HD
ENDBRANCH  15  17
ENDBRANCH   3  15
TORSDOF 3
ENDMDL
MODEL 4
REMARK VINA RESULT:      -7.1      1.587      2.258
REMARK  Name = 
REMARK  5 active torsions:
REMARK  status: ('A' for Active; 'I' for Inactive)
REMARK    1  A    between atoms: C_1  and  C_2
REMARK    2  A    between atoms: C_6  and  C_7
REMARK    3  A    between atoms: CA_9  and  C_10
REMARK    4  A    between atoms: C_10  and  OXT_12
REMARK    5  A    between atoms: C_13  and  C_14
REMARK                            x       y       z     vdW  Elec       q    Type
REMARK                         _______ _______ _______ _____ _____    ______ ____
ROOT
ATOM      1  C   UNL     1       4.637   4.712  17.901  0.00  0.00    +0.000 A 
ATOM      2  N   UNL     1       5.375   5.683  18.406  0.00  0.00    +0.000 NA
ATOM      3  CA  UNL     1       6.435   5.864  17.523  0.00  0.00    +0.000 A 
ATOM      4  C   UNL     1       6.309   5.007  16.446  0.00  0.00    +0.000 A 
ATOM      5  C   UNL     1       7.099   4.775  15.217  0.00  0.00    +0.000 C 
ATOM      6  N   UNL     1       5.169   4.291  16.706  0.00  0.00    +0.000 N 
ATOM      7  H   UNL     1       4.765   3.586  16.107  0.00  0.00    +0.000 HD
ENDROOT
BRANCH   1  13
ATOM      8  C   UNL     1       2.151   2.937  21.842  0.00  0.00    +0.000 C 
ATOM      9  C   UNL     1       2.181   3.292  20.385  0.00  0.00    +0.000 A 
ATOM     10  C   UNL     1       1.049   3.126  19.580  0.00  0.00    +0.000 A 
ATOM     11  C   UNL     1       1.091   3.461  18.229  0.00  0.00    +0.000 A 
ATOM     12  C   UNL     1       2.262   3.972  17.671  0.00  0.00    +0.000 A 
ATOM     13  C   UNL     1       3.406   4.156  18.460  0.00  0.00    +0.000 A 
ATOM     14  C   UNL     1       3.356   3.802  19.815  0.00  0.00    +0.000 A 
ENDBRANCH   1  13
BRANCH   3  15
ATOM     15  C   UNL     1       7.468   6.856  17.808  0.00  0.00    +0.000 C 
ATOM     16  O   UNL     1       7.726   7.829  17.114  0.00  0.00    +0.000 OA
BRANCH  15  17
ATOM     17  OXT UNL     1       8.132   6.573  18.962  0.00  0.00    +0.000 OA
ATOM     18  HXT UNL     1       7.591   5.896  19.436  0.00  0.00    +0.000 HD
ENDBRANCH  15  17
ENDBRANCH   3  15
TORSDOF 3
ENDMDL
MODEL 5
REMARK VINA RESULT:      -7.1      0.789      1.111
REMARK  Name = 
REMARK  5 active torsions:
REMARK  status: ('A' for Active; 'I' for Inactive)
REMARK    1  A    between atoms: C_1  and  C_2
REMARK    2  A    between atoms: C_6  and  C_7
REMARK    3  A    between atoms: CA_9  and  C_10
REMARK    4  A    between atoms: C_10  and  OXT_12
REMARK    5  A    between atoms: C_13  and  C_14
REMARK                            x       y       z     vdW  Elec       q    Type
REMARK                         _______ _______ _______ _____ _____    ______ ____
ROOT
ATOM      1  C   UNL     1       4.539   3.890  17.775  0.00  0.00    +0.000 A 
ATOM      2  N   UNL     1       4.778   3.967  16.479  0.00  0.00    +0.000 NA
ATOM      3  CA  UNL     1       6.123   4.305  16.353  0.00  0.00    +0.000 A 
ATOM      4  C   UNL     1       6.710   4.396  17.601  0.00  0.00    +0.000 A 
ATOM      5  C   UNL     1       8.080   4.687  18.075  0.00  0.00    +0.000 C 
ATOM      6  N   UNL     1       5.693   4.130  18.481  0.00  0.00    +0.000 N 
ATOM      7  H   UNL     1       5.777   4.090  19.486  0.00  0.00    +0.000 HD
ENDROOT
BRANCH   1  13
ATOM      8  C   UNL     1       2.030   2.683  21.912  0.00  0.00    +0.000 C 
ATOM      9  C   UNL     1       2.033   2.975  20.441  0.00  0.00    +0.000 A 
ATOM     10  C   UNL     1       0.846   2.965  19.702  0.00  0.00    +0.000 A 
ATOM     11  C   UNL     1       0.863   3.238  18.337  0.00  0.00    +0.000 A 
ATOM     12  C   UNL     1       2.067   3.533  17.698  0.00  0.00    +0.000 A 
ATOM     13  C   UNL     1       3.269   3.560  18.420  0.00  0.00    +0.000 A 
ATOM     14  C   UNL     1       3.241   3.268  19.790  0.00  0.00    +0.000 A 
ENDBRANCH   1  13
BRANCH   3  15
ATOM     15  C   UNL     1       6.710   4.502  15.031  0.00  0.00    +0.000 C 
ATOM     16  O   UNL     1       6.486   3.813  14.046  0.00  0.00    +0.000 OA
BRANCH  15  17
ATOM     17  OXT UNL     1       7.558   5.567  15.012  0.00  0.00    +0.000 OA
ATOM     18  HXT UNL     1       8.121   5.460  14.207  0.00  0.00    +0.000 HD
ENDBRANCH  15  17
ENDBRANCH   3  15
TORSDOF 3
ENDMDL
MODEL 6
REMARK VINA RESULT:      -7.1      1.241      1.662
REMARK  Name = 
REMARK  5 active torsions:
REMARK  status: ('A' for Active; 'I' for Inactive)
REMARK    1  A    between atoms: C_1  and  C_2
REMARK    2  A    between atoms: C_6  and  C_7
REMARK    3  A    between atoms: CA_9  and  C_10
REMARK    4  A    between atoms: C_10  and  OXT_12
REMARK    5  A    between atoms: C_13  and  C_14
REMARK                            x       y       z     vdW  Elec       q    Type
REMARK                         _______ _______ _______ _____ _____    ______ ____
ROOT
ATOM      1  C   UNL     1       4.691   4.651  18.531  0.00  0.00    +0.000 A 
ATOM      2  N   UNL     1       5.118   5.111  17.370  0.00  0.00    +0.000 NA
ATOM      3  CA  UNL     1       6.410   5.581  17.591  0.00  0.00    +0.000 A 
ATOM      4  C   UNL     1       6.777   5.364  18.906  0.00  0.00    +0.000 A 
ATOM      5  C   UNL     1       8.005   5.622  19.689  0.00  0.00    +0.000 C 
ATOM      6  N   UNL     1       5.678   4.777  19.478  0.00  0.00    +0.000 N 
ATOM      7  H   UNL     1       5.607   4.461  20.434  0.00  0.00    +0.000 HD
ENDROOT
BRANCH   1  13
ATOM      8  C   UNL     1       1.579   2.548  21.811  0.00  0.00    +0.000 C 
ATOM      9  C   UNL     1       1.859   3.024  20.416  0.00  0.00    +0.000 A 
ATOM     10  C   UNL     1       0.889   2.925  19.414  0.00  0.00    +0.000 A 
ATOM     11  C   UNL     1       1.163   3.371  18.123  0.00  0.00    +0.000 A 
ATOM     12  C   UNL     1       2.406   3.929  17.824  0.00  0.00    +0.000 A 
ATOM     13  C   UNL     1       3.390   4.049  18.816  0.00  0.00    +0.000 A 
ATOM     14  C   UNL     1       3.108   3.582  20.107  0.00  0.00    +0.000 A 
ENDBRANCH   1  13
BRANCH   3  15
ATOM     15  C   UNL     1       7.166   6.192  16.503  0.00  0.00    +0.000 C 
ATOM     16  O   UNL     1       7.466   5.643  15.452  0.00  0.00    +0.000 OA
BRANCH  15  17
ATOM     17  OXT UNL     1       7.512   7.478  16.790  0.00  0.00    +0.000 OA
ATOM     18  HXT UNL     1       8.222   7.429  17.475  0.00  0.00    +0.000 HD
ENDBRANCH  15  17
ENDBRANCH   3  15
TORSDOF 3
ENDMDL
MODEL 7
REMARK VINA RESULT:      -7.1      3.618      6.108
REMARK  Name = 
REMARK  5 active torsions:
REMARK  status: ('A' for Active; 'I' for Inactive)
REMARK    1  A    between atoms: C_1  and  C_2
REMARK    2  A    between atoms: C_6  and  C_7
REMARK    3  A    between atoms: CA_9  and  C_10
REMARK    4  A    between atoms: C_10  and  OXT_12
REMARK    5  A    between atoms: C_13  and  C_14
REMARK                            x       y       z     vdW  Elec       q    Type
REMARK                         _______ _______ _______ _____ _____    ______ ____
ROOT
ATOM      1  C   UNL     1       4.036   4.664  18.832  0.00  0.00    +0.000 A 
ATOM      2  N   UNL     1       3.452   3.655  19.450  0.00  0.00    +0.000 NA
ATOM      3  CA  UNL     1       2.466   4.214  20.259  0.00  0.00    +0.000 A 
ATOM      4  C   UNL     1       2.435   5.585  20.092  0.00  0.00    +0.000 A 
ATOM      5  C   UNL     1       1.603   6.672  20.653  0.00  0.00    +0.000 C 
ATOM      6  N   UNL     1       3.433   5.846  19.189  0.00  0.00    +0.000 N 
ATOM      7  H   UNL     1       3.674   6.754  18.820  0.00  0.00    +0.000 HD
ENDROOT
BRANCH   1  13
ATOM      8  C   UNL     1       5.558   4.137  14.113  0.00  0.00    +0.000 C 
ATOM      9  C   UNL     1       5.887   4.343  15.562  0.00  0.00    +0.000 A 
ATOM     10  C   UNL     1       7.211   4.494  15.986  0.00  0.00    +0.000 A 
ATOM     11  C   UNL     1       7.501   4.684  17.335  0.00  0.00    +0.000 A 
ATOM     12  C   UNL     1       6.470   4.733  18.272  0.00  0.00    +0.000 A 
ATOM     13  C   UNL     1       5.134   4.593  17.869  0.00  0.00    +0.000 A 
ATOM     14  C   UNL     1       4.855   4.388  16.511  0.00  0.00    +0.000 A 
ENDBRANCH   1  13
BRANCH   3  15
ATOM     15  C   UNL     1       1.645   3.360  21.112  0.00  0.00    +0.000 C 
ATOM     16  O   UNL     1       1.964   2.945  22.217  0.00  0.00    +0.000 OA
BRANCH  15  17
ATOM     17  OXT UNL     1       0.450   3.067  20.529  0.00  0.00    +0.000 OA
ATOM     18  HXT UNL     1       0.350   3.690  19.770  0.00  0.00    +0.000 HD
ENDBRANCH  15  17
ENDBRANCH   3  15
TORSDOF 3
ENDMDL
MODEL 8
REMARK VINA RESULT:      -7.1      3.593      6.026
REMARK  Name = 
REMARK  5 active torsions:
REMARK  status: ('A' for Active; 'I' for Inactive)
REMARK    1  A    between atoms: C_1  and  C_2
REMARK    2  A    between atoms: C_6  and  C_7
REMARK    3  A    between atoms: CA_9  and  C_10
REMARK    4  A    between atoms: C_10  and  OXT_12
REMARK    5  A    between atoms: C_13  and  C_14
REMARK                            x       y       z     vdW  Elec       q    Type
REMARK                         _______ _______ _______ _____ _____    ______ ____
ROOT
ATOM      1  C   UNL     1       4.183   3.865  18.543  0.00  0.00    +0.000 A 
ATOM      2  N   UNL     1       3.034   3.990  19.180  0.00  0.00    +0.000 NA
ATOM      3  CA  UNL     1       3.062   3.059  20.215  0.00  0.00    +0.000 A 
ATOM      4  C   UNL     1       4.270   2.388  20.220  0.00  0.00    +0.000 A 
ATOM      5  C   UNL     1       4.862   1.339  21.079  0.00  0.00    +0.000 C 
ATOM      6  N   UNL     1       4.960   2.912  19.158  0.00  0.00    +0.000 N 
ATOM      7  H   UNL     1       5.898   2.663  18.882  0.00  0.00    +0.000 HD
ENDROOT
BRANCH   1  13
ATOM      8  C   UNL     1       6.120   3.906  13.949  0.00  0.00    +0.000 C 
ATOM      9  C   UNL     1       5.577   4.655  15.129  0.00  0.00    +0.000 A 
ATOM     10  C   UNL     1       5.473   6.049  15.112  0.00  0.00    +0.000 A 
ATOM     11  C   UNL     1       4.966   6.731  16.216  0.00  0.00    +0.000 A 
ATOM     12  C   UNL     1       4.550   6.025  17.344  0.00  0.00    +0.000 A 
ATOM     13  C   UNL     1       4.635   4.626  17.380  0.00  0.00    +0.000 A 
ATOM     14  C   UNL     1       5.161   3.952  16.269  0.00  0.00    +0.000 A 
ENDBRANCH   1  13
BRANCH   3  15
ATOM     15  C   UNL     1       1.913   2.915  21.104  0.00  0.00    +0.000 C 
ATOM     16  O   UNL     1       1.967   2.804  22.321  0.00  0.00    +0.000 OA
BRANCH  15  17
ATOM     17  OXT UNL     1       0.740   2.917  20.413  0.00  0.00    +0.000 OA
ATOM     18  HXT UNL     1       0.883   3.489  19.622  0.00  0.00    +0.000 HD
ENDBRANCH  15  17
ENDBRANCH   3  15
TORSDOF 3
ENDMDL
MODEL 9
REMARK VINA RESULT:      -7.0      3.322      6.313
REMARK  Name = 
REMARK  5 active torsions:
REMARK  status: ('A' for Active; 'I' for Inactive)
REMARK    1  A    between atoms: C_1  and  C_2
REMARK    2  A    between atoms: C_6  and  C_7
REMARK    3  A    between atoms: CA_9  and  C_10
REMARK    4  A    between atoms: C_10  and  OXT_12
REMARK    5  A    between atoms: C_13  and  C_14
REMARK                            x       y       z     vdW  Elec       q    Type
REMARK                         _______ _______ _______ _____ _____    ______ ____
ROOT
ATOM      1  C   UNL     1       4.044   3.894  18.114  0.00  0.00    +0.000 A 
ATOM      2  N   UNL     1       3.958   4.272  19.375  0.00  0.00    +0.000 NA
ATOM      3  CA  UNL     1       2.740   3.786  19.843  0.00  0.00    +0.000 A 
ATOM      4  C   UNL     1       2.099   3.071  18.850  0.00  0.00    +0.000 A 
ATOM      5  C   UNL     1       0.824   2.324  18.778  0.00  0.00    +0.000 C 
ATOM      6  N   UNL     1       2.939   3.152  17.770  0.00  0.00    +0.000 N 
ATOM      7  H   UNL     1       2.790   2.717  16.871  0.00  0.00    +0.000 HD
ENDROOT
BRANCH   1  13
ATOM      8  C   UNL     1       5.803   3.855  13.448  0.00  0.00    +0.000 C 
ATOM      9  C   UNL     1       6.009   4.147  14.905  0.00  0.00    +0.000 A 
ATOM     10  C   UNL     1       7.212   4.690  15.368  0.00  0.00    +0.000 A 
ATOM     11  C   UNL     1       7.388   4.956  16.724  0.00  0.00    +0.000 A 
ATOM     12  C   UNL     1       6.361   4.691  17.628  0.00  0.00    +0.000 A 
ATOM     13  C   UNL     1       5.142   4.157  17.186  0.00  0.00    +0.000 A 
ATOM     14  C   UNL     1       4.981   3.879  15.822  0.00  0.00    +0.000 A 
ENDBRANCH   1  13
BRANCH   3  15
ATOM     15  C   UNL     1       2.318   4.061  21.214  0.00  0.00    +0.000 C 
ATOM     16  O   UNL     1       2.060   3.216  22.059  0.00  0.00    +0.000 OA
BRANCH  15  17
ATOM     17  OXT UNL     1       2.238   5.398  21.457  0.00  0.00    +0.000 OA
ATOM     18  HXT UNL     1       3.166   5.737  21.458  0.00  0.00    +0.000 HD
ENDBRANCH  15  17
ENDBRANCH   3  15
TORSDOF 3
ENDMDL
