MODEL 1
REMARK VINA RESULT:      -7.1      0.000      0.000
REMARK  Name = 
REMARK  5 active torsions:
REMARK  status: ('A' for Active; 'I' for Inactive)
REMARK    1  A    between atoms: C_2  and  O_3
REMARK    2  A    between atoms: C_2  and  C_4
REMARK    3  A    between atoms: C_7  and  N_8
REMARK    4  A    between atoms: C_9  and  C_11
REMARK    5  A    between atoms: C_15  and  O_16
REMARK                            x       y       z     vdW  Elec       q    Type
REMARK                         _______ _______ _______ _____ _____    ______ ____
ROOT
ATOM      1  N   UNL     1       2.526   7.255  18.705  0.00  0.00    +0.000 N 
ATOM      2  C   UNL     1       2.005   8.475  18.290  0.00  0.00    +0.000 C 
ATOM      3  O   UNL     1       2.209   9.003  17.200  0.00  0.00    +0.000 OA
ATOM      4  H   UNL     1       2.195   6.841  19.566  0.00  0.00    +0.000 HD
ENDROOT
BRANCH   2   5
ATOM      5  C   UNL     1       1.136   9.220  19.235  0.00  0.00    +0.000 A 
ATOM      6  C   UNL     1       0.334  10.235  18.687  0.00  0.00    +0.000 A 
ATOM      7  C   UNL     1      -0.484  11.004  19.508  0.00  0.00    +0.000 A 
ATOM      8 CL   UNL     1      -1.421  12.272  18.810  0.00  0.00    +0.000 Cl
ATOM      9  C   UNL     1      -0.527  10.760  20.880  0.00  0.00    +0.000 A 
ATOM     10  C   UNL     1       0.246   9.728  21.424  0.00  0.00    +0.000 A 
ATOM     11 CL   UNL     1       0.217   9.383  23.114  0.00  0.00    +0.000 Cl
ATOM     12  C   UNL     1       1.076   8.952  20.605  0.00  0.00    +0.000 A 
BRANCH   9  13
ATOM     13  O   UNL     1      -1.316  11.526  21.698  0.00  0.00    +0.000 OA
ATOM     14  H   UNL     1      -0.750  12.205  22.112  0.00  0.00    +0.000 HD
ENDBRANCH   9  13
ENDBRANCH   2   5
BRANCH   1  18
ATOM     15  C   UNL     1       5.434   5.038  16.573  0.00  0.00    +0.000 A 
ATOM     16  C   UNL     1       4.261   4.414  16.997  0.00  0.00    +0.000 A 
ATOM     17  C   UNL     1       3.300   5.145  17.699  0.00  0.00    +0.000 A 
ATOM     18  C   UNL     1       3.476   6.504  17.976  0.00  0.00    +0.000 A 
ATOM     19  C   UNL     1       4.623   7.143  17.493  0.00  0.00    +0.000 A 
ATOM     20  C   UNL     1       5.602   6.409  16.806  0.00  0.00    +0.000 A 
BRANCH  15  22
ATOM     21  O   UNL     1       6.257   3.653  14.829  0.00  0.00    +0.000 OA
ATOM     22  C   UNL     1       6.491   4.301  15.836  0.00  0.00    +0.000 C 
BRANCH  22  23
ATOM     23  O   UNL     1       7.734   4.430  16.347  0.00  0.00    +0.000 OA
ATOM     24  H   UNL     1       7.962   3.821  17.072  0.00  0.00    +0.000 HD
ENDBRANCH  22  23
ENDBRANCH  15  22
ENDBRANCH   1  18
TORSDOF 5
ENDMDL
MODEL 2
REMARK VINA RESULT:      -7.1      0.120      1.058
REMARK  Name = 
REMARK  5 active torsions:
REMARK  status: ('A' for Active; 'I' for Inactive)
REMARK    1  A    between atoms: C_2  and  O_3
REMARK    2  A    between atoms: C_2  and  C_4
REMARK    3  A    between atoms: C_7  and  N_8
REMARK    4  A    between atoms: C_9  and  C_11
REMARK    5  A    between atoms: C_15  and  O_16
REMARK                            x       y       z     vdW  Elec       q    Type
REMARK                         _______ _______ _______ _____ _____    ______ ____
ROOT
ATOM      1  N   UNL     1       2.605   7.287  18.701  0.00  0.00    +0.000 N 
ATOM      2  C   UNL     1       2.047   8.489  18.283  0.00  0.00    +0.000 C 
ATOM      3  O   UNL     1       2.239   9.023  17.194  0.00  0.00    +0.000 OA
ATOM      4  H   UNL     1       2.284   6.862  19.561  0.00  0.00    +0.000 HD
ENDROOT
BRANCH   2   5
ATOM      5  C   UNL     1       1.149   9.206  19.223  0.00  0.00    +0.000 A 
ATOM      6  C   UNL     1       0.298  10.175  18.666  0.00  0.00    +0.000 A 
ATOM      7  C   UNL     1      -0.551  10.915  19.481  0.00  0.00    +0.000 A 
ATOM      8 CL   UNL     1      -1.550  12.128  18.772  0.00  0.00    +0.000 Cl
ATOM      9  C   UNL     1      -0.575  10.688  20.857  0.00  0.00    +0.000 A 
ATOM     10  C   UNL     1       0.248   9.701  21.410  0.00  0.00    +0.000 A 
ATOM     11 CL   UNL     1       0.244   9.378  23.105  0.00  0.00    +0.000 Cl
ATOM     12  C   UNL     1       1.109   8.954  20.597  0.00  0.00    +0.000 A 
BRANCH   9  13
ATOM     13  O   UNL     1      -1.396  11.427  21.669  0.00  0.00    +0.000 OA
ATOM     14  H   UNL     1      -0.844  11.829  22.367  0.00  0.00    +0.000 HD
ENDBRANCH   9  13
ENDBRANCH   2   5
BRANCH   1  18
ATOM     15  C   UNL     1       5.473   5.101  16.484  0.00  0.00    +0.000 A 
ATOM     16  C   UNL     1       5.704   6.445  16.782  0.00  0.00    +0.000 A 
ATOM     17  C   UNL     1       4.760   7.166  17.515  0.00  0.00    +0.000 A 
ATOM     18  C   UNL     1       3.584   6.567  17.978  0.00  0.00    +0.000 A 
ATOM     19  C   UNL     1       3.385   5.205  17.734  0.00  0.00    +0.000 A 
ATOM     20  C   UNL     1       4.321   4.480  16.980  0.00  0.00    +0.000 A 
BRANCH  15  22
ATOM     21  O   UNL     1       6.100   3.601  14.754  0.00  0.00    +0.000 OA
ATOM     22  C   UNL     1       6.441   4.297  15.697  0.00  0.00    +0.000 C 
BRANCH  22  23
ATOM     23  O   UNL     1       7.729   4.420  16.084  0.00  0.00    +0.000 OA
ATOM     24  H   UNL     1       7.902   5.071  16.787  0.00  0.00    +0.000 HD
ENDBRANCH  22  23
ENDBRANCH  15  22
ENDBRANCH   1  18
TORSDOF 5
ENDMDL
MODEL 3
REMARK VINA RESULT:      -7.1      2.444      3.422
REMARK  Name = 
REMARK  5 active torsions:
REMARK  status: ('A' for Active; 'I' for Inactive)
REMARK    1  A    between atoms: C_2  and  O_3
REMARK    2  A    between atoms: C_2  and  C_4
REMARK    3  A    between atoms: C_7  and  N_8
REMARK    4  A    between atoms: C_9  and  C_11
REMARK    5  A    between atoms: C_15  and  O_16
REMARK                            x       y       z     vdW  Elec       q    Type
REMARK                         _______ _______ _______ _____ _____    ______ ____
ROOT
ATOM      1  N   UNL     1       1.439   8.337  17.953  0.00  0.00    +0.000 N 
ATOM      2  C   UNL     1       0.914   9.261  18.850  0.00  0.00    +0.000 C 
ATOM      3  O   UNL     1       1.369   9.511  19.963  0.00  0.00    +0.000 OA
ATOM      4  H   UNL     1       1.074   8.297  17.011  0.00  0.00    +0.000 HD
ENDROOT
BRANCH   2   5
ATOM      5  C   UNL     1      -0.304  10.008  18.449  0.00  0.00    +0.000 A 
ATOM      6  C   UNL     1      -0.717  11.044  19.302  0.00  0.00    +0.000 A 
ATOM      7  C   UNL     1      -1.867  11.772  19.017  0.00  0.00    +0.000 A 
ATOM      8 CL   UNL     1      -2.372  13.007  20.110  0.00  0.00    +0.000 Cl
ATOM      9  C   UNL     1      -2.610  11.489  17.872  0.00  0.00    +0.000 A 
ATOM     10  C   UNL     1      -2.183  10.479  17.003  0.00  0.00    +0.000 A 
ATOM     11 CL   UNL     1      -3.063  10.100  15.568  0.00  0.00    +0.000 Cl
ATOM     12  C   UNL     1      -1.028   9.738  17.285  0.00  0.00    +0.000 A 
BRANCH   9  13
ATOM     13  O   UNL     1      -3.755  12.189  17.595  0.00  0.00    +0.000 OA
ATOM     14  H   UNL     1      -4.087  11.890  16.727  0.00  0.00    +0.000 HD
ENDBRANCH   9  13
ENDBRANCH   2   5
BRANCH   1  18
ATOM     15  C   UNL     1       4.679   5.759  18.833  0.00  0.00    +0.000 A 
ATOM     16  C   UNL     1       3.512   5.691  19.595  0.00  0.00    +0.000 A 
ATOM     17  C   UNL     1       2.442   6.539  19.305  0.00  0.00    +0.000 A 
ATOM     18  C   UNL     1       2.503   7.454  18.248  0.00  0.00    +0.000 A 
ATOM     19  C   UNL     1       3.648   7.475  17.445  0.00  0.00    +0.000 A 
ATOM     20  C   UNL     1       4.735   6.639  17.746  0.00  0.00    +0.000 A 
BRANCH  15  22
ATOM     21  O   UNL     1       6.812   5.271  19.754  0.00  0.00    +0.000 OA
ATOM     22  C   UNL     1       5.848   4.888  19.112  0.00  0.00    +0.000 C 
BRANCH  22  23
ATOM     23  O   UNL     1       5.746   3.631  18.628  0.00  0.00    +0.000 OA
ATOM     24  H   UNL     1       4.888   3.191  18.762  0.00  0.00    +0.000 HD
ENDBRANCH  22  23
ENDBRANCH  15  22
ENDBRANCH   1  18
TORSDOF 5
ENDMDL
MODEL 4
REMARK VINA RESULT:      -7.0      2.449      3.124
REMARK  Name = 
REMARK  5 active torsions:
REMARK  status: ('A' for Active; 'I' for Inactive)
REMARK    1  A    between atoms: C_2  and  O_3
REMARK    2  A    between atoms: C_2  and  C_4
REMARK    3  A    between atoms: C_7  and  N_8
REMARK    4  A    between atoms: C_9  and  C_11
REMARK    5  A    between atoms: C_15  and  O_16
REMARK                            x       y       z     vdW  Elec       q    Type
REMARK                         _______ _______ _______ _____ _____    ______ ____
ROOT
ATOM      1  N   UNL     1       1.461   8.358  18.140  0.00  0.00    +0.000 N 
ATOM      2  C   UNL     1       0.951   9.221  19.104  0.00  0.00    +0.000 C 
ATOM      3  O   UNL     1       1.410   9.377  20.233  0.00  0.00    +0.000 OA
ATOM      4  H   UNL     1       1.096   8.397  17.197  0.00  0.00    +0.000 HD
ENDROOT
BRANCH   2   5
ATOM      5  C   UNL     1      -0.251  10.019  18.761  0.00  0.00    +0.000 A 
ATOM      6  C   UNL     1      -0.898   9.698  17.556  0.00  0.00    +0.000 A 
ATOM      7  C   UNL     1      -2.013  10.420  17.143  0.00  0.00    +0.000 A 
ATOM      8 CL   UNL     1      -2.755  10.031  15.636  0.00  0.00    +0.000 Cl
ATOM      9  C   UNL     1      -2.507  11.457  17.933  0.00  0.00    +0.000 A 
ATOM     10  C   UNL     1      -1.885  11.757  19.150  0.00  0.00    +0.000 A 
ATOM     11 CL   UNL     1      -2.468  13.024  20.165  0.00  0.00    +0.000 Cl
ATOM     12  C   UNL     1      -0.759  11.038  19.571  0.00  0.00    +0.000 A 
BRANCH   9  13
ATOM     13  O   UNL     1      -3.594  12.185  17.524  0.00  0.00    +0.000 OA
ATOM     14  H   UNL     1      -3.835  11.885  16.626  0.00  0.00    +0.000 HD
ENDBRANCH   9  13
ENDBRANCH   2   5
BRANCH   1  18
ATOM     15  C   UNL     1       4.651   5.660  18.818  0.00  0.00    +0.000 A 
ATOM     16  C   UNL     1       3.500   5.585  19.603  0.00  0.00    +0.000 A 
ATOM     17  C   UNL     1       2.446   6.473  19.379  0.00  0.00    +0.000 A 
ATOM     18  C   UNL     1       2.507   7.436  18.367  0.00  0.00    +0.000 A 
ATOM     19  C   UNL     1       3.634   7.467  17.539  0.00  0.00    +0.000 A 
ATOM     20  C   UNL     1       4.705   6.590  17.773  0.00  0.00    +0.000 A 
BRANCH  15  22
ATOM     21  O   UNL     1       6.926   5.155  19.270  0.00  0.00    +0.000 OA
ATOM     22  C   UNL     1       5.802   4.747  19.027  0.00  0.00    +0.000 C 
BRANCH  22  23
ATOM     23  O   UNL     1       5.503   3.432  18.959  0.00  0.00    +0.000 OA
ATOM     24  H   UNL     1       5.896   2.870  19.649  0.00  0.00    +0.000 HD
ENDBRANCH  22  23
ENDBRANCH  15  22
ENDBRANCH   1  18
TORSDOF 5
ENDMDL
MODEL 5
REMARK VINA RESULT:      -7.0      3.861      8.678
REMARK  Name = 
REMARK  5 active torsions:
REMARK  status: ('A' for Active; 'I' for Inactive)
REMARK    1  A    between atoms: C_2  and  O_3
REMARK    2  A    between atoms: C_2  and  C_4
REMARK    3  A    between atoms: C_7  and  N_8
REMARK    4  A    between atoms: C_9  and  C_11
REMARK    5  A    between atoms: C_15  and  O_16
REMARK                            x       y       z     vdW  Elec       q    Type
REMARK                         _______ _______ _______ _____ _____    ______ ____
ROOT
ATOM      1  N   UNL     1       1.411   7.981  21.448  0.00  0.00    +0.000 N 
ATOM      2  C   UNL     1       1.866   7.596  20.192  0.00  0.00    +0.000 C 
ATOM      3  O   UNL     1       1.835   8.291  19.180  0.00  0.00    +0.000 OA
ATOM      4  H   UNL     1       1.600   7.391  22.247  0.00  0.00    +0.000 HD
ENDROOT
BRANCH   2   5
ATOM      5  C   UNL     1       2.429   6.231  20.043  0.00  0.00    +0.000 A 
ATOM      6  C   UNL     1       1.783   5.202  20.748  0.00  0.00    +0.000 A 
ATOM      7  C   UNL     1       2.266   3.900  20.689  0.00  0.00    +0.000 A 
ATOM      8 CL   UNL     1       1.477   2.668  21.602  0.00  0.00    +0.000 Cl
ATOM      9  C   UNL     1       3.388   3.603  19.915  0.00  0.00    +0.000 A 
ATOM     10  C   UNL     1       4.014   4.620  19.186  0.00  0.00    +0.000 A 
ATOM     11 CL   UNL     1       5.398   4.298  18.207  0.00  0.00    +0.000 Cl
ATOM     12  C   UNL     1       3.536   5.935  19.243  0.00  0.00    +0.000 A 
BRANCH   9  13
ATOM     13  O   UNL     1       3.881   2.325  19.868  0.00  0.00    +0.000 OA
ATOM     14  H   UNL     1       4.527   2.280  19.136  0.00  0.00    +0.000 HD
ENDBRANCH   9  13
ENDBRANCH   2   5
BRANCH   1  18
ATOM     15  C   UNL     1      -0.624  11.589  22.321  0.00  0.00    +0.000 A 
ATOM     16  C   UNL     1       0.238  11.526  21.226  0.00  0.00    +0.000 A 
ATOM     17  C   UNL     1       0.908  10.337  20.935  0.00  0.00    +0.000 A 
ATOM     18  C   UNL     1       0.724   9.188  21.712  0.00  0.00    +0.000 A 
ATOM     19  C   UNL     1      -0.190   9.234  22.770  0.00  0.00    +0.000 A 
ATOM     20  C   UNL     1      -0.851  10.433  23.079  0.00  0.00    +0.000 A 
BRANCH  15  22
ATOM     21  O   UNL     1      -2.388  13.166  22.133  0.00  0.00    +0.000 OA
ATOM     22  C   UNL     1      -1.349  12.834  22.678  0.00  0.00    +0.000 C 
BRANCH  22  23
ATOM     23  O   UNL     1      -0.785  13.552  23.674  0.00  0.00    +0.000 OA
ATOM     24  H   UNL     1       0.132  13.839  23.525  0.00  0.00    +0.000 HD
ENDBRANCH  22  23
ENDBRANCH  15  22
ENDBRANCH   1  18
TORSDOF 5
ENDMDL
MODEL 6
REMARK VINA RESULT:      -7.0      3.465      8.514
REMARK  Name = 
REMARK  5 active torsions:
REMARK  status: ('A' for Active; 'I' for Inactive)
REMARK    1  A    between atoms: C_2  and  O_3
REMARK    2  A    between atoms: C_2  and  C_4
REMARK    3  A    between atoms: C_7  and  N_8
REMARK    4  A    between atoms: C_9  and  C_11
REMARK    5  A    between atoms: C_15  and  O_16
REMARK                            x       y       z     vdW  Elec       q    Type
REMARK                         _______ _______ _______ _____ _____    ______ ____
ROOT
ATOM      1  N   UNL     1       1.538   7.887  21.177  0.00  0.00    +0.000 N 
ATOM      2  C   UNL     1       1.970   7.651  19.877  0.00  0.00    +0.000 C 
ATOM      3  O   UNL     1       1.876   8.441  18.941  0.00  0.00    +0.000 OA
ATOM      4  H   UNL     1       1.778   7.230  21.907  0.00  0.00    +0.000 HD
ENDROOT
BRANCH   2   5
ATOM      5  C   UNL     1       2.590   6.337  19.575  0.00  0.00    +0.000 A 
ATOM      6  C   UNL     1       3.330   6.248  18.385  0.00  0.00    +0.000 A 
ATOM      7  C   UNL     1       3.916   5.044  18.010  0.00  0.00    +0.000 A 
ATOM      8 CL   UNL     1       4.779   4.957  16.520  0.00  0.00    +0.000 Cl
ATOM      9  C   UNL     1       3.787   3.919  18.825  0.00  0.00    +0.000 A 
ATOM     10  C   UNL     1       3.078   4.014  20.027  0.00  0.00    +0.000 A 
ATOM     11 CL   UNL     1       2.901   2.651  21.071  0.00  0.00    +0.000 Cl
ATOM     12  C   UNL     1       2.481   5.221  20.409  0.00  0.00    +0.000 A 
BRANCH   9  13
ATOM     13  O   UNL     1       4.346   2.724  18.453  0.00  0.00    +0.000 OA
ATOM     14  H   UNL     1       4.078   2.051  19.107  0.00  0.00    +0.000 HD
ENDBRANCH   9  13
ENDBRANCH   2   5
BRANCH   1  18
ATOM     15  C   UNL     1      -0.630  11.287  22.464  0.00  0.00    +0.000 A 
ATOM     16  C   UNL     1       0.169  11.365  21.324  0.00  0.00    +0.000 A 
ATOM     17  C   UNL     1       0.883  10.244  20.897  0.00  0.00    +0.000 A 
ATOM     18  C   UNL     1       0.805   9.027  21.580  0.00  0.00    +0.000 A 
ATOM     19  C   UNL     1      -0.048   8.932  22.685  0.00  0.00    +0.000 A 
ATOM     20  C   UNL     1      -0.752  10.062  23.131  0.00  0.00    +0.000 A 
BRANCH  15  22
ATOM     21  O   UNL     1      -2.616  12.495  22.948  0.00  0.00    +0.000 OA
ATOM     22  C   UNL     1      -1.397  12.455  22.965  0.00  0.00    +0.000 C 
BRANCH  22  23
ATOM     23  O   UNL     1      -0.642  13.455  23.470  0.00  0.00    +0.000 OA
ATOM     24  H   UNL     1      -1.068  14.329  23.514  0.00  0.00    +0.000 HD
ENDBRANCH  22  23
ENDBRANCH  15  22
ENDBRANCH   1  18
TORSDOF 5
ENDMDL
MODEL 7
REMARK VINA RESULT:      -7.0      3.512      8.319
REMARK  Name = 
REMARK  5 active torsions:
REMARK  status: ('A' for Active; 'I' for Inactive)
REMARK    1  A    between atoms: C_2  and  O_3
REMARK    2  A    between atoms: C_2  and  C_4
REMARK    3  A    between atoms: C_7  and  N_8
REMARK    4  A    between atoms: C_9  and  C_11
REMARK    5  A    between atoms: C_15  and  O_16
REMARK                            x       y       z     vdW  Elec       q    Type
REMARK                         _______ _______ _______ _____ _____    ______ ____
ROOT
ATOM      1  N   UNL     1       2.009   8.600  17.628  0.00  0.00    +0.000 N 
ATOM      2  C   UNL     1       2.430   7.610  18.509  0.00  0.00    +0.000 C 
ATOM      3  O   UNL     1       2.178   7.573  19.711  0.00  0.00    +0.000 OA
ATOM      4  H   UNL     1       2.153   8.475  16.635  0.00  0.00    +0.000 HD
ENDROOT
BRANCH   2   5
ATOM      5  C   UNL     1       3.263   6.506  17.972  0.00  0.00    +0.000 A 
ATOM      6  C   UNL     1       2.675   5.230  17.944  0.00  0.00    +0.000 A 
ATOM      7  C   UNL     1       3.398   4.134  17.486  0.00  0.00    +0.000 A 
ATOM      8 CL   UNL     1       2.664   2.574  17.508  0.00  0.00    +0.000 Cl
ATOM      9  C   UNL     1       4.708   4.298  17.036  0.00  0.00    +0.000 A 
ATOM     10  C   UNL     1       5.284   5.572  17.032  0.00  0.00    +0.000 A 
ATOM     11 CL   UNL     1       6.897   5.824  16.474  0.00  0.00    +0.000 Cl
ATOM     12  C   UNL     1       4.564   6.681  17.495  0.00  0.00    +0.000 A 
BRANCH   9  13
ATOM     13  O   UNL     1       5.433   3.219  16.602  0.00  0.00    +0.000 OA
ATOM     14  H   UNL     1       5.035   2.906  15.766  0.00  0.00    +0.000 HD
ENDBRANCH   9  13
ENDBRANCH   2   5
BRANCH   1  18
ATOM     15  C   UNL     1      -0.052  12.090  18.849  0.00  0.00    +0.000 A 
ATOM     16  C   UNL     1       1.336  12.117  18.709  0.00  0.00    +0.000 A 
ATOM     17  C   UNL     1       2.017  10.967  18.305  0.00  0.00    +0.000 A 
ATOM     18  C   UNL     1       1.335   9.780  18.017  0.00  0.00    +0.000 A 
ATOM     19  C   UNL     1      -0.061   9.773  18.095  0.00  0.00    +0.000 A 
ATOM     20  C   UNL     1      -0.749  10.921  18.521  0.00  0.00    +0.000 A 
BRANCH  15  22
ATOM     21  O   UNL     1      -1.549  13.267  20.266  0.00  0.00    +0.000 OA
ATOM     22  C   UNL     1      -0.818  13.282  19.290  0.00  0.00    +0.000 C 
BRANCH  22  23
ATOM     23  O   UNL     1      -0.618  14.391  18.545  0.00  0.00    +0.000 OA
ATOM     24  H   UNL     1       0.267  14.791  18.606  0.00  0.00    +0.000 HD
ENDBRANCH  22  23
ENDBRANCH  15  22
ENDBRANCH   1  18
TORSDOF 5
ENDMDL
MODEL 8
REMARK VINA RESULT:      -6.9      0.263      2.111
REMARK  Name = 
REMARK  5 active torsions:
REMARK  status: ('A' for Active; 'I' for Inactive)
REMARK    1  A    between atoms: C_2  and  O_3
REMARK    2  A    between atoms: C_2  and  C_4
REMARK    3  A    between atoms: C_7  and  N_8
REMARK    4  A    between atoms: C_9  and  C_11
REMARK    5  A    between atoms: C_15  and  O_16
REMARK                            x       y       z     vdW  Elec       q    Type
REMARK                         _______ _______ _______ _____ _____    ______ ____
ROOT
ATOM      1  N   UNL     1       2.536   7.359  18.779  0.00  0.00    +0.000 N 
ATOM      2  C   UNL     1       2.022   8.541  18.258  0.00  0.00    +0.000 C 
ATOM      3  O   UNL     1       2.252   8.983  17.135  0.00  0.00    +0.000 OA
ATOM      4  H   UNL     1       2.185   7.012  19.662  0.00  0.00    +0.000 HD
ENDROOT
BRANCH   2   5
ATOM      5  C   UNL     1       1.128   9.353  19.120  0.00  0.00    +0.000 A 
ATOM      6  C   UNL     1       1.135   9.056  20.493  0.00  0.00    +0.000 A 
ATOM      7  C   UNL     1       0.303   9.747  21.365  0.00  0.00    +0.000 A 
ATOM      8 CL   UNL     1       0.303   9.327  23.038  0.00  0.00    +0.000 Cl
ATOM      9  C   UNL     1      -0.535  10.754  20.885  0.00  0.00    +0.000 A 
ATOM     10  C   UNL     1      -0.521  11.074  19.523  0.00  0.00    +0.000 A 
ATOM     11 CL   UNL     1      -1.532  12.318  18.885  0.00  0.00    +0.000 Cl
ATOM     12  C   UNL     1       0.312  10.380  18.637  0.00  0.00    +0.000 A 
BRANCH   9  13
ATOM     13  O   UNL     1      -1.372  11.426  21.736  0.00  0.00    +0.000 OA
ATOM     14  H   UNL     1      -2.290  11.173  21.517  0.00  0.00    +0.000 HD
ENDBRANCH   9  13
ENDBRANCH   2   5
BRANCH   1  18
ATOM     15  C   UNL     1       5.504   5.004  16.892  0.00  0.00    +0.000 A 
ATOM     16  C   UNL     1       4.386   4.389  17.457  0.00  0.00    +0.000 A 
ATOM     17  C   UNL     1       3.405   5.165  18.078  0.00  0.00    +0.000 A 
ATOM     18  C   UNL     1       3.507   6.559  18.135  0.00  0.00    +0.000 A 
ATOM     19  C   UNL     1       4.595   7.178  17.511  0.00  0.00    +0.000 A 
ATOM     20  C   UNL     1       5.594   6.401  16.904  0.00  0.00    +0.000 A 
BRANCH  15  22
ATOM     21  O   UNL     1       7.763   4.445  16.423  0.00  0.00    +0.000 OA
ATOM     22  C   UNL     1       6.579   4.221  16.233  0.00  0.00    +0.000 C 
BRANCH  22  23
ATOM     23  O   UNL     1       6.145   3.222  15.435  0.00  0.00    +0.000 OA
ATOM     24  H   UNL     1       5.198   3.237  15.211  0.00  0.00    +0.000 HD
ENDBRANCH  22  23
ENDBRANCH  15  22
ENDBRANCH   1  18
TORSDOF 5
ENDMDL
MODEL 9
REMARK VINA RESULT:      -6.9      3.533      8.417
REMARK  Name = 
REMARK  5 active torsions:
REMARK  status: ('A' for Active; 'I' for Inactive)
REMARK    1  A    between atoms: C_2  and  O_3
REMARK    2  A    between atoms: C_2  and  C_4
REMARK    3  A    between atoms: C_7  and  N_8
REMARK    4  A    between atoms: C_9  and  C_11
REMARK    5  A    between atoms: C_15  and  O_16
REMARK                            x       y       z     vdW  Elec       q    Type
REMARK                         _______ _______ _______ _____ _____    ______ ____
ROOT
ATOM      1  N   UNL     1       3.059   7.844  18.145  0.00  0.00    +0.000 N 
ATOM      2  C   UNL     1       3.109   6.455  18.186  0.00  0.00    +0.000 C 
ATOM      3  O   UNL     1       2.179   5.719  18.505  0.00  0.00    +0.000 OA
ATOM      4  H   UNL     1       3.833   8.356  17.743  0.00  0.00    +0.000 HD
ENDROOT
BRANCH   2   5
ATOM      5  C   UNL     1       4.387   5.791  17.828  0.00  0.00    +0.000 A 
ATOM      6  C   UNL     1       5.436   5.902  18.756  0.00  0.00    +0.000 A 
ATOM      7  C   UNL     1       6.677   5.337  18.483  0.00  0.00    +0.000 A 
ATOM      8 CL   UNL     1       7.957   5.530  19.623  0.00  0.00    +0.000 Cl
ATOM      9  C   UNL     1       6.884   4.642  17.292  0.00  0.00    +0.000 A 
ATOM     10  C   UNL     1       5.831   4.502  16.382  0.00  0.00    +0.000 A 
ATOM     11 CL   UNL     1       6.037   3.641  14.900  0.00  0.00    +0.000 Cl
ATOM     12  C   UNL     1       4.579   5.071  16.646  0.00  0.00    +0.000 A 
BRANCH   9  13
ATOM     13  O   UNL     1       8.110   4.099  17.008  0.00  0.00    +0.000 OA
ATOM     14  H   UNL     1       8.165   3.973  16.041  0.00  0.00    +0.000 HD
ENDBRANCH   9  13
ENDBRANCH   2   5
BRANCH   1  18
ATOM     15  C   UNL     1      -0.170  10.195  19.544  0.00  0.00    +0.000 A 
ATOM     16  C   UNL     1       0.088  10.115  18.175  0.00  0.00    +0.000 A 
ATOM     17  C   UNL     1       1.151   9.338  17.712  0.00  0.00    +0.000 A 
ATOM     18  C   UNL     1       1.964   8.617  18.592  0.00  0.00    +0.000 A 
ATOM     19  C   UNL     1       1.664   8.646  19.958  0.00  0.00    +0.000 A 
ATOM     20  C   UNL     1       0.609   9.442  20.431  0.00  0.00    +0.000 A 
BRANCH  15  22
ATOM     21  O   UNL     1      -1.339  11.349  21.258  0.00  0.00    +0.000 OA
ATOM     22  C   UNL     1      -1.280  11.018  20.086  0.00  0.00    +0.000 C 
BRANCH  22  23
ATOM     23  O   UNL     1      -2.201  11.398  19.174  0.00  0.00    +0.000 OA
ATOM     24  H   UNL     1      -3.003  10.849  19.124  0.00  0.00    +0.000 HD
ENDBRANCH  22  23
ENDBRANCH  15  22
ENDBRANCH   1  18
TORSDOF 5
ENDMDL
