MODEL 1
REMARK VINA RESULT:      -4.3      0.000      0.000
REMARK  Name = 
REMARK  1 active torsions:
REMARK  status: ('A' for Active; 'I' for Inactive)
REMARK    1  A    between atoms: C_2  and  C_4
REMARK                            x       y       z     vdW  Elec       q    Type
REMARK                         _______ _______ _______ _____ _____    ______ ____
ROOT
ATOM      1  N   UNL     1       7.729   5.455  14.319  0.00  0.00    +0.000 NA
ATOM      2  C   UNL     1       6.979   4.611  14.937  0.00  0.00    +0.000 C 
ATOM      3  N   UNL     1       6.292   3.611  14.319  0.00  0.00    +0.000 N 
ATOM      4  H   UNL     1       7.752   5.216  13.326  0.00  0.00    +0.000 HD
ATOM      5  H   UNL     1       6.041   3.774  13.352  0.00  0.00    +0.000 HD
ATOM      6  H   UNL     1       5.504   3.282  14.880  0.00  0.00    +0.000 HD
ENDROOT
BRANCH   2   7
ATOM      7  C   UNL     1       6.750   4.706  16.488  0.00  0.00    +0.000 C 
ATOM      8  C   UNL     1       6.971   6.065  17.188  0.00  0.00    +0.000 C 
ATOM      9  C   UNL     1       7.644   5.233  18.290  0.00  0.00    +0.000 C 
ATOM     10  N   UNL     1       7.942   4.205  17.264  0.00  0.00    +0.000 NA
ATOM     11  H   UNL     1       7.831   3.245  17.588  0.00  0.00    +0.000 HD
ENDBRANCH   2   7
TORSDOF 1
ENDMDL
MODEL 2
REMARK VINA RESULT:      -4.2      0.326      1.288
REMARK  Name = 
REMARK  1 active torsions:
REMARK  status: ('A' for Active; 'I' for Inactive)
REMARK    1  A    between atoms: C_2  and  C_4
REMARK                            x       y       z     vdW  Elec       q    Type
REMARK                         _______ _______ _______ _____ _____    ______ ____
ROOT
ATOM      1  N   UNL     1       6.262   3.561  13.983  0.00  0.00    +0.000 NA
ATOM      2  C   UNL     1       6.800   4.484  14.701  0.00  0.00    +0.000 C 
ATOM      3  N   UNL     1       7.597   5.469  14.199  0.00  0.00    +0.000 N 
ATOM      4  H   UNL     1       6.493   3.725  13.001  0.00  0.00    +0.000 HD
ATOM      5  H   UNL     1       8.096   5.248  13.348  0.00  0.00    +0.000 HD
ATOM      6  H   UNL     1       8.200   5.876  14.916  0.00  0.00    +0.000 HD
ENDROOT
BRANCH   2   7
ATOM      7  C   UNL     1       6.617   4.515  16.260  0.00  0.00    +0.000 C 
ATOM      8  C   UNL     1       6.609   5.882  16.979  0.00  0.00    +0.000 C 
ATOM      9  C   UNL     1       7.467   5.175  18.040  0.00  0.00    +0.000 C 
ATOM     10  N   UNL     1       7.910   4.234  16.984  0.00  0.00    +0.000 NA
ATOM     11  H   UNL     1       7.991   3.266  17.292  0.00  0.00    +0.000 HD
ENDBRANCH   2   7
TORSDOF 1
ENDMDL
MODEL 3
REMARK VINA RESULT:      -4.2      4.389      5.021
REMARK  Name = 
REMARK  1 active torsions:
REMARK  status: ('A' for Active; 'I' for Inactive)
REMARK    1  A    between atoms: C_2  and  C_4
REMARK                            x       y       z     vdW  Elec       q    Type
REMARK                         _______ _______ _______ _____ _____    ______ ____
ROOT
ATOM      1  N   UNL     1       1.900   1.616  18.691  0.00  0.00    +0.000 NA
ATOM      2  C   UNL     1       3.163   1.807  18.528  0.00  0.00    +0.000 C 
ATOM      3  N   UNL     1       4.063   0.805  18.329  0.00  0.00    +0.000 N 
ATOM      4  H   UNL     1       1.699   0.618  18.598  0.00  0.00    +0.000 HD
ATOM      5  H   UNL     1       3.817  -0.098  18.712  0.00  0.00    +0.000 HD
ATOM      6  H   UNL     1       5.014   1.090  18.572  0.00  0.00    +0.000 HD
ENDROOT
BRANCH   2   7
ATOM      7  C   UNL     1       3.785   3.247  18.603  0.00  0.00    +0.000 C 
ATOM      8  C   UNL     1       4.389   3.861  17.320  0.00  0.00    +0.000 C 
ATOM      9  C   UNL     1       5.509   4.354  18.249  0.00  0.00    +0.000 C 
ATOM     10  N   UNL     1       5.187   3.226  19.156  0.00  0.00    +0.000 NA
ATOM     11  H   UNL     1       5.228   3.461  20.147  0.00  0.00    +0.000 HD
ENDBRANCH   2   7
TORSDOF 1
ENDMDL
MODEL 4
REMARK VINA RESULT:      -4.2      4.334      4.911
REMARK  Name = 
REMARK  1 active torsions:
REMARK  status: ('A' for Active; 'I' for Inactive)
REMARK    1  A    between atoms: C_2  and  C_4
REMARK                            x       y       z     vdW  Elec       q    Type
REMARK                         _______ _______ _______ _____ _____    ______ ____
ROOT
ATOM      1  N   UNL     1       4.035   0.776  18.373  0.00  0.00    +0.000 NA
ATOM      2  C   UNL     1       3.263   1.802  18.477  0.00  0.00    +0.000 C 
ATOM      3  N   UNL     1       1.907   1.747  18.362  0.00  0.00    +0.000 N 
ATOM      4  H   UNL     1       3.461  -0.060  18.244  0.00  0.00    +0.000 HD
ATOM      5  H   UNL     1       1.537   0.993  17.798  0.00  0.00    +0.000 HD
ATOM      6  H   UNL     1       1.505   2.654  18.119  0.00  0.00    +0.000 HD
ENDROOT
BRANCH   2   7
ATOM      7  C   UNL     1       3.848   3.243  18.696  0.00  0.00    +0.000 C 
ATOM      8  C   UNL     1       4.452   3.990  17.486  0.00  0.00    +0.000 C 
ATOM      9  C   UNL     1       5.548   4.419  18.472  0.00  0.00    +0.000 C 
ATOM     10  N   UNL     1       5.244   3.203  19.264  0.00  0.00    +0.000 NA
ATOM     11  H   UNL     1       5.267   3.344  20.274  0.00  0.00    +0.000 HD
ENDBRANCH   2   7
TORSDOF 1
ENDMDL
MODEL 5
REMARK VINA RESULT:      -4.1      2.988      4.157
REMARK  Name = 
REMARK  1 active torsions:
REMARK  status: ('A' for Active; 'I' for Inactive)
REMARK    1  A    between atoms: C_2  and  C_4
REMARK                            x       y       z     vdW  Elec       q    Type
REMARK                         _______ _______ _______ _____ _____    ______ ____
ROOT
ATOM      1  N   UNL     1       8.057   5.348  20.425  0.00  0.00    +0.000 NA
ATOM      2  C   UNL     1       7.699   5.942  19.340  0.00  0.00    +0.000 C 
ATOM      3  N   UNL     1       8.337   7.028  18.822  0.00  0.00    +0.000 N 
ATOM      4  H   UNL     1       8.904   5.793  20.784  0.00  0.00    +0.000 HD
ATOM      5  H   UNL     1       8.829   7.613  19.484  0.00  0.00    +0.000 HD
ATOM      6  H   UNL     1       7.735   7.563  18.194  0.00  0.00    +0.000 HD
ENDROOT
BRANCH   2   7
ATOM      7  C   UNL     1       6.430   5.479  18.539  0.00  0.00    +0.000 C 
ATOM      8  C   UNL     1       5.098   5.294  19.300  0.00  0.00    +0.000 C 
ATOM      9  C   UNL     1       4.940   4.032  18.439  0.00  0.00    +0.000 C 
ATOM     10  N   UNL     1       6.417   3.987  18.318  0.00  0.00    +0.000 NA
ATOM     11  H   UNL     1       6.754   3.718  17.395  0.00  0.00    +0.000 HD
ENDBRANCH   2   7
TORSDOF 1
ENDMDL
MODEL 6
REMARK VINA RESULT:      -4.1      1.188      3.318
REMARK  Name = 
REMARK  1 active torsions:
REMARK  status: ('A' for Active; 'I' for Inactive)
REMARK    1  A    between atoms: C_2  and  C_4
REMARK                            x       y       z     vdW  Elec       q    Type
REMARK                         _______ _______ _______ _____ _____    ______ ____
ROOT
ATOM      1  N   UNL     1       8.212   4.113  17.718  0.00  0.00    +0.000 NA
ATOM      2  C   UNL     1       7.243   4.945  17.559  0.00  0.00    +0.000 C 
ATOM      3  N   UNL     1       6.714   5.695  18.566  0.00  0.00    +0.000 N 
ATOM      4  H   UNL     1       8.531   4.153  18.688  0.00  0.00    +0.000 HD
ATOM      5  H   UNL     1       6.796   5.311  19.498  0.00  0.00    +0.000 HD
ATOM      6  H   UNL     1       5.766   6.011  18.352  0.00  0.00    +0.000 HD
ENDROOT
BRANCH   2   7
ATOM      7  C   UNL     1       6.542   5.125  16.166  0.00  0.00    +0.000 C 
ATOM      8  C   UNL     1       6.015   3.871  15.433  0.00  0.00    +0.000 C 
ATOM      9  C   UNL     1       6.588   4.535  14.172  0.00  0.00    +0.000 C 
ATOM     10  N   UNL     1       7.542   5.258  15.046  0.00  0.00    +0.000 NA
ATOM     11  H   UNL     1       7.708   6.227  14.773  0.00  0.00    +0.000 HD
ENDBRANCH   2   7
TORSDOF 1
ENDMDL
MODEL 7
REMARK VINA RESULT:      -4.0      5.151      6.075
REMARK  Name = 
REMARK  1 active torsions:
REMARK  status: ('A' for Active; 'I' for Inactive)
REMARK    1  A    between atoms: C_2  and  C_4
REMARK                            x       y       z     vdW  Elec       q    Type
REMARK                         _______ _______ _______ _____ _____    ______ ____
ROOT
ATOM      1  N   UNL     1       4.865   1.843  20.180  0.00  0.00    +0.000 NA
ATOM      2  C   UNL     1       4.562   2.786  19.356  0.00  0.00    +0.000 C 
ATOM      3  N   UNL     1       5.467   3.664  18.841  0.00  0.00    +0.000 N 
ATOM      4  H   UNL     1       5.876   1.845  20.331  0.00  0.00    +0.000 HD
ATOM      5  H   UNL     1       6.288   3.840  19.405  0.00  0.00    +0.000 HD
ATOM      6  H   UNL     1       5.023   4.523  18.511  0.00  0.00    +0.000 HD
ENDROOT
BRANCH   2   7
ATOM      7  C   UNL     1       3.076   3.035  18.913  0.00  0.00    +0.000 C 
ATOM      8  C   UNL     1       1.955   2.901  19.968  0.00  0.00    +0.000 C 
ATOM      9  C   UNL     1       1.177   2.191  18.850  0.00  0.00    +0.000 C 
ATOM     10  N   UNL     1       2.479   1.823  18.243  0.00  0.00    +0.000 NA
ATOM     11  H   UNL     1       2.498   1.881  17.225  0.00  0.00    +0.000 HD
ENDBRANCH   2   7
TORSDOF 1
ENDMDL
MODEL 8
REMARK VINA RESULT:      -4.0      1.894      2.504
REMARK  Name = 
REMARK  1 active torsions:
REMARK  status: ('A' for Active; 'I' for Inactive)
REMARK    1  A    between atoms: C_2  and  C_4
REMARK                            x       y       z     vdW  Elec       q    Type
REMARK                         _______ _______ _______ _____ _____    ______ ____
ROOT
ATOM      1  N   UNL     1       7.556   5.300  14.847  0.00  0.00    +0.000 NA
ATOM      2  C   UNL     1       7.038   4.735  15.882  0.00  0.00    +0.000 C 
ATOM      3  N   UNL     1       7.757   4.320  16.961  0.00  0.00    +0.000 N 
ATOM      4  H   UNL     1       8.559   5.419  15.000  0.00  0.00    +0.000 HD
ATOM      5  H   UNL     1       8.724   4.081  16.787  0.00  0.00    +0.000 HD
ATOM      6  H   UNL     1       7.265   3.604  17.498  0.00  0.00    +0.000 HD
ENDROOT
BRANCH   2   7
ATOM      7  C   UNL     1       5.500   4.424  15.956  0.00  0.00    +0.000 C 
ATOM      8  C   UNL     1       4.602   5.328  16.831  0.00  0.00    +0.000 C 
ATOM      9  C   UNL     1       3.929   4.014  17.255  0.00  0.00    +0.000 C 
ATOM     10  N   UNL     1       5.197   3.316  16.932  0.00  0.00    +0.000 NA
ATOM     11  H   UNL     1       5.073   2.410  16.481  0.00  0.00    +0.000 HD
ENDBRANCH   2   7
TORSDOF 1
ENDMDL
MODEL 9
REMARK VINA RESULT:      -4.0      1.429      2.005
REMARK  Name = 
REMARK  1 active torsions:
REMARK  status: ('A' for Active; 'I' for Inactive)
REMARK    1  A    between atoms: C_2  and  C_4
REMARK                            x       y       z     vdW  Elec       q    Type
REMARK                         _______ _______ _______ _____ _____    ______ ____
ROOT
ATOM      1  N   UNL     1       6.333   3.679  13.890  0.00  0.00    +0.000 NA
ATOM      2  C   UNL     1       6.860   4.720  14.435  0.00  0.00    +0.000 C 
ATOM      3  N   UNL     1       7.822   5.481  13.844  0.00  0.00    +0.000 N 
ATOM      4  H   UNL     1       6.720   3.562  12.951  0.00  0.00    +0.000 HD
ATOM      5  H   UNL     1       8.412   5.011  13.170  0.00  0.00    +0.000 HD
ATOM      6  H   UNL     1       8.357   6.021  14.526  0.00  0.00    +0.000 HD
ENDROOT
BRANCH   2   7
ATOM      7  C   UNL     1       6.459   5.173  15.884  0.00  0.00    +0.000 C 
ATOM      8  C   UNL     1       5.267   6.141  16.056  0.00  0.00    +0.000 C 
ATOM      9  C   UNL     1       6.155   6.829  17.104  0.00  0.00    +0.000 C 
ATOM     10  N   UNL     1       7.335   6.292  16.386  0.00  0.00    +0.000 NA
ATOM     11  H   UNL     1       8.085   5.968  16.996  0.00  0.00    +0.000 HD
ENDBRANCH   2   7
TORSDOF 1
ENDMDL
