MODEL 1
REMARK VINA RESULT:      -7.1      0.000      0.000
REMARK  Name = 
REMARK  4 active torsions:
REMARK  status: ('A' for Active; 'I' for Inactive)
REMARK    1  A    between atoms: C_1  and  C_2
REMARK    2  A    between atoms: N_8  and  C_9
REMARK    3  A    between atoms: C_16  and  C_17
REMARK    4  A    between atoms: N_19  and  N_20
REMARK                            x       y       z     vdW  Elec       q    Type
REMARK                         _______ _______ _______ _____ _____    ______ ____
ROOT
ATOM      1  C   UNL     1      -0.666  10.463  22.392  0.00  0.00    +0.000 C 
ATOM      2  C   UNL     1       0.190   9.909  21.308  0.00  0.00    +0.000 A 
ATOM      3  N   UNL     1       0.809   8.680  21.528  0.00  0.00    +0.000 NA
ATOM      4  C   UNL     1       1.451   8.306  20.448  0.00  0.00    +0.000 A 
ATOM      5  N   UNL     1       2.144   7.124  20.381  0.00  0.00    +0.000 N 
ATOM      6  C   UNL     1       2.566   6.520  19.220  0.00  0.00    +0.000 C 
ATOM      7  O   UNL     1       2.294   6.866  18.081  0.00  0.00    +0.000 OA
ATOM      8  N   UNL     1       3.407   5.457  19.485  0.00  0.00    +0.000 N 
ATOM      9  S   UNL     1       1.467   9.427  19.174  0.00  0.00    +0.000 S 
ATOM     10  C   UNL     1       0.448  10.476  20.067  0.00  0.00    +0.000 A 
ATOM     11  H   UNL     1       2.168   6.614  21.246  0.00  0.00    +0.000 HD
ATOM     12  H   UNL     1       3.258   4.982  20.360  0.00  0.00    +0.000 HD
ENDROOT
BRANCH   8  13
ATOM     13  C   UNL     1       4.034   4.680  18.410  0.00  0.00    +0.000 C 
ATOM     14  C   UNL     1       4.937   3.549  18.934  0.00  0.00    +0.000 C 
ATOM     15  C   UNL     1       4.138   2.509  19.717  0.00  0.00    +0.000 C 
ATOM     16  C   UNL     1       3.016   1.919  18.867  0.00  0.00    +0.000 C 
ATOM     17  C   UNL     1       2.138   2.991  18.225  0.00  0.00    +0.000 C 
ATOM     18  C   UNL     1       2.955   4.067  17.504  0.00  0.00    +0.000 C 
ENDBRANCH   8  13
BRANCH  10  19
ATOM     19  C   UNL     1      -0.028  11.728  19.505  0.00  0.00    +0.000 C 
ATOM     20  O   UNL     1       0.050  12.812  20.085  0.00  0.00    +0.000 OA
ATOM     21  N   UNL     1      -0.603  11.630  18.234  0.00  0.00    +0.000 N 
ATOM     22  H   UNL     1      -0.580  10.734  17.748  0.00  0.00    +0.000 HD
BRANCH  21  23
ATOM     23  N   UNL     1      -1.084  12.771  17.558  0.00  0.00    +0.000 NA
ATOM     24  H   UNL     1      -0.505  13.568  17.855  0.00  0.00    +0.000 HD
ATOM     25  H   UNL     1      -2.017  12.983  17.922  0.00  0.00    +0.000 HD
ENDBRANCH  21  23
ENDBRANCH  10  19
TORSDOF 3
ENDMDL
MODEL 2
REMARK VINA RESULT:      -6.9      1.651      2.436
REMARK  Name = 
REMARK  4 active torsions:
REMARK  status: ('A' for Active; 'I' for Inactive)
REMARK    1  A    between atoms: C_1  and  C_2
REMARK    2  A    between atoms: N_8  and  C_9
REMARK    3  A    between atoms: C_16  and  C_17
REMARK    4  A    between atoms: N_19  and  N_20
REMARK                            x       y       z     vdW  Elec       q    Type
REMARK                         _______ _______ _______ _____ _____    ______ ____
ROOT
ATOM      1  C   UNL     1      -0.393   9.744  23.143  0.00  0.00    +0.000 C 
ATOM      2  C   UNL     1       0.258   9.528  21.822  0.00  0.00    +0.000 A 
ATOM      3  N   UNL     1       1.119   8.442  21.686  0.00  0.00    +0.000 NA
ATOM      4  C   UNL     1       1.534   8.355  20.446  0.00  0.00    +0.000 A 
ATOM      5  N   UNL     1       2.387   7.366  20.027  0.00  0.00    +0.000 N 
ATOM      6  C   UNL     1       2.614   7.020  18.716  0.00  0.00    +0.000 C 
ATOM      7  O   UNL     1       2.015   7.444  17.740  0.00  0.00    +0.000 OA
ATOM      8  N   UNL     1       3.668   6.135  18.605  0.00  0.00    +0.000 N 
ATOM      9  S   UNL     1       1.040   9.608  19.413  0.00  0.00    +0.000 S 
ATOM     10  C   UNL     1       0.100  10.293  20.672  0.00  0.00    +0.000 A 
ATOM     11  H   UNL     1       2.712   6.766  20.765  0.00  0.00    +0.000 HD
ATOM     12  H   UNL     1       3.824   5.531  19.396  0.00  0.00    +0.000 HD
ENDROOT
BRANCH   8  13
ATOM     13  C   UNL     1       4.141   5.654  17.302  0.00  0.00    +0.000 C 
ATOM     14  C   UNL     1       5.033   6.674  16.572  0.00  0.00    +0.000 C 
ATOM     15  C   UNL     1       6.319   6.951  17.347  0.00  0.00    +0.000 C 
ATOM     16  C   UNL     1       7.105   5.666  17.594  0.00  0.00    +0.000 C 
ATOM     17  C   UNL     1       6.251   4.566  18.222  0.00  0.00    +0.000 C 
ATOM     18  C   UNL     1       4.930   4.348  17.478  0.00  0.00    +0.000 C 
ENDBRANCH   8  13
BRANCH  10  19
ATOM     19  C   UNL     1      -0.712  11.476  20.452  0.00  0.00    +0.000 C 
ATOM     20  O   UNL     1      -0.589  12.520  21.094  0.00  0.00    +0.000 OA
ATOM     21  N   UNL     1      -1.675  11.360  19.445  0.00  0.00    +0.000 N 
ATOM     22  H   UNL     1      -1.699  10.512  18.879  0.00  0.00    +0.000 HD
BRANCH  21  23
ATOM     23  N   UNL     1      -2.517  12.440  19.108  0.00  0.00    +0.000 NA
ATOM     24  H   UNL     1      -3.060  12.156  18.281  0.00  0.00    +0.000 HD
ATOM     25  H   UNL     1      -1.928  13.208  18.776  0.00  0.00    +0.000 HD
ENDBRANCH  21  23
ENDBRANCH  10  19
TORSDOF 3
ENDMDL
MODEL 3
REMARK VINA RESULT:      -6.9      2.892      4.124
REMARK  Name = 
REMARK  4 active torsions:
REMARK  status: ('A' for Active; 'I' for Inactive)
REMARK    1  A    between atoms: C_1  and  C_2
REMARK    2  A    between atoms: N_8  and  C_9
REMARK    3  A    between atoms: C_16  and  C_17
REMARK    4  A    between atoms: N_19  and  N_20
REMARK                            x       y       z     vdW  Elec       q    Type
REMARK                         _______ _______ _______ _____ _____    ______ ____
ROOT
ATOM      1  C   UNL     1       0.490  10.849  19.193  0.00  0.00    +0.000 C 
ATOM      2  C   UNL     1       1.118   9.503  19.279  0.00  0.00    +0.000 A 
ATOM      3  N   UNL     1       1.908   9.080  18.212  0.00  0.00    +0.000 NA
ATOM      4  C   UNL     1       2.444   7.916  18.490  0.00  0.00    +0.000 A 
ATOM      5  N   UNL     1       3.280   7.269  17.616  0.00  0.00    +0.000 N 
ATOM      6  C   UNL     1       4.116   6.229  17.946  0.00  0.00    +0.000 C 
ATOM      7  O   UNL     1       4.336   5.802  19.069  0.00  0.00    +0.000 OA
ATOM      8  N   UNL     1       4.676   5.658  16.820  0.00  0.00    +0.000 N 
ATOM      9  S   UNL     1       1.951   7.206  19.950  0.00  0.00    +0.000 S 
ATOM     10  C   UNL     1       1.017   8.593  20.325  0.00  0.00    +0.000 A 
ATOM     11  H   UNL     1       3.386   7.733  16.731  0.00  0.00    +0.000 HD
ATOM     12  H   UNL     1       4.801   6.270  16.029  0.00  0.00    +0.000 HD
ENDROOT
BRANCH   8  13
ATOM     13  C   UNL     1       5.566   4.494  16.902  0.00  0.00    +0.000 C 
ATOM     14  C   UNL     1       5.363   3.499  15.746  0.00  0.00    +0.000 C 
ATOM     15  C   UNL     1       5.709   4.128  14.397  0.00  0.00    +0.000 C 
ATOM     16  C   UNL     1       7.144   4.649  14.382  0.00  0.00    +0.000 C 
ATOM     17  C   UNL     1       7.451   5.563  15.566  0.00  0.00    +0.000 C 
ATOM     18  C   UNL     1       7.032   4.952  16.906  0.00  0.00    +0.000 C 
ENDBRANCH   8  13
BRANCH  10  19
ATOM     19  C   UNL     1       0.293   8.701  21.578  0.00  0.00    +0.000 C 
ATOM     20  O   UNL     1      -0.790   8.154  21.792  0.00  0.00    +0.000 OA
ATOM     21  N   UNL     1       0.906   9.491  22.555  0.00  0.00    +0.000 N 
ATOM     22  H   UNL     1       1.837   9.865  22.376  0.00  0.00    +0.000 HD
BRANCH  21  23
ATOM     23  N   UNL     1       0.325   9.663  23.830  0.00  0.00    +0.000 NA
ATOM     24  H   UNL     1      -0.151  10.575  23.826  0.00  0.00    +0.000 HD
ATOM     25  H   UNL     1       1.082   9.770  24.509  0.00  0.00    +0.000 HD
ENDBRANCH  21  23
ENDBRANCH  10  19
TORSDOF 3
ENDMDL
MODEL 4
REMARK VINA RESULT:      -6.8      7.785      8.199
REMARK  Name = 
REMARK  4 active torsions:
REMARK  status: ('A' for Active; 'I' for Inactive)
REMARK    1  A    between atoms: C_1  and  C_2
REMARK    2  A    between atoms: N_8  and  C_9
REMARK    3  A    between atoms: C_16  and  C_17
REMARK    4  A    between atoms: N_19  and  N_20
REMARK                            x       y       z     vdW  Elec       q    Type
REMARK                         _______ _______ _______ _____ _____    ______ ____
ROOT
ATOM      1  C   UNL     1      10.213  13.144  21.294  0.00  0.00    +0.000 C 
ATOM      2  C   UNL     1      10.027  12.209  20.152  0.00  0.00    +0.000 A 
ATOM      3  N   UNL     1       9.436  10.974  20.407  0.00  0.00    +0.000 NA
ATOM      4  C   UNL     1       9.276  10.316  19.285  0.00  0.00    +0.000 A 
ATOM      5  N   UNL     1       8.704   9.071  19.241  0.00  0.00    +0.000 N 
ATOM      6  C   UNL     1       8.220   8.462  18.107  0.00  0.00    +0.000 C 
ATOM      7  O   UNL     1       8.111   8.969  17.001  0.00  0.00    +0.000 OA
ATOM      8  N   UNL     1       7.894   7.141  18.346  0.00  0.00    +0.000 N 
ATOM      9  S   UNL     1       9.923  11.054  17.899  0.00  0.00    +0.000 S 
ATOM     10  C   UNL     1      10.374  12.425  18.824  0.00  0.00    +0.000 A 
ATOM     11  H   UNL     1       8.485   8.688  20.144  0.00  0.00    +0.000 HD
ATOM     12  H   UNL     1       7.609   6.919  19.286  0.00  0.00    +0.000 HD
ENDROOT
BRANCH   8  13
ATOM     13  C   UNL     1       7.403   6.260  17.281  0.00  0.00    +0.000 C 
ATOM     14  C   UNL     1       7.293   4.789  17.720  0.00  0.00    +0.000 C 
ATOM     15  C   UNL     1       6.269   4.613  18.840  0.00  0.00    +0.000 C 
ATOM     16  C   UNL     1       4.895   5.128  18.419  0.00  0.00    +0.000 C 
ATOM     17  C   UNL     1       4.944   6.553  17.868  0.00  0.00    +0.000 C 
ATOM     18  C   UNL     1       6.024   6.734  16.798  0.00  0.00    +0.000 C 
ENDBRANCH   8  13
BRANCH  10  19
ATOM     19  C   UNL     1      10.994  13.582  18.206  0.00  0.00    +0.000 C 
ATOM     20  O   UNL     1      11.933  14.204  18.705  0.00  0.00    +0.000 OA
ATOM     21  N   UNL     1      10.446  13.969  16.979  0.00  0.00    +0.000 N 
ATOM     22  H   UNL     1       9.723  13.389  16.555  0.00  0.00    +0.000 HD
BRANCH  21  23
ATOM     23  N   UNL     1      10.968  15.063  16.256  0.00  0.00    +0.000 NA
ATOM     24  H   UNL     1      11.962  15.146  16.506  0.00  0.00    +0.000 HD
ATOM     25  H   UNL     1      10.539  15.916  16.621  0.00  0.00    +0.000 HD
ENDBRANCH  21  23
ENDBRANCH  10  19
TORSDOF 3
ENDMDL
MODEL 5
REMARK VINA RESULT:      -6.7      2.551      7.869
REMARK  Name = 
REMARK  4 active torsions:
REMARK  status: ('A' for Active; 'I' for Inactive)
REMARK    1  A    between atoms: C_1  and  C_2
REMARK    2  A    between atoms: N_8  and  C_9
REMARK    3  A    between atoms: C_16  and  C_17
REMARK    4  A    between atoms: N_19  and  N_20
REMARK                            x       y       z     vdW  Elec       q    Type
REMARK                         _______ _______ _______ _____ _____    ______ ____
ROOT
ATOM      1  C   UNL     1       2.617   2.428  21.630  0.00  0.00    +0.000 C 
ATOM      2  C   UNL     1       2.357   3.565  20.706  0.00  0.00    +0.000 A 
ATOM      3  N   UNL     1       2.040   4.801  21.264  0.00  0.00    +0.000 NA
ATOM      4  C   UNL     1       1.925   5.700  20.316  0.00  0.00    +0.000 A 
ATOM      5  N   UNL     1       1.627   7.012  20.584  0.00  0.00    +0.000 N 
ATOM      6  C   UNL     1       1.798   8.057  19.707  0.00  0.00    +0.000 C 
ATOM      7  O   UNL     1       2.344   8.006  18.616  0.00  0.00    +0.000 OA
ATOM      8  N   UNL     1       1.223   9.216  20.189  0.00  0.00    +0.000 N 
ATOM      9  S   UNL     1       2.055   5.118  18.727  0.00  0.00    +0.000 S 
ATOM     10  C   UNL     1       2.401   3.547  19.318  0.00  0.00    +0.000 A 
ATOM     11  H   UNL     1       1.442   7.200  21.554  0.00  0.00    +0.000 HD
ATOM     12  H   UNL     1       1.181   9.306  21.191  0.00  0.00    +0.000 HD
ENDROOT
BRANCH   8  13
ATOM     13  C   UNL     1       1.225  10.461  19.413  0.00  0.00    +0.000 C 
ATOM     14  C   UNL     1       0.099  10.518  18.365  0.00  0.00    +0.000 C 
ATOM     15  C   UNL     1      -1.280  10.499  19.021  0.00  0.00    +0.000 C 
ATOM     16  C   UNL     1      -1.439  11.652  20.008  0.00  0.00    +0.000 C 
ATOM     17  C   UNL     1      -0.295  11.724  21.018  0.00  0.00    +0.000 C 
ATOM     18  C   UNL     1       1.083  11.668  20.352  0.00  0.00    +0.000 C 
ENDBRANCH   8  13
BRANCH  10  19
ATOM     19  C   UNL     1       2.699   2.449  18.415  0.00  0.00    +0.000 C 
ATOM     20  O   UNL     1       2.022   2.175  17.424  0.00  0.00    +0.000 OA
ATOM     21  N   UNL     1       3.826   1.692  18.749  0.00  0.00    +0.000 N 
ATOM     22  H   UNL     1       4.410   1.991  19.530  0.00  0.00    +0.000 HD
BRANCH  21  23
ATOM     23  N   UNL     1       4.246   0.611  17.946  0.00  0.00    +0.000 NA
ATOM     24  H   UNL     1       3.519   0.460  17.234  0.00  0.00    +0.000 HD
ATOM     25  H   UNL     1       4.222  -0.236  18.520  0.00  0.00    +0.000 HD
ENDBRANCH  21  23
ENDBRANCH  10  19
TORSDOF 3
ENDMDL
MODEL 6
REMARK VINA RESULT:      -6.7      2.381      8.127
REMARK  Name = 
REMARK  4 active torsions:
REMARK  status: ('A' for Active; 'I' for Inactive)
REMARK    1  A    between atoms: C_1  and  C_2
REMARK    2  A    between atoms: N_8  and  C_9
REMARK    3  A    between atoms: C_16  and  C_17
REMARK    4  A    between atoms: N_19  and  N_20
REMARK                            x       y       z     vdW  Elec       q    Type
REMARK                         _______ _______ _______ _____ _____    ______ ____
ROOT
ATOM      1  C   UNL     1       4.189   3.999  16.714  0.00  0.00    +0.000 C 
ATOM      2  C   UNL     1       3.651   4.850  17.809  0.00  0.00    +0.000 A 
ATOM      3  N   UNL     1       3.334   6.174  17.514  0.00  0.00    +0.000 NA
ATOM      4  C   UNL     1       2.800   6.749  18.564  0.00  0.00    +0.000 A 
ATOM      5  N   UNL     1       2.382   8.055  18.550  0.00  0.00    +0.000 N 
ATOM      6  C   UNL     1       1.543   8.627  19.477  0.00  0.00    +0.000 C 
ATOM      7  O   UNL     1       0.950   8.048  20.374  0.00  0.00    +0.000 OA
ATOM      8  N   UNL     1       1.470   9.996  19.312  0.00  0.00    +0.000 N 
ATOM      9  S   UNL     1       2.761   5.811  19.978  0.00  0.00    +0.000 S 
ATOM     10  C   UNL     1       3.411   4.474  19.125  0.00  0.00    +0.000 A 
ATOM     11  H   UNL     1       2.583   8.540  17.693  0.00  0.00    +0.000 HD
ATOM     12  H   UNL     1       1.610  10.336  18.374  0.00  0.00    +0.000 HD
ENDROOT
BRANCH   8  13
ATOM     13  C   UNL     1       0.679  10.843  20.211  0.00  0.00    +0.000 C 
ATOM     14  C   UNL     1       1.173  12.301  20.253  0.00  0.00    +0.000 C 
ATOM     15  C   UNL     1       1.030  12.980  18.892  0.00  0.00    +0.000 C 
ATOM     16  C   UNL     1      -0.415  12.941  18.403  0.00  0.00    +0.000 C 
ATOM     17  C   UNL     1      -1.009  11.534  18.436  0.00  0.00    +0.000 C 
ATOM     18  C   UNL     1      -0.795  10.836  19.782  0.00  0.00    +0.000 C 
ENDBRANCH   8  13
BRANCH  10  19
ATOM     19  C   UNL     1       3.616   3.191  19.773  0.00  0.00    +0.000 C 
ATOM     20  O   UNL     1       2.721   2.555  20.330  0.00  0.00    +0.000 OA
ATOM     21  N   UNL     1       4.927   2.707  19.735  0.00  0.00    +0.000 N 
ATOM     22  H   UNL     1       5.628   3.217  19.199  0.00  0.00    +0.000 HD
BRANCH  21  23
ATOM     23  N   UNL     1       5.264   1.460  20.304  0.00  0.00    +0.000 NA
ATOM     24  H   UNL     1       5.768   1.653  21.181  0.00  0.00    +0.000 HD
ATOM     25  H   UNL     1       5.960   1.016  19.700  0.00  0.00    +0.000 HD
ENDBRANCH  21  23
ENDBRANCH  10  19
TORSDOF 3
ENDMDL
MODEL 7
REMARK VINA RESULT:      -6.6      2.554      8.147
REMARK  Name = 
REMARK  4 active torsions:
REMARK  status: ('A' for Active; 'I' for Inactive)
REMARK    1  A    between atoms: C_1  and  C_2
REMARK    2  A    between atoms: N_8  and  C_9
REMARK    3  A    between atoms: C_16  and  C_17
REMARK    4  A    between atoms: N_19  and  N_20
REMARK                            x       y       z     vdW  Elec       q    Type
REMARK                         _______ _______ _______ _____ _____    ______ ____
ROOT
ATOM      1  C   UNL     1       5.186   4.416  16.051  0.00  0.00    +0.000 C 
ATOM      2  C   UNL     1       4.480   5.045  17.200  0.00  0.00    +0.000 A 
ATOM      3  N   UNL     1       4.048   6.362  17.062  0.00  0.00    +0.000 NA
ATOM      4  C   UNL     1       3.379   6.725  18.129  0.00  0.00    +0.000 A 
ATOM      5  N   UNL     1       2.828   7.974  18.257  0.00  0.00    +0.000 N 
ATOM      6  C   UNL     1       1.866   8.324  19.175  0.00  0.00    +0.000 C 
ATOM      7  O   UNL     1       1.271   7.567  19.928  0.00  0.00    +0.000 OA
ATOM      8  N   UNL     1       1.661   9.690  19.193  0.00  0.00    +0.000 N 
ATOM      9  S   UNL     1       3.332   5.592  19.392  0.00  0.00    +0.000 S 
ATOM     10  C   UNL     1       4.183   4.460  18.425  0.00  0.00    +0.000 A 
ATOM     11  H   UNL     1       3.040   8.596  17.497  0.00  0.00    +0.000 HD
ATOM     12  H   UNL     1       1.835  10.175  18.328  0.00  0.00    +0.000 HD
ENDROOT
BRANCH   8  13
ATOM     13  C   UNL     1       0.720  10.319  20.126  0.00  0.00    +0.000 C 
ATOM     14  C   UNL     1       1.058  11.792  20.418  0.00  0.00    +0.000 C 
ATOM     15  C   UNL     1       0.953  12.652  19.159  0.00  0.00    +0.000 C 
ATOM     16  C   UNL     1      -0.438  12.556  18.538  0.00  0.00    +0.000 C 
ATOM     17  C   UNL     1      -0.886  11.113  18.317  0.00  0.00    +0.000 C 
ATOM     18  C   UNL     1      -0.708  10.243  19.566  0.00  0.00    +0.000 C 
ENDBRANCH   8  13
BRANCH  10  19
ATOM     19  C   UNL     1       4.472   3.122  18.907  0.00  0.00    +0.000 C 
ATOM     20  O   UNL     1       5.186   2.885  19.882  0.00  0.00    +0.000 OA
ATOM     21  N   UNL     1       3.885   2.085  18.176  0.00  0.00    +0.000 N 
ATOM     22  H   UNL     1       3.237   2.315  17.423  0.00  0.00    +0.000 HD
BRANCH  21  23
ATOM     23  N   UNL     1       4.062   0.735  18.547  0.00  0.00    +0.000 NA
ATOM     24  H   UNL     1       3.289   0.201  18.128  0.00  0.00    +0.000 HD
ATOM     25  H   UNL     1       3.908   0.662  19.555  0.00  0.00    +0.000 HD
ENDBRANCH  21  23
ENDBRANCH  10  19
TORSDOF 3
ENDMDL
MODEL 8
REMARK VINA RESULT:      -6.6      1.415      2.388
REMARK  Name = 
REMARK  4 active torsions:
REMARK  status: ('A' for Active; 'I' for Inactive)
REMARK    1  A    between atoms: C_1  and  C_2
REMARK    2  A    between atoms: N_8  and  C_9
REMARK    3  A    between atoms: C_16  and  C_17
REMARK    4  A    between atoms: N_19  and  N_20
REMARK                            x       y       z     vdW  Elec       q    Type
REMARK                         _______ _______ _______ _____ _____    ______ ____
ROOT
ATOM      1  C   UNL     1      -0.735  10.941  21.907  0.00  0.00    +0.000 C 
ATOM      2  C   UNL     1       0.040  10.256  20.837  0.00  0.00    +0.000 A 
ATOM      3  N   UNL     1       0.880   9.208  21.206  0.00  0.00    +0.000 NA
ATOM      4  C   UNL     1       1.416   8.670  20.137  0.00  0.00    +0.000 A 
ATOM      5  N   UNL     1       2.280   7.607  20.207  0.00  0.00    +0.000 N 
ATOM      6  C   UNL     1       2.628   6.800  19.150  0.00  0.00    +0.000 C 
ATOM      7  O   UNL     1       2.144   6.823  18.029  0.00  0.00    +0.000 OA
ATOM      8  N   UNL     1       3.664   5.950  19.487  0.00  0.00    +0.000 N 
ATOM      9  S   UNL     1       1.066   9.443  18.667  0.00  0.00    +0.000 S 
ATOM     10  C   UNL     1       0.022  10.536  19.476  0.00  0.00    +0.000 A 
ATOM     11  H   UNL     1       2.511   7.328  21.145  0.00  0.00    +0.000 HD
ATOM     12  H   UNL     1       3.721   5.686  20.457  0.00  0.00    +0.000 HD
ENDROOT
BRANCH   8  13
ATOM     13  C   UNL     1       4.253   5.024  18.513  0.00  0.00    +0.000 C 
ATOM     14  C   UNL     1       4.633   5.708  17.188  0.00  0.00    +0.000 C 
ATOM     15  C   UNL     1       5.719   6.762  17.392  0.00  0.00    +0.000 C 
ATOM     16  C   UNL     1       6.965   6.157  18.034  0.00  0.00    +0.000 C 
ATOM     17  C   UNL     1       6.648   5.368  19.303  0.00  0.00    +0.000 C 
ATOM     18  C   UNL     1       5.508   4.366  19.105  0.00  0.00    +0.000 C 
ENDBRANCH   8  13
BRANCH  10  19
ATOM     19  C   UNL     1      -0.730  11.543  18.748  0.00  0.00    +0.000 C 
ATOM     20  O   UNL     1      -0.839  12.713  19.115  0.00  0.00    +0.000 OA
ATOM     21  N   UNL     1      -1.349  11.094  17.577  0.00  0.00    +0.000 N 
ATOM     22  H   UNL     1      -1.175  10.141  17.260  0.00  0.00    +0.000 HD
BRANCH  21  23
ATOM     23  N   UNL     1      -2.091  11.971  16.759  0.00  0.00    +0.000 NA
ATOM     24  H   UNL     1      -3.043  11.587  16.687  0.00  0.00    +0.000 HD
ATOM     25  H   UNL     1      -1.717  11.908  15.809  0.00  0.00    +0.000 HD
ENDBRANCH  21  23
ENDBRANCH  10  19
TORSDOF 3
ENDMDL
MODEL 9
REMARK VINA RESULT:      -6.6      1.067      1.067
REMARK  Name = 
REMARK  4 active torsions:
REMARK  status: ('A' for Active; 'I' for Inactive)
REMARK    1  A    between atoms: C_1  and  C_2
REMARK    2  A    between atoms: N_8  and  C_9
REMARK    3  A    between atoms: C_16  and  C_17
REMARK    4  A    between atoms: N_19  and  N_20
REMARK                            x       y       z     vdW  Elec       q    Type
REMARK                         _______ _______ _______ _____ _____    ______ ____
ROOT
ATOM      1  C   UNL     1      -0.827  10.345  23.050  0.00  0.00    +0.000 C 
ATOM      2  C   UNL     1      -0.002   9.897  21.895  0.00  0.00    +0.000 A 
ATOM      3  N   UNL     1       0.697   8.698  22.018  0.00  0.00    +0.000 NA
ATOM      4  C   UNL     1       1.299   8.416  20.888  0.00  0.00    +0.000 A 
ATOM      5  N   UNL     1       2.052   7.282  20.722  0.00  0.00    +0.000 N 
ATOM      6  C   UNL     1       2.443   6.762  19.511  0.00  0.00    +0.000 C 
ATOM      7  O   UNL     1       2.090   7.147  18.407  0.00  0.00    +0.000 OA
ATOM      8  N   UNL     1       3.357   5.739  19.675  0.00  0.00    +0.000 N 
ATOM      9  S   UNL     1       1.181   9.598  19.675  0.00  0.00    +0.000 S 
ATOM     10  C   UNL     1       0.155  10.540  20.674  0.00  0.00    +0.000 A 
ATOM     11  H   UNL     1       2.153   6.732  21.557  0.00  0.00    +0.000 HD
ATOM     12  H   UNL     1       3.283   5.213  20.531  0.00  0.00    +0.000 HD
ENDROOT
BRANCH   8  13
ATOM     13  C   UNL     1       3.966   5.054  18.529  0.00  0.00    +0.000 C 
ATOM     14  C   UNL     1       5.012   4.004  18.944  0.00  0.00    +0.000 C 
ATOM     15  C   UNL     1       4.380   2.871  19.752  0.00  0.00    +0.000 C 
ATOM     16  C   UNL     1       3.255   2.197  18.972  0.00  0.00    +0.000 C 
ATOM     17  C   UNL     1       2.230   3.195  18.435  0.00  0.00    +0.000 C 
ATOM     18  C   UNL     1       2.881   4.364  17.690  0.00  0.00    +0.000 C 
ENDBRANCH   8  13
BRANCH  10  19
ATOM     19  C   UNL     1      -0.421  11.787  20.204  0.00  0.00    +0.000 C 
ATOM     20  O   UNL     1      -1.582  11.899  19.810  0.00  0.00    +0.000 OA
ATOM     21  N   UNL     1       0.445  12.885  20.216  0.00  0.00    +0.000 N 
ATOM     22  H   UNL     1       1.375  12.778  20.621  0.00  0.00    +0.000 HD
BRANCH  21  23
ATOM     23  N   UNL     1       0.011  14.164  19.809  0.00  0.00    +0.000 NA
ATOM     24  H   UNL     1      -0.526  14.566  20.590  0.00  0.00    +0.000 HD
ATOM     25  H   UNL     1      -0.677  14.041  19.062  0.00  0.00    +0.000 HD
ENDBRANCH  21  23
ENDBRANCH  10  19
TORSDOF 3
ENDMDL
