MODEL 1
REMARK VINA RESULT:      -8.1      0.000      0.000
REMARK  Name = 
REMARK  11 active torsions:
REMARK  status: ('A' for Active; 'I' for Inactive)
REMARK    1  A    between atoms: C_1  and  S_2
REMARK    2  A    between atoms: S_2  and  C_3
REMARK    3  A    between atoms: C_6  and  C_7
REMARK    4  A    between atoms: C_8  and  C_9
REMARK    5  A    between atoms: C_23  and  N_24
REMARK    6  A    between atoms: N_24  and  C_25
REMARK    7  A    between atoms: C_25  and  C_26
REMARK    8  A    between atoms: C_26  and  C_27
REMARK    9  A    between atoms: C_27  and  N_28
REMARK   10  A    between atoms: N_28  and  C_29
REMARK   11  A    between atoms: N_28  and  C_30
REMARK                            x       y       z     vdW  Elec       q    Type
REMARK                         _______ _______ _______ _____ _____    ______ ____
ROOT
ATOM      1  C   UNL     1       0.403  10.049  19.879  0.00  0.00    +0.000 A 
ATOM      2  C   UNL     1       0.682  10.578  18.619  0.00  0.00    +0.000 A 
ATOM      3  C   UNL     1       1.613   9.959  17.740  0.00  0.00    +0.000 A 
ATOM      4  C   UNL     1       2.290   8.773  18.035  0.00  0.00    +0.000 A 
ATOM      5  N   UNL     1       3.201   8.283  17.148  0.00  0.00    +0.000 NA
ATOM      6  C   UNL     1       3.708   7.044  17.425  0.00  0.00    +0.000 A 
ATOM      7  C   UNL     1       3.324   6.337  18.555  0.00  0.00    +0.000 A 
ATOM      8  O   UNL     1       3.836   5.080  18.527  0.00  0.00    +0.000 OA
ATOM      9  C   UNL     1       4.612   4.979  17.420  0.00  0.00    +0.000 A 
ATOM     10  C   UNL     1       5.277   3.813  17.030  0.00  0.00    +0.000 A 
ATOM     11  C   UNL     1       6.126   3.903  15.930  0.00  0.00    +0.000 A 
ATOM     12  C   UNL     1       6.290   5.123  15.266  0.00  0.00    +0.000 A 
ATOM     13  C   UNL     1       5.555   6.271  15.647  0.00  0.00    +0.000 A 
ATOM     14  C   UNL     1       4.666   6.194  16.741  0.00  0.00    +0.000 A 
ATOM     15  C   UNL     1       2.518   6.893  19.573  0.00  0.00    +0.000 A 
ATOM     16  C   UNL     1       1.945   8.166  19.265  0.00  0.00    +0.000 A 
ATOM     17  C   UNL     1       1.033   8.834  20.160  0.00  0.00    +0.000 A 
ENDROOT
BRANCH   1  19
ATOM     18  C   UNL     1      -1.397  11.751  20.545  0.00  0.00    +0.000 C 
ATOM     19  C   UNL     1      -0.547  10.735  20.823  0.00  0.00    +0.000 C 
BRANCH  18  23
ATOM     20  C   UNL     1      -4.270  13.806  23.105  0.00  0.00    +0.000 A 
ATOM     21  C   UNL     1      -4.226  14.022  21.735  0.00  0.00    +0.000 A 
ATOM     22  C   UNL     1      -3.282  13.355  20.929  0.00  0.00    +0.000 A 
ATOM     23  C   UNL     1      -2.338  12.462  21.470  0.00  0.00    +0.000 A 
ATOM     24  C   UNL     1      -2.397  12.242  22.848  0.00  0.00    +0.000 A 
ATOM     25  C   UNL     1      -3.346  12.913  23.658  0.00  0.00    +0.000 A 
BRANCH  20  27
ATOM     26  C   UNL     1      -5.243  16.395  23.514  0.00  0.00    +0.000 C 
ATOM     27  S   UNL     1      -5.375  14.712  24.184  0.00  0.00    +0.000 S 
ENDBRANCH  20  27
ENDBRANCH  18  23
ENDBRANCH   1  19
BRANCH  15  28
ATOM     28  N   UNL     1       2.163   6.252  20.784  0.00  0.00    +0.000 N 
ATOM     29  H   UNL     1       2.999   6.064  21.327  0.00  0.00    +0.000 HD
BRANCH  28  30
ATOM     30  C   UNL     1       1.383   5.019  20.736  0.00  0.00    +0.000 C 
BRANCH  30  31
ATOM     31  C   UNL     1       2.124   3.880  21.443  0.00  0.00    +0.000 C 
BRANCH  31  32
ATOM     32  C   UNL     1       1.800   2.556  20.756  0.00  0.00    +0.000 C 
BRANCH  32  33
ATOM     33  N   UNL     1       1.970   2.562  19.294  0.00  0.00    +0.000 NA
ATOM     34  C   UNL     1       3.024   1.653  18.840  0.00  0.00    +0.000 C 
ATOM     35  C   UNL     1       0.693   2.195  18.671  0.00  0.00    +0.000 C 
ENDBRANCH  32  33
ENDBRANCH  31  32
ENDBRANCH  30  31
ENDBRANCH  28  30
ENDBRANCH  15  28
TORSDOF 8
ENDMDL
MODEL 2
REMARK VINA RESULT:      -8.1      4.614     10.869
REMARK  Name = 
REMARK  11 active torsions:
REMARK  status: ('A' for Active; 'I' for Inactive)
REMARK    1  A    between atoms: C_1  and  S_2
REMARK    2  A    between atoms: S_2  and  C_3
REMARK    3  A    between atoms: C_6  and  C_7
REMARK    4  A    between atoms: C_8  and  C_9
REMARK    5  A    between atoms: C_23  and  N_24
REMARK    6  A    between atoms: N_24  and  C_25
REMARK    7  A    between atoms: C_25  and  C_26
REMARK    8  A    between atoms: C_26  and  C_27
REMARK    9  A    between atoms: C_27  and  N_28
REMARK   10  A    between atoms: N_28  and  C_29
REMARK   11  A    between atoms: N_28  and  C_30
REMARK                            x       y       z     vdW  Elec       q    Type
REMARK                         _______ _______ _______ _____ _____    ______ ____
ROOT
ATOM      1  C   UNL     1       1.029   8.724  20.903  0.00  0.00    +0.000 A 
ATOM      2  C   UNL     1       0.521   8.439  22.170  0.00  0.00    +0.000 A 
ATOM      3  C   UNL     1      -0.199   9.409  22.919  0.00  0.00    +0.000 A 
ATOM      4  C   UNL     1      -0.489  10.693  22.453  0.00  0.00    +0.000 A 
ATOM      5  N   UNL     1      -1.145  11.570  23.266  0.00  0.00    +0.000 NA
ATOM      6  C   UNL     1      -1.534  12.748  22.693  0.00  0.00    +0.000 A 
ATOM      7  C   UNL     1      -1.261  13.037  21.365  0.00  0.00    +0.000 A 
ATOM      8  O   UNL     1      -1.883  14.184  20.989  0.00  0.00    +0.000 OA
ATOM      9  C   UNL     1      -2.504  14.689  22.083  0.00  0.00    +0.000 A 
ATOM     10  C   UNL     1      -3.285  15.849  22.079  0.00  0.00    +0.000 A 
ATOM     11  C   UNL     1      -3.762  16.298  23.307  0.00  0.00    +0.000 A 
ATOM     12  C   UNL     1      -3.453  15.603  24.480  0.00  0.00    +0.000 A 
ATOM     13  C   UNL     1      -2.712  14.398  24.444  0.00  0.00    +0.000 A 
ATOM     14  C   UNL     1      -2.244  13.906  23.206  0.00  0.00    +0.000 A 
ATOM     15  C   UNL     1      -0.438  12.224  20.554  0.00  0.00    +0.000 A 
ATOM     16  C   UNL     1      -0.072  10.968  21.130  0.00  0.00    +0.000 A 
ATOM     17  C   UNL     1       0.696   9.986  20.405  0.00  0.00    +0.000 A 
ENDROOT
BRANCH   1  19
ATOM     18  C   UNL     1       2.303   7.814  18.870  0.00  0.00    +0.000 C 
ATOM     19  C   UNL     1       1.832   7.709  20.135  0.00  0.00    +0.000 C 
BRANCH  18  23
ATOM     20  C   UNL     1       4.745   4.995  16.607  0.00  0.00    +0.000 A 
ATOM     21  C   UNL     1       5.001   6.359  16.595  0.00  0.00    +0.000 A 
ATOM     22  C   UNL     1       4.193   7.252  17.326  0.00  0.00    +0.000 A 
ATOM     23  C   UNL     1       3.088   6.812  18.079  0.00  0.00    +0.000 A 
ATOM     24  C   UNL     1       2.845   5.437  18.094  0.00  0.00    +0.000 A 
ATOM     25  C   UNL     1       3.658   4.539  17.360  0.00  0.00    +0.000 A 
BRANCH  20  27
ATOM     26  C   UNL     1       7.085   4.852  15.084  0.00  0.00    +0.000 C 
ATOM     27  S   UNL     1       5.674   3.836  15.609  0.00  0.00    +0.000 S 
ENDBRANCH  20  27
ENDBRANCH  18  23
ENDBRANCH   1  19
BRANCH  15  28
ATOM     28  N   UNL     1      -0.058  12.508  19.221  0.00  0.00    +0.000 N 
ATOM     29  H   UNL     1       0.487  13.364  19.198  0.00  0.00    +0.000 HD
BRANCH  28  30
ATOM     30  C   UNL     1      -1.088  12.614  18.193  0.00  0.00    +0.000 C 
BRANCH  30  31
ATOM     31  C   UNL     1      -2.106  11.478  18.326  0.00  0.00    +0.000 C 
BRANCH  31  32
ATOM     32  C   UNL     1      -2.079  10.616  17.067  0.00  0.00    +0.000 C 
BRANCH  32  33
ATOM     33  N   UNL     1      -2.967  11.073  15.987  0.00  0.00    +0.000 NA
ATOM     34  C   UNL     1      -3.017  10.144  14.858  0.00  0.00    +0.000 C 
ATOM     35  C   UNL     1      -4.315  11.263  16.536  0.00  0.00    +0.000 C 
ENDBRANCH  32  33
ENDBRANCH  31  32
ENDBRANCH  30  31
ENDBRANCH  28  30
ENDBRANCH  15  28
TORSDOF 8
ENDMDL
MODEL 3
REMARK VINA RESULT:      -8.0      4.561     11.014
REMARK  Name = 
REMARK  11 active torsions:
REMARK  status: ('A' for Active; 'I' for Inactive)
REMARK    1  A    between atoms: C_1  and  S_2
REMARK    2  A    between atoms: S_2  and  C_3
REMARK    3  A    between atoms: C_6  and  C_7
REMARK    4  A    between atoms: C_8  and  C_9
REMARK    5  A    between atoms: C_23  and  N_24
REMARK    6  A    between atoms: N_24  and  C_25
REMARK    7  A    between atoms: C_25  and  C_26
REMARK    8  A    between atoms: C_26  and  C_27
REMARK    9  A    between atoms: C_27  and  N_28
REMARK   10  A    between atoms: N_28  and  C_29
REMARK   11  A    between atoms: N_28  and  C_30
REMARK                            x       y       z     vdW  Elec       q    Type
REMARK                         _______ _______ _______ _____ _____    ______ ____
ROOT
ATOM      1  C   UNL     1       1.114   8.692  20.745  0.00  0.00    +0.000 A 
ATOM      2  C   UNL     1       0.865   8.576  22.113  0.00  0.00    +0.000 A 
ATOM      3  C   UNL     1       0.107   9.551  22.817  0.00  0.00    +0.000 A 
ATOM      4  C   UNL     1      -0.475  10.669  22.214  0.00  0.00    +0.000 A 
ATOM      5  N   UNL     1      -1.143  11.574  22.983  0.00  0.00    +0.000 NA
ATOM      6  C   UNL     1      -1.819  12.554  22.312  0.00  0.00    +0.000 A 
ATOM      7  C   UNL     1      -1.809  12.628  20.927  0.00  0.00    +0.000 A 
ATOM      8  O   UNL     1      -2.674  13.580  20.494  0.00  0.00    +0.000 OA
ATOM      9  C   UNL     1      -3.201  14.182  21.589  0.00  0.00    +0.000 A 
ATOM     10  C   UNL     1      -4.167  15.192  21.543  0.00  0.00    +0.000 A 
ATOM     11  C   UNL     1      -4.523  15.786  22.751  0.00  0.00    +0.000 A 
ATOM     12  C   UNL     1      -3.919  15.374  23.943  0.00  0.00    +0.000 A 
ATOM     13  C   UNL     1      -2.990  14.307  23.964  0.00  0.00    +0.000 A 
ATOM     14  C   UNL     1      -2.637  13.669  22.755  0.00  0.00    +0.000 A 
ATOM     15  C   UNL     1      -0.988  11.810  20.119  0.00  0.00    +0.000 A 
ATOM     16  C   UNL     1      -0.320  10.751  20.810  0.00  0.00    +0.000 A 
ATOM     17  C   UNL     1       0.490   9.777  20.123  0.00  0.00    +0.000 A 
ENDROOT
BRANCH   1  19
ATOM     18  C   UNL     1       2.330   7.706  18.713  0.00  0.00    +0.000 C 
ATOM     19  C   UNL     1       1.958   7.683  20.014  0.00  0.00    +0.000 C 
BRANCH  18  23
ATOM     20  C   UNL     1       4.880   4.891  16.566  0.00  0.00    +0.000 A 
ATOM     21  C   UNL     1       5.130   6.256  16.560  0.00  0.00    +0.000 A 
ATOM     22  C   UNL     1       4.287   7.148  17.252  0.00  0.00    +0.000 A 
ATOM     23  C   UNL     1       3.154   6.705  17.960  0.00  0.00    +0.000 A 
ATOM     24  C   UNL     1       2.916   5.328  17.970  0.00  0.00    +0.000 A 
ATOM     25  C   UNL     1       3.764   4.433  17.273  0.00  0.00    +0.000 A 
BRANCH  20  27
ATOM     26  C   UNL     1       6.798   4.850  14.533  0.00  0.00    +0.000 C 
ATOM     27  S   UNL     1       5.857   3.734  15.612  0.00  0.00    +0.000 S 
ENDBRANCH  20  27
ENDBRANCH  18  23
ENDBRANCH   1  19
BRANCH  15  28
ATOM     28  N   UNL     1      -0.873  11.894  18.711  0.00  0.00    +0.000 N 
ATOM     29  H   UNL     1      -0.385  12.747  18.461  0.00  0.00    +0.000 HD
BRANCH  28  30
ATOM     30  C   UNL     1      -2.079  11.819  17.892  0.00  0.00    +0.000 C 
BRANCH  30  31
ATOM     31  C   UNL     1      -2.741  10.445  18.025  0.00  0.00    +0.000 C 
BRANCH  31  32
ATOM     32  C   UNL     1      -4.245  10.577  17.798  0.00  0.00    +0.000 C 
BRANCH  32  33
ATOM     33  N   UNL     1      -4.806  11.893  18.144  0.00  0.00    +0.000 NA
ATOM     34  C   UNL     1      -5.761  12.384  17.150  0.00  0.00    +0.000 C 
ATOM     35  C   UNL     1      -5.458  11.795  19.455  0.00  0.00    +0.000 C 
ENDBRANCH  32  33
ENDBRANCH  31  32
ENDBRANCH  30  31
ENDBRANCH  28  30
ENDBRANCH  15  28
TORSDOF 8
ENDMDL
MODEL 4
REMARK VINA RESULT:      -8.0      4.546     11.264
REMARK  Name = 
REMARK  11 active torsions:
REMARK  status: ('A' for Active; 'I' for Inactive)
REMARK    1  A    between atoms: C_1  and  S_2
REMARK    2  A    between atoms: S_2  and  C_3
REMARK    3  A    between atoms: C_6  and  C_7
REMARK    4  A    between atoms: C_8  and  C_9
REMARK    5  A    between atoms: C_23  and  N_24
REMARK    6  A    between atoms: N_24  and  C_25
REMARK    7  A    between atoms: C_25  and  C_26
REMARK    8  A    between atoms: C_26  and  C_27
REMARK    9  A    between atoms: C_27  and  N_28
REMARK   10  A    between atoms: N_28  and  C_29
REMARK   11  A    between atoms: N_28  and  C_30
REMARK                            x       y       z     vdW  Elec       q    Type
REMARK                         _______ _______ _______ _____ _____    ______ ____
ROOT
ATOM      1  C   UNL     1       1.099   8.666  20.889  0.00  0.00    +0.000 A 
ATOM      2  C   UNL     1       0.948   8.578  22.273  0.00  0.00    +0.000 A 
ATOM      3  C   UNL     1       0.187   9.533  23.001  0.00  0.00    +0.000 A 
ATOM      4  C   UNL     1      -0.493  10.600  22.409  0.00  0.00    +0.000 A 
ATOM      5  N   UNL     1      -1.157  11.493  23.197  0.00  0.00    +0.000 NA
ATOM      6  C   UNL     1      -1.928  12.416  22.547  0.00  0.00    +0.000 A 
ATOM      7  C   UNL     1      -2.014  12.447  21.163  0.00  0.00    +0.000 A 
ATOM      8  O   UNL     1      -2.956  13.339  20.765  0.00  0.00    +0.000 OA
ATOM      9  C   UNL     1      -3.440  13.946  21.877  0.00  0.00    +0.000 A 
ATOM     10  C   UNL     1      -4.460  14.902  21.869  0.00  0.00    +0.000 A 
ATOM     11  C   UNL     1      -4.767  15.514  23.082  0.00  0.00    +0.000 A 
ATOM     12  C   UNL     1      -4.064  15.171  24.241  0.00  0.00    +0.000 A 
ATOM     13  C   UNL     1      -3.079  14.155  24.228  0.00  0.00    +0.000 A 
ATOM     14  C   UNL     1      -2.773  13.499  23.015  0.00  0.00    +0.000 A 
ATOM     15  C   UNL     1      -1.205  11.649  20.324  0.00  0.00    +0.000 A 
ATOM     16  C   UNL     1      -0.437  10.648  20.996  0.00  0.00    +0.000 A 
ATOM     17  C   UNL     1       0.377   9.696  20.282  0.00  0.00    +0.000 A 
ENDROOT
BRANCH   1  19
ATOM     18  C   UNL     1       2.255   7.700  18.812  0.00  0.00    +0.000 C 
ATOM     19  C   UNL     1       1.945   7.679  20.130  0.00  0.00    +0.000 C 
BRANCH  18  23
ATOM     20  C   UNL     1       4.809   4.952  16.585  0.00  0.00    +0.000 A 
ATOM     21  C   UNL     1       5.040   6.321  16.595  0.00  0.00    +0.000 A 
ATOM     22  C   UNL     1       4.196   7.190  17.314  0.00  0.00    +0.000 A 
ATOM     23  C   UNL     1       3.080   6.722  18.032  0.00  0.00    +0.000 A 
ATOM     24  C   UNL     1       2.861   5.342  18.025  0.00  0.00    +0.000 A 
ATOM     25  C   UNL     1       3.710   4.468  17.302  0.00  0.00    +0.000 A 
BRANCH  20  27
ATOM     26  C   UNL     1       6.795   4.969  14.618  0.00  0.00    +0.000 C 
ATOM     27  S   UNL     1       5.786   3.822  15.599  0.00  0.00    +0.000 S 
ENDBRANCH  20  27
ENDBRANCH  18  23
ENDBRANCH   1  19
BRANCH  15  28
ATOM     28  N   UNL     1      -1.190  11.696  18.909  0.00  0.00    +0.000 N 
ATOM     29  H   UNL     1      -0.649  10.916  18.550  0.00  0.00    +0.000 HD
BRANCH  28  30
ATOM     30  C   UNL     1      -0.718  12.904  18.241  0.00  0.00    +0.000 C 
BRANCH  30  31
ATOM     31  C   UNL     1       0.775  13.123  18.506  0.00  0.00    +0.000 C 
BRANCH  31  32
ATOM     32  C   UNL     1       0.992  14.520  19.083  0.00  0.00    +0.000 C 
BRANCH  32  33
ATOM     33  N   UNL     1      -0.243  15.254  19.403  0.00  0.00    +0.000 NA
ATOM     34  C   UNL     1      -0.311  15.669  20.805  0.00  0.00    +0.000 C 
ATOM     35  C   UNL     1      -0.332  16.429  18.530  0.00  0.00    +0.000 C 
ENDBRANCH  32  33
ENDBRANCH  31  32
ENDBRANCH  30  31
ENDBRANCH  28  30
ENDBRANCH  15  28
TORSDOF 8
ENDMDL
MODEL 5
REMARK VINA RESULT:      -7.9      4.624     11.150
REMARK  Name = 
REMARK  11 active torsions:
REMARK  status: ('A' for Active; 'I' for Inactive)
REMARK    1  A    between atoms: C_1  and  S_2
REMARK    2  A    between atoms: S_2  and  C_3
REMARK    3  A    between atoms: C_6  and  C_7
REMARK    4  A    between atoms: C_8  and  C_9
REMARK    5  A    between atoms: C_23  and  N_24
REMARK    6  A    between atoms: N_24  and  C_25
REMARK    7  A    between atoms: C_25  and  C_26
REMARK    8  A    between atoms: C_26  and  C_27
REMARK    9  A    between atoms: C_27  and  N_28
REMARK   10  A    between atoms: N_28  and  C_29
REMARK   11  A    between atoms: N_28  and  C_30
REMARK                            x       y       z     vdW  Elec       q    Type
REMARK                         _______ _______ _______ _____ _____    ______ ____
ROOT
ATOM      1  C   UNL     1       0.928   8.984  20.900  0.00  0.00    +0.000 A 
ATOM      2  C   UNL     1       0.749   8.942  22.283  0.00  0.00    +0.000 A 
ATOM      3  C   UNL     1      -0.111   9.855  22.951  0.00  0.00    +0.000 A 
ATOM      4  C   UNL     1      -0.866  10.833  22.298  0.00  0.00    +0.000 A 
ATOM      5  N   UNL     1      -1.626  11.695  23.031  0.00  0.00    +0.000 NA
ATOM      6  C   UNL     1      -2.457  12.518  22.324  0.00  0.00    +0.000 A 
ATOM      7  C   UNL     1      -2.509  12.484  20.939  0.00  0.00    +0.000 A 
ATOM      8  O   UNL     1      -3.516  13.272  20.481  0.00  0.00    +0.000 OA
ATOM      9  C   UNL     1      -4.080  13.880  21.554  0.00  0.00    +0.000 A 
ATOM     10  C   UNL     1      -5.179  14.741  21.482  0.00  0.00    +0.000 A 
ATOM     11  C   UNL     1      -5.569  15.373  22.659  0.00  0.00    +0.000 A 
ATOM     12  C   UNL     1      -4.869  15.142  23.848  0.00  0.00    +0.000 A 
ATOM     13  C   UNL     1      -3.799  14.217  23.901  0.00  0.00    +0.000 A 
ATOM     14  C   UNL     1      -3.406  13.541  22.725  0.00  0.00    +0.000 A 
ATOM     15  C   UNL     1      -1.613  11.726  20.153  0.00  0.00    +0.000 A 
ATOM     16  C   UNL     1      -0.778  10.826  20.886  0.00  0.00    +0.000 A 
ATOM     17  C   UNL     1       0.134   9.921  20.232  0.00  0.00    +0.000 A 
ENDROOT
BRANCH   1  19
ATOM     18  C   UNL     1       2.012   7.847  18.872  0.00  0.00    +0.000 C 
ATOM     19  C   UNL     1       1.876   8.046  20.204  0.00  0.00    +0.000 C 
BRANCH  18  23
ATOM     20  C   UNL     1       4.549   5.007  16.744  0.00  0.00    +0.000 A 
ATOM     21  C   UNL     1       3.450   4.594  17.484  0.00  0.00    +0.000 A 
ATOM     22  C   UNL     1       2.651   5.529  18.172  0.00  0.00    +0.000 A 
ATOM     23  C   UNL     1       2.935   6.907  18.157  0.00  0.00    +0.000 A 
ATOM     24  C   UNL     1       4.036   7.315  17.400  0.00  0.00    +0.000 A 
ATOM     25  C   UNL     1       4.840   6.375  16.709  0.00  0.00    +0.000 A 
BRANCH  20  27
ATOM     26  C   UNL     1       6.943   4.958  15.300  0.00  0.00    +0.000 C 
ATOM     27  S   UNL     1       5.657   3.850  15.946  0.00  0.00    +0.000 S 
ENDBRANCH  20  27
ENDBRANCH  18  23
ENDBRANCH   1  19
BRANCH  15  28
ATOM     28  N   UNL     1      -1.564  11.715  18.739  0.00  0.00    +0.000 N 
ATOM     29  H   UNL     1      -1.762  12.645  18.386  0.00  0.00    +0.000 HD
BRANCH  28  30
ATOM     30  C   UNL     1      -2.405  10.776  18.004  0.00  0.00    +0.000 C 
BRANCH  30  31
ATOM     31  C   UNL     1      -3.697  11.455  17.538  0.00  0.00    +0.000 C 
BRANCH  31  32
ATOM     32  C   UNL     1      -4.898  10.761  18.176  0.00  0.00    +0.000 C 
BRANCH  32  33
ATOM     33  N   UNL     1      -6.202  11.353  17.838  0.00  0.00    +0.000 NA
ATOM     34  C   UNL     1      -7.055  11.556  19.010  0.00  0.00    +0.000 C 
ATOM     35  C   UNL     1      -5.975  12.634  17.159  0.00  0.00    +0.000 C 
ENDBRANCH  32  33
ENDBRANCH  31  32
ENDBRANCH  30  31
ENDBRANCH  28  30
ENDBRANCH  15  28
TORSDOF 8
ENDMDL
MODEL 6
REMARK VINA RESULT:      -7.9      0.604      1.172
REMARK  Name = 
REMARK  11 active torsions:
REMARK  status: ('A' for Active; 'I' for Inactive)
REMARK    1  A    between atoms: C_1  and  S_2
REMARK    2  A    between atoms: S_2  and  C_3
REMARK    3  A    between atoms: C_6  and  C_7
REMARK    4  A    between atoms: C_8  and  C_9
REMARK    5  A    between atoms: C_23  and  N_24
REMARK    6  A    between atoms: N_24  and  C_25
REMARK    7  A    between atoms: C_25  and  C_26
REMARK    8  A    between atoms: C_26  and  C_27
REMARK    9  A    between atoms: C_27  and  N_28
REMARK   10  A    between atoms: N_28  and  C_29
REMARK   11  A    between atoms: N_28  and  C_30
REMARK                            x       y       z     vdW  Elec       q    Type
REMARK                         _______ _______ _______ _____ _____    ______ ____
ROOT
ATOM      1  C   UNL     1       0.294  10.184  19.767  0.00  0.00    +0.000 A 
ATOM      2  C   UNL     1       0.614  10.695  18.509  0.00  0.00    +0.000 A 
ATOM      3  C   UNL     1       1.577  10.068  17.672  0.00  0.00    +0.000 A 
ATOM      4  C   UNL     1       2.249   8.890  18.008  0.00  0.00    +0.000 A 
ATOM      5  N   UNL     1       3.192   8.390  17.159  0.00  0.00    +0.000 NA
ATOM      6  C   UNL     1       3.693   7.158  17.472  0.00  0.00    +0.000 A 
ATOM      7  C   UNL     1       3.274   6.466  18.599  0.00  0.00    +0.000 A 
ATOM      8  O   UNL     1       3.791   5.211  18.606  0.00  0.00    +0.000 OA
ATOM      9  C   UNL     1       4.605   5.098  17.528  0.00  0.00    +0.000 A 
ATOM     10  C   UNL     1       5.288   3.929  17.178  0.00  0.00    +0.000 A 
ATOM     11  C   UNL     1       6.173   4.007  16.107  0.00  0.00    +0.000 A 
ATOM     12  C   UNL     1       6.356   5.217  15.431  0.00  0.00    +0.000 A 
ATOM     13  C   UNL     1       5.604   6.367  15.769  0.00  0.00    +0.000 A 
ATOM     14  C   UNL     1       4.677   6.303  16.833  0.00  0.00    +0.000 A 
ATOM     15  C   UNL     1       2.431   7.033  19.581  0.00  0.00    +0.000 A 
ATOM     16  C   UNL     1       1.864   8.299  19.234  0.00  0.00    +0.000 A 
ATOM     17  C   UNL     1       0.919   8.976  20.087  0.00  0.00    +0.000 A 
ENDROOT
BRANCH   1  19
ATOM     18  C   UNL     1      -1.492  11.926  20.362  0.00  0.00    +0.000 C 
ATOM     19  C   UNL     1      -0.690  10.879  20.667  0.00  0.00    +0.000 C 
BRANCH  18  23
ATOM     20  C   UNL     1      -4.201  14.011  23.072  0.00  0.00    +0.000 A 
ATOM     21  C   UNL     1      -3.397  12.965  23.503  0.00  0.00    +0.000 A 
ATOM     22  C   UNL     1      -2.537  12.300  22.607  0.00  0.00    +0.000 A 
ATOM     23  C   UNL     1      -2.466  12.646  21.245  0.00  0.00    +0.000 A 
ATOM     24  C   UNL     1      -3.271  13.708  20.823  0.00  0.00    +0.000 A 
ATOM     25  C   UNL     1      -4.135  14.376  21.724  0.00  0.00    +0.000 A 
BRANCH  20  27
ATOM     26  C   UNL     1      -6.843  13.744  23.945  0.00  0.00    +0.000 C 
ATOM     27  S   UNL     1      -5.389  14.812  24.145  0.00  0.00    +0.000 S 
ENDBRANCH  20  27
ENDBRANCH  18  23
ENDBRANCH   1  19
BRANCH  15  28
ATOM     28  N   UNL     1       2.037   6.408  20.787  0.00  0.00    +0.000 N 
ATOM     29  H   UNL     1       2.857   6.216  21.353  0.00  0.00    +0.000 HD
BRANCH  28  30
ATOM     30  C   UNL     1       1.244   5.185  20.731  0.00  0.00    +0.000 C 
BRANCH  30  31
ATOM     31  C   UNL     1       2.035   3.998  21.287  0.00  0.00    +0.000 C 
BRANCH  31  32
ATOM     32  C   UNL     1       1.398   2.693  20.818  0.00  0.00    +0.000 C 
BRANCH  32  33
ATOM     33  N   UNL     1       2.126   2.004  19.740  0.00  0.00    +0.000 NA
ATOM     34  C   UNL     1       1.746   2.472  18.407  0.00  0.00    +0.000 C 
ATOM     35  C   UNL     1       3.565   2.200  19.946  0.00  0.00    +0.000 C 
ENDBRANCH  32  33
ENDBRANCH  31  32
ENDBRANCH  30  31
ENDBRANCH  28  30
ENDBRANCH  15  28
TORSDOF 8
ENDMDL
MODEL 7
REMARK VINA RESULT:      -7.8      4.552     10.879
REMARK  Name = 
REMARK  11 active torsions:
REMARK  status: ('A' for Active; 'I' for Inactive)
REMARK    1  A    between atoms: C_1  and  S_2
REMARK    2  A    between atoms: S_2  and  C_3
REMARK    3  A    between atoms: C_6  and  C_7
REMARK    4  A    between atoms: C_8  and  C_9
REMARK    5  A    between atoms: C_23  and  N_24
REMARK    6  A    between atoms: N_24  and  C_25
REMARK    7  A    between atoms: C_25  and  C_26
REMARK    8  A    between atoms: C_26  and  C_27
REMARK    9  A    between atoms: C_27  and  N_28
REMARK   10  A    between atoms: N_28  and  C_29
REMARK   11  A    between atoms: N_28  and  C_30
REMARK                            x       y       z     vdW  Elec       q    Type
REMARK                         _______ _______ _______ _____ _____    ______ ____
ROOT
ATOM      1  C   UNL     1       1.109   8.721  20.745  0.00  0.00    +0.000 A 
ATOM      2  C   UNL     1       0.968   8.671  22.132  0.00  0.00    +0.000 A 
ATOM      3  C   UNL     1       0.143   9.595  22.830  0.00  0.00    +0.000 A 
ATOM      4  C   UNL     1      -0.612  10.590  22.206  0.00  0.00    +0.000 A 
ATOM      5  N   UNL     1      -1.335  11.461  22.966  0.00  0.00    +0.000 NA
ATOM      6  C   UNL     1      -2.170  12.304  22.288  0.00  0.00    +0.000 A 
ATOM      7  C   UNL     1      -2.261  12.281  20.904  0.00  0.00    +0.000 A 
ATOM      8  O   UNL     1      -3.266  13.090  20.480  0.00  0.00    +0.000 OA
ATOM      9  C   UNL     1      -3.789  13.700  21.573  0.00  0.00    +0.000 A 
ATOM     10  C   UNL     1      -4.873  14.581  21.537  0.00  0.00    +0.000 A 
ATOM     11  C   UNL     1      -5.219  15.211  22.729  0.00  0.00    +0.000 A 
ATOM     12  C   UNL     1      -4.491  14.959  23.896  0.00  0.00    +0.000 A 
ATOM     13  C   UNL     1      -3.437  14.015  23.913  0.00  0.00    +0.000 A 
ATOM     14  C   UNL     1      -3.089  13.341  22.723  0.00  0.00    +0.000 A 
ATOM     15  C   UNL     1      -1.401  11.513  20.089  0.00  0.00    +0.000 A 
ATOM     16  C   UNL     1      -0.563  10.593  20.792  0.00  0.00    +0.000 A 
ATOM     17  C   UNL     1       0.315   9.676  20.107  0.00  0.00    +0.000 A 
ENDROOT
BRANCH   1  19
ATOM     18  C   UNL     1       2.325   7.766  18.698  0.00  0.00    +0.000 C 
ATOM     19  C   UNL     1       2.021   7.771  20.017  0.00  0.00    +0.000 C 
BRANCH  18  23
ATOM     20  C   UNL     1       4.761   4.917  16.467  0.00  0.00    +0.000 A 
ATOM     21  C   UNL     1       3.669   4.513  17.222  0.00  0.00    +0.000 A 
ATOM     22  C   UNL     1       2.903   5.450  17.942  0.00  0.00    +0.000 A 
ATOM     23  C   UNL     1       3.214   6.822  17.947  0.00  0.00    +0.000 A 
ATOM     24  C   UNL     1       4.308   7.222  17.175  0.00  0.00    +0.000 A 
ATOM     25  C   UNL     1       5.079   6.279  16.451  0.00  0.00    +0.000 A 
BRANCH  20  27
ATOM     26  C   UNL     1       6.814   4.855  14.570  0.00  0.00    +0.000 C 
ATOM     27  S   UNL     1       5.830   3.753  15.625  0.00  0.00    +0.000 S 
ENDBRANCH  20  27
ENDBRANCH  18  23
ENDBRANCH   1  19
BRANCH  15  28
ATOM     28  N   UNL     1      -1.392  11.512  18.674  0.00  0.00    +0.000 N 
ATOM     29  H   UNL     1      -2.263  11.900  18.329  0.00  0.00    +0.000 HD
BRANCH  28  30
ATOM     30  C   UNL     1      -1.155  10.259  17.963  0.00  0.00    +0.000 C 
BRANCH  30  31
ATOM     31  C   UNL     1      -2.263   9.999  16.938  0.00  0.00    +0.000 C 
BRANCH  31  32
ATOM     32  C   UNL     1      -3.592   9.797  17.662  0.00  0.00    +0.000 C 
BRANCH  32  33
ATOM     33  N   UNL     1      -4.369  11.027  17.879  0.00  0.00    +0.000 NA
ATOM     34  C   UNL     1      -4.657  11.746  16.637  0.00  0.00    +0.000 C 
ATOM     35  C   UNL     1      -5.624  10.678  18.555  0.00  0.00    +0.000 C 
ENDBRANCH  32  33
ENDBRANCH  31  32
ENDBRANCH  30  31
ENDBRANCH  28  30
ENDBRANCH  15  28
TORSDOF 8
ENDMDL
MODEL 8
REMARK VINA RESULT:      -7.8      4.550     11.192
REMARK  Name = 
REMARK  11 active torsions:
REMARK  status: ('A' for Active; 'I' for Inactive)
REMARK    1  A    between atoms: C_1  and  S_2
REMARK    2  A    between atoms: S_2  and  C_3
REMARK    3  A    between atoms: C_6  and  C_7
REMARK    4  A    between atoms: C_8  and  C_9
REMARK    5  A    between atoms: C_23  and  N_24
REMARK    6  A    between atoms: N_24  and  C_25
REMARK    7  A    between atoms: C_25  and  C_26
REMARK    8  A    between atoms: C_26  and  C_27
REMARK    9  A    between atoms: C_27  and  N_28
REMARK   10  A    between atoms: N_28  and  C_29
REMARK   11  A    between atoms: N_28  and  C_30
REMARK                            x       y       z     vdW  Elec       q    Type
REMARK                         _______ _______ _______ _____ _____    ______ ____
ROOT
ATOM      1  C   UNL     1       1.160   8.636  20.770  0.00  0.00    +0.000 A 
ATOM      2  C   UNL     1       1.022   8.548  22.156  0.00  0.00    +0.000 A 
ATOM      3  C   UNL     1       0.243   9.486  22.888  0.00  0.00    +0.000 A 
ATOM      4  C   UNL     1      -0.468  10.534  22.299  0.00  0.00    +0.000 A 
ATOM      5  N   UNL     1      -1.147  11.412  23.090  0.00  0.00    +0.000 NA
ATOM      6  C   UNL     1      -1.946  12.314  22.444  0.00  0.00    +0.000 A 
ATOM      7  C   UNL     1      -2.044  12.339  21.061  0.00  0.00    +0.000 A 
ATOM      8  O   UNL     1      -3.012  13.206  20.668  0.00  0.00    +0.000 OA
ATOM      9  C   UNL     1      -3.502  13.804  21.782  0.00  0.00    +0.000 A 
ATOM     10  C   UNL     1      -4.545  14.734  21.781  0.00  0.00    +0.000 A 
ATOM     11  C   UNL     1      -4.857  15.341  22.994  0.00  0.00    +0.000 A 
ATOM     12  C   UNL     1      -4.136  15.019  24.148  0.00  0.00    +0.000 A 
ATOM     13  C   UNL     1      -3.126  14.028  24.130  0.00  0.00    +0.000 A 
ATOM     14  C   UNL     1      -2.815  13.377  22.916  0.00  0.00    +0.000 A 
ATOM     15  C   UNL     1      -1.223  11.559  20.217  0.00  0.00    +0.000 A 
ATOM     16  C   UNL     1      -0.425  10.579  20.885  0.00  0.00    +0.000 A 
ATOM     17  C   UNL     1       0.407   9.646  20.167  0.00  0.00    +0.000 A 
ENDROOT
BRANCH   1  19
ATOM     18  C   UNL     1       2.472   7.789  18.735  0.00  0.00    +0.000 C 
ATOM     19  C   UNL     1       2.024   7.669  20.007  0.00  0.00    +0.000 C 
BRANCH  18  23
ATOM     20  C   UNL     1       4.780   4.901  16.419  0.00  0.00    +0.000 A 
ATOM     21  C   UNL     1       3.777   4.504  17.292  0.00  0.00    +0.000 A 
ATOM     22  C   UNL     1       3.051   5.454  18.038  0.00  0.00    +0.000 A 
ATOM     23  C   UNL     1       3.317   6.833  17.949  0.00  0.00    +0.000 A 
ATOM     24  C   UNL     1       4.321   7.224  17.059  0.00  0.00    +0.000 A 
ATOM     25  C   UNL     1       5.051   6.268  16.310  0.00  0.00    +0.000 A 
BRANCH  20  27
ATOM     26  C   UNL     1       6.870   4.828  14.564  0.00  0.00    +0.000 C 
ATOM     27  S   UNL     1       5.802   3.726  15.536  0.00  0.00    +0.000 S 
ENDBRANCH  20  27
ENDBRANCH  18  23
ENDBRANCH   1  19
BRANCH  15  28
ATOM     28  N   UNL     1      -1.220  11.602  18.802  0.00  0.00    +0.000 N 
ATOM     29  H   UNL     1      -0.668  10.832  18.440  0.00  0.00    +0.000 HD
BRANCH  28  30
ATOM     30  C   UNL     1      -0.777  12.817  18.127  0.00  0.00    +0.000 C 
BRANCH  30  31
ATOM     31  C   UNL     1       0.645  13.190  18.558  0.00  0.00    +0.000 C 
BRANCH  31  32
ATOM     32  C   UNL     1       0.633  14.559  19.233  0.00  0.00    +0.000 C 
BRANCH  32  33
ATOM     33  N   UNL     1       1.700  14.766  20.224  0.00  0.00    +0.000 NA
ATOM     34  C   UNL     1       2.119  16.165  20.326  0.00  0.00    +0.000 C 
ATOM     35  C   UNL     1       1.228  14.292  21.530  0.00  0.00    +0.000 C 
ENDBRANCH  32  33
ENDBRANCH  31  32
ENDBRANCH  30  31
ENDBRANCH  28  30
ENDBRANCH  15  28
TORSDOF 8
ENDMDL
MODEL 9
REMARK VINA RESULT:      -7.8      5.664      9.597
REMARK  Name = 
REMARK  11 active torsions:
REMARK  status: ('A' for Active; 'I' for Inactive)
REMARK    1  A    between atoms: C_1  and  S_2
REMARK    2  A    between atoms: S_2  and  C_3
REMARK    3  A    between atoms: C_6  and  C_7
REMARK    4  A    between atoms: C_8  and  C_9
REMARK    5  A    between atoms: C_23  and  N_24
REMARK    6  A    between atoms: N_24  and  C_25
REMARK    7  A    between atoms: C_25  and  C_26
REMARK    8  A    between atoms: C_26  and  C_27
REMARK    9  A    between atoms: C_27  and  N_28
REMARK   10  A    between atoms: N_28  and  C_29
REMARK   11  A    between atoms: N_28  and  C_30
REMARK                            x       y       z     vdW  Elec       q    Type
REMARK                         _______ _______ _______ _____ _____    ______ ____
ROOT
ATOM      1  C   UNL     1       7.572   8.055  17.879  0.00  0.00    +0.000 A 
ATOM      2  C   UNL     1       8.194   6.858  18.238  0.00  0.00    +0.000 A 
ATOM      3  C   UNL     1       7.441   5.698  18.569  0.00  0.00    +0.000 A 
ATOM      4  C   UNL     1       6.046   5.639  18.531  0.00  0.00    +0.000 A 
ATOM      5  N   UNL     1       5.413   4.494  18.913  0.00  0.00    +0.000 NA
ATOM      6  C   UNL     1       4.063   4.452  18.702  0.00  0.00    +0.000 A 
ATOM      7  C   UNL     1       3.380   5.522  18.145  0.00  0.00    +0.000 A 
ATOM      8  O   UNL     1       2.090   5.182  17.889  0.00  0.00    +0.000 OA
ATOM      9  C   UNL     1       1.903   3.918  18.342  0.00  0.00    +0.000 A 
ATOM     10  C   UNL     1       0.705   3.208  18.218  0.00  0.00    +0.000 A 
ATOM     11  C   UNL     1       0.639   1.962  18.834  0.00  0.00    +0.000 A 
ATOM     12  C   UNL     1       1.737   1.468  19.545  0.00  0.00    +0.000 A 
ATOM     13  C   UNL     1       2.957   2.183  19.600  0.00  0.00    +0.000 A 
ATOM     14  C   UNL     1       3.057   3.436  18.956  0.00  0.00    +0.000 A 
ATOM     15  C   UNL     1       3.982   6.776  17.901  0.00  0.00    +0.000 A 
ATOM     16  C   UNL     1       5.401   6.811  18.071  0.00  0.00    +0.000 A 
ATOM     17  C   UNL     1       6.180   7.989  17.784  0.00  0.00    +0.000 A 
ENDROOT
BRANCH   1  19
ATOM     18  C   UNL     1       8.945  10.142  18.463  0.00  0.00    +0.000 C 
ATOM     19  C   UNL     1       8.373   9.293  17.577  0.00  0.00    +0.000 C 
BRANCH  18  23
ATOM     20  C   UNL     1      11.355  13.666  17.567  0.00  0.00    +0.000 A 
ATOM     21  C   UNL     1      11.934  12.440  17.863  0.00  0.00    +0.000 A 
ATOM     22  C   UNL     1      11.135  11.317  18.159  0.00  0.00    +0.000 A 
ATOM     23  C   UNL     1       9.730  11.389  18.188  0.00  0.00    +0.000 A 
ATOM     24  C   UNL     1       9.156  12.624  17.878  0.00  0.00    +0.000 A 
ATOM     25  C   UNL     1       9.960  13.752  17.580  0.00  0.00    +0.000 A 
BRANCH  20  27
ATOM     26  C   UNL     1      11.051  16.338  16.803  0.00  0.00    +0.000 C 
ATOM     27  S   UNL     1      12.328  15.144  17.294  0.00  0.00    +0.000 S 
ENDBRANCH  20  27
ENDBRANCH  18  23
ENDBRANCH   1  19
BRANCH  15  28
ATOM     28  N   UNL     1       3.318   7.927  17.412  0.00  0.00    +0.000 N 
ATOM     29  H   UNL     1       3.993   8.667  17.256  0.00  0.00    +0.000 HD
BRANCH  28  30
ATOM     30  C   UNL     1       2.213   8.492  18.179  0.00  0.00    +0.000 C 
BRANCH  30  31
ATOM     31  C   UNL     1       2.017   9.972  17.838  0.00  0.00    +0.000 C 
BRANCH  31  32
ATOM     32  C   UNL     1       0.880  10.545  18.681  0.00  0.00    +0.000 C 
BRANCH  32  33
ATOM     33  N   UNL     1       1.034  11.964  19.040  0.00  0.00    +0.000 NA
ATOM     34  C   UNL     1       2.221  12.577  18.443  0.00  0.00    +0.000 C 
ATOM     35  C   UNL     1      -0.169  12.689  18.616  0.00  0.00    +0.000 C 
ENDBRANCH  32  33
ENDBRANCH  31  32
ENDBRANCH  30  31
ENDBRANCH  28  30
ENDBRANCH  15  28
TORSDOF 8
ENDMDL
