MODEL 1
REMARK VINA RESULT:      -7.3      0.000      0.000
REMARK  Name = 
REMARK  11 active torsions:
REMARK  status: ('A' for Active; 'I' for Inactive)
REMARK    1  A    between atoms: C_1  and  C_2
REMARK    2  A    between atoms: C_2  and  O_3
REMARK    3  A    between atoms: O_3  and  C_4
REMARK    4  A    between atoms: C_4  and  C_6
REMARK    5  A    between atoms: C_6  and  S_7
REMARK    6  A    between atoms: S_7  and  C_8
REMARK    7  A    between atoms: C_11  and  C_12
REMARK    8  A    between atoms: C_12  and  C_13
REMARK    9  A    between atoms: C_15  and  O_16
REMARK   10  A    between atoms: C_18  and  O_19
REMARK   11  A    between atoms: N_21  and  C_22
REMARK                            x       y       z     vdW  Elec       q    Type
REMARK                         _______ _______ _______ _____ _____    ______ ____
ROOT
ATOM      1  C   UNL     1       3.572   3.941  17.154  0.00  0.00    +0.000 A 
ATOM      2  N   UNL     1       4.367   3.441  16.237  0.00  0.00    +0.000 NA
ATOM      3  N   UNL     1       5.096   4.463  15.714  0.00  0.00    +0.000 NA
ATOM      4  C   UNL     1       4.748   5.585  16.320  0.00  0.00    +0.000 A 
ATOM      5  N   UNL     1       3.739   5.319  17.251  0.00  0.00    +0.000 N 
ENDROOT
BRANCH   5   6
ATOM      6  C   UNL     1       3.086   6.241  18.122  0.00  0.00    +0.000 A 
ATOM      7  C   UNL     1       2.616   7.471  17.631  0.00  0.00    +0.000 A 
ATOM      8  C   UNL     1       1.975   8.380  18.483  0.00  0.00    +0.000 A 
ATOM      9  C   UNL     1       1.789   8.064  19.826  0.00  0.00    +0.000 A 
ATOM     10 CL   UNL     1       0.997   9.176  20.872  0.00  0.00    +0.000 Cl
ATOM     11  C   UNL     1       2.243   6.847  20.325  0.00  0.00    +0.000 A 
ATOM     12  C   UNL     1       2.893   5.942  19.482  0.00  0.00    +0.000 A 
ENDBRANCH   5   6
BRANCH   1  13
ATOM     13  S   UNL     1       2.370   2.993  17.971  0.00  0.00    +0.000 S 
BRANCH  13  14
ATOM     14  C   UNL     1       3.427   1.759  18.796  0.00  0.00    +0.000 C 
BRANCH  14  15
ATOM     15  C   UNL     1       4.165   2.368  19.970  0.00  0.00    +0.000 C 
ATOM     16  O   UNL     1       5.244   2.943  19.931  0.00  0.00    +0.000 OA
BRANCH  15  17
ATOM     17  O   UNL     1       3.487   2.085  21.125  0.00  0.00    +0.000 OA
BRANCH  17  19
ATOM     18  C   UNL     1       1.227   2.763  21.564  0.00  0.00    +0.000 C 
ATOM     19  C   UNL     1       2.691   3.159  21.653  0.00  0.00    +0.000 C 
ENDBRANCH  17  19
ENDBRANCH  15  17
ENDBRANCH  14  15
ENDBRANCH  13  14
ENDBRANCH   1  13
BRANCH   4  20
ATOM     20  C   UNL     1       5.504   6.864  16.144  0.00  0.00    +0.000 C 
BRANCH  20  21
ATOM     21  C   UNL     1       6.592   7.063  17.176  0.00  0.00    +0.000 A 
ATOM     22  C   UNL     1       6.934   6.048  18.057  0.00  0.00    +0.000 A 
ATOM     23  C   UNL     1       7.933   6.339  18.956  0.00  0.00    +0.000 A 
ATOM     24  N   UNL     1       8.557   7.518  19.034  0.00  0.00    +0.000 NA
ATOM     25  C   UNL     1       8.142   8.415  18.145  0.00  0.00    +0.000 A 
ATOM     26  N   UNL     1       7.199   8.268  17.210  0.00  0.00    +0.000 NA
BRANCH  23  27
ATOM     27  O   UNL     1       8.366   5.407  19.852  0.00  0.00    +0.000 OA
ATOM     28  H   UNL     1       8.086   5.680  20.739  0.00  0.00    +0.000 HD
ENDBRANCH  23  27
BRANCH  25  29
ATOM     29  O   UNL     1       8.801   9.601  18.193  0.00  0.00    +0.000 OA
ATOM     30  H   UNL     1       9.459   9.427  17.499  0.00  0.00    +0.000 HD
ENDBRANCH  25  29
ENDBRANCH  20  21
ENDBRANCH   4  20
TORSDOF 10
ENDMDL
MODEL 2
REMARK VINA RESULT:      -7.0      2.037      5.784
REMARK  Name = 
REMARK  11 active torsions:
REMARK  status: ('A' for Active; 'I' for Inactive)
REMARK    1  A    between atoms: C_1  and  C_2
REMARK    2  A    between atoms: C_2  and  O_3
REMARK    3  A    between atoms: O_3  and  C_4
REMARK    4  A    between atoms: C_4  and  C_6
REMARK    5  A    between atoms: C_6  and  S_7
REMARK    6  A    between atoms: S_7  and  C_8
REMARK    7  A    between atoms: C_11  and  C_12
REMARK    8  A    between atoms: C_12  and  C_13
REMARK    9  A    between atoms: C_15  and  O_16
REMARK   10  A    between atoms: C_18  and  O_19
REMARK   11  A    between atoms: N_21  and  C_22
REMARK                            x       y       z     vdW  Elec       q    Type
REMARK                         _______ _______ _______ _____ _____    ______ ____
ROOT
ATOM      1  C   UNL     1       4.732   5.805  16.671  0.00  0.00    +0.000 A 
ATOM      2  N   UNL     1       5.100   4.630  16.217  0.00  0.00    +0.000 NA
ATOM      3  N   UNL     1       4.259   3.697  16.739  0.00  0.00    +0.000 NA
ATOM      4  C   UNL     1       3.374   4.308  17.507  0.00  0.00    +0.000 A 
ATOM      5  N   UNL     1       3.642   5.681  17.527  0.00  0.00    +0.000 N 
ENDROOT
BRANCH   5   6
ATOM      6  C   UNL     1       2.926   6.702  18.221  0.00  0.00    +0.000 A 
ATOM      7  C   UNL     1       2.688   6.589  19.601  0.00  0.00    +0.000 A 
ATOM      8  C   UNL     1       1.985   7.589  20.287  0.00  0.00    +0.000 A 
ATOM      9  C   UNL     1       1.527   8.712  19.603  0.00  0.00    +0.000 A 
ATOM     10 CL   UNL     1       0.670   9.944  20.445  0.00  0.00    +0.000 Cl
ATOM     11  C   UNL     1       1.763   8.841  18.238  0.00  0.00    +0.000 A 
ATOM     12  C   UNL     1       2.453   7.841  17.548  0.00  0.00    +0.000 A 
ENDBRANCH   5   6
BRANCH   1  13
ATOM     13  S   UNL     1       5.630   7.255  16.358  0.00  0.00    +0.000 S 
BRANCH  13  14
ATOM     14  C   UNL     1       7.322   6.680  16.710  0.00  0.00    +0.000 C 
BRANCH  14  15
ATOM     15  C   UNL     1       7.554   6.543  18.201  0.00  0.00    +0.000 C 
ATOM     16  O   UNL     1       7.121   5.655  18.925  0.00  0.00    +0.000 OA
BRANCH  15  17
ATOM     17  O   UNL     1       8.243   7.635  18.653  0.00  0.00    +0.000 OA
BRANCH  17  19
ATOM     18  C   UNL     1       8.914   9.934  18.503  0.00  0.00    +0.000 C 
ATOM     19  C   UNL     1       8.170   8.801  17.816  0.00  0.00    +0.000 C 
ENDBRANCH  17  19
ENDBRANCH  15  17
ENDBRANCH  14  15
ENDBRANCH  13  14
ENDBRANCH   1  13
BRANCH   4  20
ATOM     20  C   UNL     1       2.171   3.611  18.061  0.00  0.00    +0.000 C 
BRANCH  20  21
ATOM     21  C   UNL     1       2.387   3.063  19.455  0.00  0.00    +0.000 A 
ATOM     22  C   UNL     1       1.349   3.026  20.374  0.00  0.00    +0.000 A 
ATOM     23  C   UNL     1       1.657   2.512  21.612  0.00  0.00    +0.000 A 
ATOM     24  N   UNL     1       2.871   2.079  21.968  0.00  0.00    +0.000 NA
ATOM     25  C   UNL     1       3.785   2.168  21.008  0.00  0.00    +0.000 A 
ATOM     26  N   UNL     1       3.627   2.630  19.764  0.00  0.00    +0.000 NA
BRANCH  23  27
ATOM     27  O   UNL     1       0.709   2.405  22.586  0.00  0.00    +0.000 OA
ATOM     28  H   UNL     1       1.085   1.911  23.330  0.00  0.00    +0.000 HD
ENDBRANCH  23  27
BRANCH  25  29
ATOM     29  O   UNL     1       5.009   1.692  21.351  0.00  0.00    +0.000 OA
ATOM     30  H   UNL     1       4.800   1.397  22.253  0.00  0.00    +0.000 HD
ENDBRANCH  25  29
ENDBRANCH  20  21
ENDBRANCH   4  20
TORSDOF 10
ENDMDL
MODEL 3
REMARK VINA RESULT:      -6.7      1.060      1.773
REMARK  Name = 
REMARK  11 active torsions:
REMARK  status: ('A' for Active; 'I' for Inactive)
REMARK    1  A    between atoms: C_1  and  C_2
REMARK    2  A    between atoms: C_2  and  O_3
REMARK    3  A    between atoms: O_3  and  C_4
REMARK    4  A    between atoms: C_4  and  C_6
REMARK    5  A    between atoms: C_6  and  S_7
REMARK    6  A    between atoms: S_7  and  C_8
REMARK    7  A    between atoms: C_11  and  C_12
REMARK    8  A    between atoms: C_12  and  C_13
REMARK    9  A    between atoms: C_15  and  O_16
REMARK   10  A    between atoms: C_18  and  O_19
REMARK   11  A    between atoms: N_21  and  C_22
REMARK                            x       y       z     vdW  Elec       q    Type
REMARK                         _______ _______ _______ _____ _____    ______ ____
ROOT
ATOM      1  C   UNL     1       2.890   4.209  17.911  0.00  0.00    +0.000 A 
ATOM      2  N   UNL     1       3.672   3.393  17.245  0.00  0.00    +0.000 NA
ATOM      3  N   UNL     1       4.557   4.145  16.537  0.00  0.00    +0.000 NA
ATOM      4  C   UNL     1       4.315   5.422  16.779  0.00  0.00    +0.000 A 
ATOM      5  N   UNL     1       3.223   5.534  17.647  0.00  0.00    +0.000 N 
ENDROOT
BRANCH   5   6
ATOM      6  C   UNL     1       2.639   6.726  18.168  0.00  0.00    +0.000 A 
ATOM      7  C   UNL     1       2.429   6.869  19.550  0.00  0.00    +0.000 A 
ATOM      8  C   UNL     1       1.855   8.038  20.067  0.00  0.00    +0.000 A 
ATOM      9  C   UNL     1       1.498   9.076  19.210  0.00  0.00    +0.000 A 
ATOM     10 CL   UNL     1       0.799  10.515  19.843  0.00  0.00    +0.000 Cl
ATOM     11  C   UNL     1       1.707   8.952  17.839  0.00  0.00    +0.000 A 
ATOM     12  C   UNL     1       2.269   7.783  17.319  0.00  0.00    +0.000 A 
ENDBRANCH   5   6
BRANCH   1  13
ATOM     13  S   UNL     1       1.529   3.659  18.835  0.00  0.00    +0.000 S 
BRANCH  13  14
ATOM     14  C   UNL     1       2.295   2.297  19.774  0.00  0.00    +0.000 C 
BRANCH  14  15
ATOM     15  C   UNL     1       2.796   2.776  21.121  0.00  0.00    +0.000 C 
ATOM     16  O   UNL     1       2.568   3.862  21.637  0.00  0.00    +0.000 OA
BRANCH  15  17
ATOM     17  O   UNL     1       3.646   1.840  21.644  0.00  0.00    +0.000 OA
BRANCH  17  19
ATOM     18  C   UNL     1       5.777   0.740  21.743  0.00  0.00    +0.000 C 
ATOM     19  C   UNL     1       4.881   1.661  20.932  0.00  0.00    +0.000 C 
ENDBRANCH  17  19
ENDBRANCH  15  17
ENDBRANCH  14  15
ENDBRANCH  13  14
ENDBRANCH   1  13
BRANCH   4  20
ATOM     20  C   UNL     1       5.237   6.514  16.336  0.00  0.00    +0.000 C 
BRANCH  20  21
ATOM     21  C   UNL     1       6.392   6.745  17.286  0.00  0.00    +0.000 A 
ATOM     22  C   UNL     1       6.772   5.770  18.195  0.00  0.00    +0.000 A 
ATOM     23  C   UNL     1       7.831   6.087  19.013  0.00  0.00    +0.000 A 
ATOM     24  N   UNL     1       8.478   7.257  18.989  0.00  0.00    +0.000 NA
ATOM     25  C   UNL     1       8.022   8.114  18.082  0.00  0.00    +0.000 A 
ATOM     26  N   UNL     1       7.018   7.938  17.217  0.00  0.00    +0.000 NA
BRANCH  23  27
ATOM     27  O   UNL     1       8.306   5.195  19.928  0.00  0.00    +0.000 OA
ATOM     28  H   UNL     1       8.990   5.632  20.458  0.00  0.00    +0.000 HD
ENDBRANCH  23  27
BRANCH  25  29
ATOM     29  O   UNL     1       8.701   9.289  18.026  0.00  0.00    +0.000 OA
ATOM     30  H   UNL     1       7.942   9.895  18.060  0.00  0.00    +0.000 HD
ENDBRANCH  25  29
ENDBRANCH  20  21
ENDBRANCH   4  20
TORSDOF 10
ENDMDL
MODEL 4
REMARK VINA RESULT:      -6.6      2.006      5.801
REMARK  Name = 
REMARK  11 active torsions:
REMARK  status: ('A' for Active; 'I' for Inactive)
REMARK    1  A    between atoms: C_1  and  C_2
REMARK    2  A    between atoms: C_2  and  O_3
REMARK    3  A    between atoms: O_3  and  C_4
REMARK    4  A    between atoms: C_4  and  C_6
REMARK    5  A    between atoms: C_6  and  S_7
REMARK    6  A    between atoms: S_7  and  C_8
REMARK    7  A    between atoms: C_11  and  C_12
REMARK    8  A    between atoms: C_12  and  C_13
REMARK    9  A    between atoms: C_15  and  O_16
REMARK   10  A    between atoms: C_18  and  O_19
REMARK   11  A    between atoms: N_21  and  C_22
REMARK                            x       y       z     vdW  Elec       q    Type
REMARK                         _______ _______ _______ _____ _____    ______ ____
ROOT
ATOM      1  C   UNL     1       4.586   5.543  16.472  0.00  0.00    +0.000 A 
ATOM      2  N   UNL     1       4.906   4.361  16.000  0.00  0.00    +0.000 NA
ATOM      3  N   UNL     1       4.079   3.445  16.571  0.00  0.00    +0.000 NA
ATOM      4  C   UNL     1       3.252   4.072  17.388  0.00  0.00    +0.000 A 
ATOM      5  N   UNL     1       3.546   5.440  17.390  0.00  0.00    +0.000 N 
ENDROOT
BRANCH   5   6
ATOM      6  C   UNL     1       2.891   6.474  18.123  0.00  0.00    +0.000 A 
ATOM      7  C   UNL     1       2.396   7.610  17.460  0.00  0.00    +0.000 A 
ATOM      8  C   UNL     1       1.753   8.629  18.176  0.00  0.00    +0.000 A 
ATOM      9  C   UNL     1       1.590   8.516  19.554  0.00  0.00    +0.000 A 
ATOM     10 CL   UNL     1       0.795   9.763  20.434  0.00  0.00    +0.000 Cl
ATOM     11  C   UNL     1       2.069   7.393  20.223  0.00  0.00    +0.000 A 
ATOM     12  C   UNL     1       2.720   6.380  19.515  0.00  0.00    +0.000 A 
ENDBRANCH   5   6
BRANCH   1  13
ATOM     13  S   UNL     1       5.491   6.976  16.104  0.00  0.00    +0.000 S 
BRANCH  13  14
ATOM     14  C   UNL     1       6.070   7.440  17.769  0.00  0.00    +0.000 C 
BRANCH  14  15
ATOM     15  C   UNL     1       7.541   7.121  17.944  0.00  0.00    +0.000 C 
ATOM     16  O   UNL     1       8.012   6.216  18.619  0.00  0.00    +0.000 OA
BRANCH  15  17
ATOM     17  O   UNL     1       8.288   8.077  17.312  0.00  0.00    +0.000 OA
BRANCH  17  19
ATOM     18  C   UNL     1       9.035   9.724  18.890  0.00  0.00    +0.000 C 
ATOM     19  C   UNL     1       8.069   9.426  17.756  0.00  0.00    +0.000 C 
ENDBRANCH  17  19
ENDBRANCH  15  17
ENDBRANCH  14  15
ENDBRANCH  13  14
ENDBRANCH   1  13
BRANCH   4  20
ATOM     20  C   UNL     1       2.071   3.398  18.013  0.00  0.00    +0.000 C 
BRANCH  20  21
ATOM     21  C   UNL     1       2.323   2.945  19.435  0.00  0.00    +0.000 A 
ATOM     22  C   UNL     1       1.309   2.967  20.380  0.00  0.00    +0.000 A 
ATOM     23  C   UNL     1       1.650   2.538  21.641  0.00  0.00    +0.000 A 
ATOM     24  N   UNL     1       2.874   2.133  21.995  0.00  0.00    +0.000 NA
ATOM     25  C   UNL     1       3.764   2.161  21.008  0.00  0.00    +0.000 A 
ATOM     26  N   UNL     1       3.573   2.537  19.740  0.00  0.00    +0.000 NA
BRANCH  23  27
ATOM     27  O   UNL     1       0.726   2.494  22.644  0.00  0.00    +0.000 OA
ATOM     28  H   UNL     1       1.044   1.888  23.329  0.00  0.00    +0.000 HD
ENDBRANCH  23  27
BRANCH  25  29
ATOM     29  O   UNL     1       4.998   1.712  21.352  0.00  0.00    +0.000 OA
ATOM     30  H   UNL     1       4.739   0.854  21.729  0.00  0.00    +0.000 HD
ENDBRANCH  25  29
ENDBRANCH  20  21
ENDBRANCH   4  20
TORSDOF 10
ENDMDL
MODEL 5
REMARK VINA RESULT:      -6.6      3.909      5.776
REMARK  Name = 
REMARK  11 active torsions:
REMARK  status: ('A' for Active; 'I' for Inactive)
REMARK    1  A    between atoms: C_1  and  C_2
REMARK    2  A    between atoms: C_2  and  O_3
REMARK    3  A    between atoms: O_3  and  C_4
REMARK    4  A    between atoms: C_4  and  C_6
REMARK    5  A    between atoms: C_6  and  S_7
REMARK    6  A    between atoms: S_7  and  C_8
REMARK    7  A    between atoms: C_11  and  C_12
REMARK    8  A    between atoms: C_12  and  C_13
REMARK    9  A    between atoms: C_15  and  O_16
REMARK   10  A    between atoms: C_18  and  O_19
REMARK   11  A    between atoms: N_21  and  C_22
REMARK                            x       y       z     vdW  Elec       q    Type
REMARK                         _______ _______ _______ _____ _____    ______ ____
ROOT
ATOM      1  C   UNL     1       3.780   4.569  19.365  0.00  0.00    +0.000 A 
ATOM      2  N   UNL     1       2.939   5.057  20.247  0.00  0.00    +0.000 NA
ATOM      3  N   UNL     1       2.611   6.318  19.859  0.00  0.00    +0.000 NA
ATOM      4  C   UNL     1       3.249   6.595  18.735  0.00  0.00    +0.000 A 
ATOM      5  N   UNL     1       4.049   5.506  18.373  0.00  0.00    +0.000 N 
ENDROOT
BRANCH   5   6
ATOM      6  C   UNL     1       4.892   5.382  17.228  0.00  0.00    +0.000 A 
ATOM      7  C   UNL     1       6.156   5.996  17.207  0.00  0.00    +0.000 A 
ATOM      8  C   UNL     1       6.987   5.878  16.085  0.00  0.00    +0.000 A 
ATOM      9  C   UNL     1       6.567   5.137  14.983  0.00  0.00    +0.000 A 
ATOM     10 CL   UNL     1       7.589   4.985  13.607  0.00  0.00    +0.000 Cl
ATOM     11  C   UNL     1       5.321   4.517  14.992  0.00  0.00    +0.000 A 
ATOM     12  C   UNL     1       4.485   4.642  16.105  0.00  0.00    +0.000 A 
ENDBRANCH   5   6
BRANCH   1  13
ATOM     13  S   UNL     1       4.556   3.030  19.561  0.00  0.00    +0.000 S 
BRANCH  13  14
ATOM     14  C   UNL     1       3.679   2.054  18.297  0.00  0.00    +0.000 C 
BRANCH  14  15
ATOM     15  C   UNL     1       2.194   2.357  18.304  0.00  0.00    +0.000 C 
ATOM     16  O   UNL     1       1.598   3.085  17.522  0.00  0.00    +0.000 OA
BRANCH  15  17
ATOM     17  O   UNL     1       1.620   1.770  19.399  0.00  0.00    +0.000 OA
BRANCH  17  19
ATOM     18  C   UNL     1       1.338   2.566  21.646  0.00  0.00    +0.000 C 
ATOM     19  C   UNL     1       0.822   2.641  20.218  0.00  0.00    +0.000 C 
ENDBRANCH  17  19
ENDBRANCH  15  17
ENDBRANCH  14  15
ENDBRANCH  13  14
ENDBRANCH   1  13
BRANCH   4  20
ATOM     20  C   UNL     1       2.950   7.812  17.917  0.00  0.00    +0.000 C 
BRANCH  20  21
ATOM     21  C   UNL     1       1.847   8.669  18.500  0.00  0.00    +0.000 A 
ATOM     22  C   UNL     1       0.985   9.377  17.677  0.00  0.00    +0.000 A 
ATOM     23  C   UNL     1       0.023  10.126  18.313  0.00  0.00    +0.000 A 
ATOM     24  N   UNL     1      -0.106  10.218  19.640  0.00  0.00    +0.000 NA
ATOM     25  C   UNL     1       0.778   9.501  20.325  0.00  0.00    +0.000 A 
ATOM     26  N   UNL     1       1.752   8.722  19.845  0.00  0.00    +0.000 NA
BRANCH  23  27
ATOM     27  O   UNL     1      -0.894  10.843  17.602  0.00  0.00    +0.000 OA
ATOM     28  H   UNL     1      -1.557  10.231  17.249  0.00  0.00    +0.000 HD
ENDBRANCH  23  27
BRANCH  25  29
ATOM     29  O   UNL     1       0.626   9.559  21.673  0.00  0.00    +0.000 OA
ATOM     30  H   UNL     1      -0.285   9.223  21.729  0.00  0.00    +0.000 HD
ENDBRANCH  25  29
ENDBRANCH  20  21
ENDBRANCH   4  20
TORSDOF 10
ENDMDL
MODEL 6
REMARK VINA RESULT:      -6.5      3.934      5.704
REMARK  Name = 
REMARK  11 active torsions:
REMARK  status: ('A' for Active; 'I' for Inactive)
REMARK    1  A    between atoms: C_1  and  C_2
REMARK    2  A    between atoms: C_2  and  O_3
REMARK    3  A    between atoms: O_3  and  C_4
REMARK    4  A    between atoms: C_4  and  C_6
REMARK    5  A    between atoms: C_6  and  S_7
REMARK    6  A    between atoms: S_7  and  C_8
REMARK    7  A    between atoms: C_11  and  C_12
REMARK    8  A    between atoms: C_12  and  C_13
REMARK    9  A    between atoms: C_15  and  O_16
REMARK   10  A    between atoms: C_18  and  O_19
REMARK   11  A    between atoms: N_21  and  C_22
REMARK                            x       y       z     vdW  Elec       q    Type
REMARK                         _______ _______ _______ _____ _____    ______ ____
ROOT
ATOM      1  C   UNL     1       3.745   4.596  19.394  0.00  0.00    +0.000 A 
ATOM      2  N   UNL     1       2.893   5.079  20.266  0.00  0.00    +0.000 NA
ATOM      3  N   UNL     1       2.561   6.338  19.875  0.00  0.00    +0.000 NA
ATOM      4  C   UNL     1       3.209   6.618  18.758  0.00  0.00    +0.000 A 
ATOM      5  N   UNL     1       4.019   5.534  18.404  0.00  0.00    +0.000 N 
ENDROOT
BRANCH   5   6
ATOM      6  C   UNL     1       4.874   5.415  17.268  0.00  0.00    +0.000 A 
ATOM      7  C   UNL     1       6.137   6.033  17.261  0.00  0.00    +0.000 A 
ATOM      8  C   UNL     1       6.980   5.919  16.148  0.00  0.00    +0.000 A 
ATOM      9  C   UNL     1       6.574   5.179  15.040  0.00  0.00    +0.000 A 
ATOM     10 CL   UNL     1       7.611   5.033  13.674  0.00  0.00    +0.000 Cl
ATOM     11  C   UNL     1       5.330   4.556  15.035  0.00  0.00    +0.000 A 
ATOM     12  C   UNL     1       4.482   4.676  16.139  0.00  0.00    +0.000 A 
ENDBRANCH   5   6
BRANCH   1  13
ATOM     13  S   UNL     1       4.528   3.061  19.597  0.00  0.00    +0.000 S 
BRANCH  13  14
ATOM     14  C   UNL     1       3.655   2.074  18.339  0.00  0.00    +0.000 C 
BRANCH  14  15
ATOM     15  C   UNL     1       2.172   2.384  18.333  0.00  0.00    +0.000 C 
ATOM     16  O   UNL     1       1.589   3.132  17.561  0.00  0.00    +0.000 OA
BRANCH  15  17
ATOM     17  O   UNL     1       1.580   1.774  19.406  0.00  0.00    +0.000 OA
BRANCH  17  19
ATOM     18  C   UNL     1       1.351   2.556  21.663  0.00  0.00    +0.000 C 
ATOM     19  C   UNL     1       0.798   2.635  20.251  0.00  0.00    +0.000 C 
ENDBRANCH  17  19
ENDBRANCH  15  17
ENDBRANCH  14  15
ENDBRANCH  13  14
ENDBRANCH   1  13
BRANCH   4  20
ATOM     20  C   UNL     1       2.911   7.834  17.937  0.00  0.00    +0.000 C 
BRANCH  20  21
ATOM     21  C   UNL     1       1.806   8.690  18.514  0.00  0.00    +0.000 A 
ATOM     22  C   UNL     1       1.683   8.866  19.884  0.00  0.00    +0.000 A 
ATOM     23  C   UNL     1       0.640   9.660  20.300  0.00  0.00    +0.000 A 
ATOM     24  N   UNL     1      -0.243  10.237  19.478  0.00  0.00    +0.000 NA
ATOM     25  C   UNL     1      -0.028   9.994  18.189  0.00  0.00    +0.000 A 
ATOM     26  N   UNL     1       0.946   9.258  17.643  0.00  0.00    +0.000 NA
BRANCH  23  27
ATOM     27  O   UNL     1       0.437   9.921  21.623  0.00  0.00    +0.000 OA
ATOM     28  H   UNL     1       0.947  10.709  21.863  0.00  0.00    +0.000 HD
ENDBRANCH  23  27
BRANCH  25  29
ATOM     29  O   UNL     1      -0.897  10.610  17.348  0.00  0.00    +0.000 OA
ATOM     30  H   UNL     1      -0.425  10.451  16.513  0.00  0.00    +0.000 HD
ENDBRANCH  25  29
ENDBRANCH  20  21
ENDBRANCH   4  20
TORSDOF 10
ENDMDL
MODEL 7
REMARK VINA RESULT:      -6.4      3.933      7.088
REMARK  Name = 
REMARK  11 active torsions:
REMARK  status: ('A' for Active; 'I' for Inactive)
REMARK    1  A    between atoms: C_1  and  C_2
REMARK    2  A    between atoms: C_2  and  O_3
REMARK    3  A    between atoms: O_3  and  C_4
REMARK    4  A    between atoms: C_4  and  C_6
REMARK    5  A    between atoms: C_6  and  S_7
REMARK    6  A    between atoms: S_7  and  C_8
REMARK    7  A    between atoms: C_11  and  C_12
REMARK    8  A    between atoms: C_12  and  C_13
REMARK    9  A    between atoms: C_15  and  O_16
REMARK   10  A    between atoms: C_18  and  O_19
REMARK   11  A    between atoms: N_21  and  C_22
REMARK                            x       y       z     vdW  Elec       q    Type
REMARK                         _______ _______ _______ _____ _____    ______ ____
ROOT
ATOM      1  C   UNL     1       2.190   7.761  19.420  0.00  0.00    +0.000 A 
ATOM      2  N   UNL     1       1.315   7.923  20.384  0.00  0.00    +0.000 NA
ATOM      3  N   UNL     1       1.265   6.769  21.102  0.00  0.00    +0.000 NA
ATOM      4  C   UNL     1       2.116   5.906  20.575  0.00  0.00    +0.000 A 
ATOM      5  N   UNL     1       2.733   6.481  19.459  0.00  0.00    +0.000 N 
ENDROOT
BRANCH   5   6
ATOM      6  C   UNL     1       3.720   5.900  18.609  0.00  0.00    +0.000 A 
ATOM      7  C   UNL     1       3.341   5.252  17.421  0.00  0.00    +0.000 A 
ATOM      8  C   UNL     1       4.307   4.680  16.582  0.00  0.00    +0.000 A 
ATOM      9  C   UNL     1       5.656   4.760  16.917  0.00  0.00    +0.000 A 
ATOM     10 CL   UNL     1       6.844   4.063  15.886  0.00  0.00    +0.000 Cl
ATOM     11  C   UNL     1       6.047   5.404  18.087  0.00  0.00    +0.000 A 
ATOM     12  C   UNL     1       5.086   5.967  18.931  0.00  0.00    +0.000 A 
ENDBRANCH   5   6
BRANCH   1  13
ATOM     13  S   UNL     1       2.457   8.951  18.187  0.00  0.00    +0.000 S 
BRANCH  13  14
ATOM     14  C   UNL     1       0.855   9.819  18.211  0.00  0.00    +0.000 C 
BRANCH  14  15
ATOM     15  C   UNL     1       0.973  11.166  18.897  0.00  0.00    +0.000 C 
ATOM     16  O   UNL     1       1.871  11.982  18.745  0.00  0.00    +0.000 OA
BRANCH  15  17
ATOM     17  O   UNL     1      -0.037  11.296  19.811  0.00  0.00    +0.000 OA
BRANCH  17  19
ATOM     18  C   UNL     1      -0.361  10.640  22.097  0.00  0.00    +0.000 C 
ATOM     19  C   UNL     1       0.381  11.575  21.157  0.00  0.00    +0.000 C 
ENDBRANCH  17  19
ENDBRANCH  15  17
ENDBRANCH  14  15
ENDBRANCH  13  14
ENDBRANCH   1  13
BRANCH   4  20
ATOM     20  C   UNL     1       2.475   4.617  21.245  0.00  0.00    +0.000 C 
BRANCH  20  21
ATOM     21  C   UNL     1       2.468   3.431  20.305  0.00  0.00    +0.000 A 
ATOM     22  C   UNL     1       3.612   2.674  20.105  0.00  0.00    +0.000 A 
ATOM     23  C   UNL     1       3.494   1.623  19.226  0.00  0.00    +0.000 A 
ATOM     24  N   UNL     1       2.375   1.316  18.563  0.00  0.00    +0.000 NA
ATOM     25  C   UNL     1       1.346   2.114  18.830  0.00  0.00    +0.000 A 
ATOM     26  N   UNL     1       1.311   3.157  19.665  0.00  0.00    +0.000 NA
BRANCH  23  27
ATOM     27  O   UNL     1       4.549   0.796  18.972  0.00  0.00    +0.000 OA
ATOM     28  H   UNL     1       4.777   0.329  19.789  0.00  0.00    +0.000 HD
ENDBRANCH  23  27
BRANCH  25  29
ATOM     29  O   UNL     1       0.196   1.783  18.190  0.00  0.00    +0.000 OA
ATOM     30  H   UNL     1       0.072   0.896  18.568  0.00  0.00    +0.000 HD
ENDBRANCH  25  29
ENDBRANCH  20  21
ENDBRANCH   4  20
TORSDOF 10
ENDMDL
MODEL 8
REMARK VINA RESULT:      -6.4      3.841      5.473
REMARK  Name = 
REMARK  11 active torsions:
REMARK  status: ('A' for Active; 'I' for Inactive)
REMARK    1  A    between atoms: C_1  and  C_2
REMARK    2  A    between atoms: C_2  and  O_3
REMARK    3  A    between atoms: O_3  and  C_4
REMARK    4  A    between atoms: C_4  and  C_6
REMARK    5  A    between atoms: C_6  and  S_7
REMARK    6  A    between atoms: S_7  and  C_8
REMARK    7  A    between atoms: C_11  and  C_12
REMARK    8  A    between atoms: C_12  and  C_13
REMARK    9  A    between atoms: C_15  and  O_16
REMARK   10  A    between atoms: C_18  and  O_19
REMARK   11  A    between atoms: N_21  and  C_22
REMARK                            x       y       z     vdW  Elec       q    Type
REMARK                         _______ _______ _______ _____ _____    ______ ____
ROOT
ATOM      1  C   UNL     1       1.985   7.606  19.472  0.00  0.00    +0.000 A 
ATOM      2  N   UNL     1       2.013   8.863  19.096  0.00  0.00    +0.000 NA
ATOM      3  N   UNL     1       2.788   8.948  17.981  0.00  0.00    +0.000 NA
ATOM      4  C   UNL     1       3.225   7.739  17.676  0.00  0.00    +0.000 A 
ATOM      5  N   UNL     1       2.760   6.822  18.624  0.00  0.00    +0.000 N 
ENDROOT
BRANCH   5   6
ATOM      6  C   UNL     1       2.990   5.414  18.666  0.00  0.00    +0.000 A 
ATOM      7  C   UNL     1       4.026   4.887  19.454  0.00  0.00    +0.000 A 
ATOM      8  C   UNL     1       4.256   3.505  19.499  0.00  0.00    +0.000 A 
ATOM      9  C   UNL     1       3.447   2.641  18.766  0.00  0.00    +0.000 A 
ATOM     10 CL   UNL     1       3.723   0.944  18.823  0.00  0.00    +0.000 Cl
ATOM     11  C   UNL     1       2.412   3.148  17.986  0.00  0.00    +0.000 A 
ATOM     12  C   UNL     1       2.186   4.526  17.931  0.00  0.00    +0.000 A 
ENDBRANCH   5   6
BRANCH   1  13
ATOM     13  S   UNL     1       1.219   7.084  20.938  0.00  0.00    +0.000 S 
BRANCH  13  14
ATOM     14  C   UNL     1      -0.011   8.409  21.160  0.00  0.00    +0.000 C 
BRANCH  14  15
ATOM     15  C   UNL     1       0.332   9.280  22.351  0.00  0.00    +0.000 C 
ATOM     16  O   UNL     1       1.451   9.487  22.802  0.00  0.00    +0.000 OA
BRANCH  15  17
ATOM     17  O   UNL     1      -0.824   9.729  22.930  0.00  0.00    +0.000 OA
BRANCH  17  19
ATOM     18  C   UNL     1      -1.439  11.726  21.749  0.00  0.00    +0.000 C 
ATOM     19  C   UNL     1      -0.934  11.155  23.064  0.00  0.00    +0.000 C 
ENDBRANCH  17  19
ENDBRANCH  15  17
ENDBRANCH  14  15
ENDBRANCH  13  14
ENDBRANCH   1  13
BRANCH   4  20
ATOM     20  C   UNL     1       3.922   7.436  16.387  0.00  0.00    +0.000 C 
BRANCH  20  21
ATOM     21  C   UNL     1       5.159   6.581  16.562  0.00  0.00    +0.000 A 
ATOM     22  C   UNL     1       5.293   5.376  15.888  0.00  0.00    +0.000 A 
ATOM     23  C   UNL     1       6.454   4.679  16.124  0.00  0.00    +0.000 A 
ATOM     24  N   UNL     1       7.419   5.082  16.957  0.00  0.00    +0.000 NA
ATOM     25  C   UNL     1       7.178   6.247  17.549  0.00  0.00    +0.000 A 
ATOM     26  N   UNL     1       6.109   7.035  17.406  0.00  0.00    +0.000 NA
BRANCH  23  27
ATOM     27  O   UNL     1       6.703   3.494  15.498  0.00  0.00    +0.000 OA
ATOM     28  H   UNL     1       7.385   3.639  14.825  0.00  0.00    +0.000 HD
ENDBRANCH  23  27
BRANCH  25  29
ATOM     29  O   UNL     1       8.174   6.680  18.364  0.00  0.00    +0.000 OA
ATOM     30  H   UNL     1       7.750   7.492  18.689  0.00  0.00    +0.000 HD
ENDBRANCH  25  29
ENDBRANCH  20  21
ENDBRANCH   4  20
TORSDOF 10
ENDMDL
MODEL 9
REMARK VINA RESULT:      -6.4      4.306      6.236
REMARK  Name = 
REMARK  11 active torsions:
REMARK  status: ('A' for Active; 'I' for Inactive)
REMARK    1  A    between atoms: C_1  and  C_2
REMARK    2  A    between atoms: C_2  and  O_3
REMARK    3  A    between atoms: O_3  and  C_4
REMARK    4  A    between atoms: C_4  and  C_6
REMARK    5  A    between atoms: C_6  and  S_7
REMARK    6  A    between atoms: S_7  and  C_8
REMARK    7  A    between atoms: C_11  and  C_12
REMARK    8  A    between atoms: C_12  and  C_13
REMARK    9  A    between atoms: C_15  and  O_16
REMARK   10  A    between atoms: C_18  and  O_19
REMARK   11  A    between atoms: N_21  and  C_22
REMARK                            x       y       z     vdW  Elec       q    Type
REMARK                         _______ _______ _______ _____ _____    ______ ____
ROOT
ATOM      1  C   UNL     1       1.974   6.044  20.415  0.00  0.00    +0.000 A 
ATOM      2  N   UNL     1       1.281   6.966  21.040  0.00  0.00    +0.000 NA
ATOM      3  N   UNL     1       1.384   8.121  20.329  0.00  0.00    +0.000 NA
ATOM      4  C   UNL     1       2.136   7.897  19.266  0.00  0.00    +0.000 A 
ATOM      5  N   UNL     1       2.575   6.569  19.275  0.00  0.00    +0.000 N 
ENDROOT
BRANCH   5   6
ATOM      6  C   UNL     1       3.397   5.911  18.312  0.00  0.00    +0.000 A 
ATOM      7  C   UNL     1       4.745   6.279  18.160  0.00  0.00    +0.000 A 
ATOM      8  C   UNL     1       5.556   5.636  17.215  0.00  0.00    +0.000 A 
ATOM      9  C   UNL     1       5.031   4.617  16.425  0.00  0.00    +0.000 A 
ATOM     10 CL   UNL     1       6.027   3.823  15.268  0.00  0.00    +0.000 Cl
ATOM     11  C   UNL     1       3.700   4.238  16.569  0.00  0.00    +0.000 A 
ATOM     12  C   UNL     1       2.885   4.883  17.503  0.00  0.00    +0.000 A 
ENDBRANCH   5   6
BRANCH   1  13
ATOM     13  S   UNL     1       2.219   4.454  21.064  0.00  0.00    +0.000 S 
BRANCH  13  14
ATOM     14  C   UNL     1       0.715   3.617  20.469  0.00  0.00    +0.000 C 
BRANCH  14  15
ATOM     15  C   UNL     1       1.052   2.537  19.461  0.00  0.00    +0.000 C 
ATOM     16  O   UNL     1       0.410   2.253  18.458  0.00  0.00    +0.000 OA
BRANCH  15  17
ATOM     17  O   UNL     1       2.143   1.837  19.898  0.00  0.00    +0.000 OA
BRANCH  17  19
ATOM     18  C   UNL     1       4.487   2.090  19.446  0.00  0.00    +0.000 C 
ATOM     19  C   UNL     1       3.156   1.591  18.909  0.00  0.00    +0.000 C 
ENDBRANCH  17  19
ENDBRANCH  15  17
ENDBRANCH  14  15
ENDBRANCH  13  14
ENDBRANCH   1  13
BRANCH   4  20
ATOM     20  C   UNL     1       2.277   8.890  18.155  0.00  0.00    +0.000 C 
BRANCH  20  21
ATOM     21  C   UNL     1       1.311  10.050  18.263  0.00  0.00    +0.000 A 
ATOM     22  C   UNL     1       1.759  11.322  18.586  0.00  0.00    +0.000 A 
ATOM     23  C   UNL     1       0.795  12.300  18.662  0.00  0.00    +0.000 A 
ATOM     24  N   UNL     1      -0.510  12.089  18.465  0.00  0.00    +0.000 NA
ATOM     25  C   UNL     1      -0.821  10.832  18.168  0.00  0.00    +0.000 A 
ATOM     26  N   UNL     1       0.005   9.788  18.047  0.00  0.00    +0.000 NA
BRANCH  23  27
ATOM     27  O   UNL     1       1.124  13.592  18.948  0.00  0.00    +0.000 OA
ATOM     28  H   UNL     1       1.473  13.627  19.852  0.00  0.00    +0.000 HD
ENDBRANCH  23  27
BRANCH  25  29
ATOM     29  O   UNL     1      -2.141  10.620  17.927  0.00  0.00    +0.000 OA
ATOM     30  H   UNL     1      -2.345  11.468  17.498  0.00  0.00    +0.000 HD
ENDBRANCH  25  29
ENDBRANCH  20  21
ENDBRANCH   4  20
TORSDOF 10
ENDMDL
