MODEL 1
REMARK VINA RESULT:      -7.1      0.000      0.000
REMARK  Name = 
REMARK  12 active torsions:
REMARK  status: ('A' for Active; 'I' for Inactive)
REMARK    1  A    between atoms: C_1  and  C_2
REMARK    2  A    between atoms: C_6  and  O_7
REMARK    3  A    between atoms: C_10  and  C_11
REMARK    4  A    between atoms: C_12  and  C_13
REMARK    5  A    between atoms: C_13  and  C_14
REMARK    6  A    between atoms: C_14  and  C_15
REMARK    7  A    between atoms: N_17  and  C_18
REMARK    8  A    between atoms: C_18  and  C_19
REMARK    9  A    between atoms: C_19  and  C_20
REMARK   10  A    between atoms: C_20  and  C_21
REMARK   11  A    between atoms: C_21  and  C_22
REMARK   12  A    between atoms: C_21  and  C_23
REMARK                            x       y       z     vdW  Elec       q    Type
REMARK                         _______ _______ _______ _____ _____    ______ ____
ROOT
ATOM      1  C   UNL     1       4.345   7.347  17.833  0.00  0.00    +0.000 C 
ATOM      2  C   UNL     1       3.919   5.952  18.223  0.00  0.00    +0.000 A 
ATOM      3  N   UNL     1       2.691   5.660  17.903  0.00  0.00    +0.000 NA
ATOM      4  C   UNL     1       2.240   4.426  18.219  0.00  0.00    +0.000 A 
ATOM      5  C   UNL     1       1.013   3.844  18.012  0.00  0.00    +0.000 A 
ATOM      6  C   UNL     1       1.154   2.575  18.557  0.00  0.00    +0.000 A 
ATOM      7  N   UNL     1       2.347   2.329  19.080  0.00  0.00    +0.000 NA
ATOM      8  N   UNL     1       3.041   3.482  18.871  0.00  0.00    +0.000 N 
ATOM      9  C   UNL     1       4.370   3.787  19.223  0.00  0.00    +0.000 A 
ATOM     10  C   UNL     1       5.162   2.702  19.904  0.00  0.00    +0.000 C 
ATOM     11  C   UNL     1       4.887   5.013  18.943  0.00  0.00    +0.000 A 
ENDROOT
BRANCH   6  12
ATOM     12  O   UNL     1       0.250   1.593  18.630  0.00  0.00    +0.000 OA
ATOM     13  H   UNL     1       0.647   0.771  18.301  0.00  0.00    +0.000 HD
ENDBRANCH   6  12
BRANCH  11  14
ATOM     14  C   UNL     1       6.336   5.379  19.219  0.00  0.00    +0.000 C 
BRANCH  14  15
ATOM     15  C   UNL     1       7.341   4.800  18.221  0.00  0.00    +0.000 C 
BRANCH  15  16
ATOM     16  C   UNL     1       7.241   5.444  16.843  0.00  0.00    +0.000 C 
ATOM     17  O   UNL     1       7.593   6.589  16.611  0.00  0.00    +0.000 OA
ATOM     18  N   UNL     1       6.706   4.576  15.909  0.00  0.00    +0.000 N 
ATOM     19  H   UNL     1       6.450   3.639  16.185  0.00  0.00    +0.000 HD
BRANCH  18  20
ATOM     20  C   UNL     1       6.517   4.956  14.526  0.00  0.00    +0.000 C 
BRANCH  20  21
ATOM     21  C   UNL     1       6.417   3.739  13.610  0.00  0.00    +0.000 C 
BRANCH  21  22
ATOM     22  C   UNL     1       5.049   3.702  12.927  0.00  0.00    +0.000 C 
BRANCH  22  23
ATOM     23  C   UNL     1       5.082   3.161  11.489  0.00  0.00    +0.000 C 
ATOM     24  C   UNL     1       5.698   1.765  11.406  0.00  0.00    +0.000 C 
ATOM     25  C   UNL     1       3.661   3.132  10.919  0.00  0.00    +0.000 C 
ENDBRANCH  22  23
ENDBRANCH  21  22
ENDBRANCH  20  21
ENDBRANCH  18  20
ENDBRANCH  15  16
ENDBRANCH  14  15
ENDBRANCH  11  14
TORSDOF 8
ENDMDL
MODEL 2
REMARK VINA RESULT:      -7.0      2.705      3.443
REMARK  Name = 
REMARK  12 active torsions:
REMARK  status: ('A' for Active; 'I' for Inactive)
REMARK    1  A    between atoms: C_1  and  C_2
REMARK    2  A    between atoms: C_6  and  O_7
REMARK    3  A    between atoms: C_10  and  C_11
REMARK    4  A    between atoms: C_12  and  C_13
REMARK    5  A    between atoms: C_13  and  C_14
REMARK    6  A    between atoms: C_14  and  C_15
REMARK    7  A    between atoms: N_17  and  C_18
REMARK    8  A    between atoms: C_18  and  C_19
REMARK    9  A    between atoms: C_19  and  C_20
REMARK   10  A    between atoms: C_20  and  C_21
REMARK   11  A    between atoms: C_21  and  C_22
REMARK   12  A    between atoms: C_21  and  C_23
REMARK                            x       y       z     vdW  Elec       q    Type
REMARK                         _______ _______ _______ _____ _____    ______ ____
ROOT
ATOM      1  C   UNL     1       4.473   6.984  16.481  0.00  0.00    +0.000 C 
ATOM      2  C   UNL     1       3.610   7.014  17.720  0.00  0.00    +0.000 A 
ATOM      3  N   UNL     1       2.962   8.130  17.891  0.00  0.00    +0.000 NA
ATOM      4  C   UNL     1       2.167   8.229  18.979  0.00  0.00    +0.000 A 
ATOM      5  C   UNL     1       1.376   9.264  19.416  0.00  0.00    +0.000 A 
ATOM      6  C   UNL     1       0.811   8.776  20.586  0.00  0.00    +0.000 A 
ATOM      7  N   UNL     1       1.185   7.546  20.908  0.00  0.00    +0.000 NA
ATOM      8  N   UNL     1       2.033   7.188  19.905  0.00  0.00    +0.000 N 
ATOM      9  C   UNL     1       2.730   5.977  19.730  0.00  0.00    +0.000 A 
ATOM     10  C   UNL     1       2.510   4.906  20.766  0.00  0.00    +0.000 C 
ATOM     11  C   UNL     1       3.556   5.811  18.661  0.00  0.00    +0.000 A 
ENDROOT
BRANCH   6  12
ATOM     12  O   UNL     1      -0.036   9.386  21.421  0.00  0.00    +0.000 OA
ATOM     13  H   UNL     1      -0.209   8.805  22.179  0.00  0.00    +0.000 HD
ENDBRANCH   6  12
BRANCH  11  14
ATOM     14  C   UNL     1       4.272   4.503  18.369  0.00  0.00    +0.000 C 
BRANCH  14  15
ATOM     15  C   UNL     1       5.759   4.498  18.729  0.00  0.00    +0.000 C 
BRANCH  15  16
ATOM     16  C   UNL     1       6.661   4.352  17.508  0.00  0.00    +0.000 C 
ATOM     17  O   UNL     1       7.859   4.585  17.528  0.00  0.00    +0.000 OA
ATOM     18  N   UNL     1       5.954   3.933  16.396  0.00  0.00    +0.000 N 
ATOM     19  H   UNL     1       4.963   3.754  16.471  0.00  0.00    +0.000 HD
BRANCH  18  20
ATOM     20  C   UNL     1       6.593   3.717  15.115  0.00  0.00    +0.000 C 
BRANCH  20  21
ATOM     21  C   UNL     1       5.734   4.225  13.960  0.00  0.00    +0.000 C 
BRANCH  21  22
ATOM     22  C   UNL     1       6.253   3.669  12.632  0.00  0.00    +0.000 C 
BRANCH  22  23
ATOM     23  C   UNL     1       5.355   2.583  12.016  0.00  0.00    +0.000 C 
ATOM     24  C   UNL     1       4.214   3.173  11.187  0.00  0.00    +0.000 C 
ATOM     25  C   UNL     1       6.201   1.656  11.139  0.00  0.00    +0.000 C 
ENDBRANCH  22  23
ENDBRANCH  21  22
ENDBRANCH  20  21
ENDBRANCH  18  20
ENDBRANCH  15  16
ENDBRANCH  14  15
ENDBRANCH  11  14
TORSDOF 8
ENDMDL
MODEL 3
REMARK VINA RESULT:      -7.0      3.594      5.945
REMARK  Name = 
REMARK  12 active torsions:
REMARK  status: ('A' for Active; 'I' for Inactive)
REMARK    1  A    between atoms: C_1  and  C_2
REMARK    2  A    between atoms: C_6  and  O_7
REMARK    3  A    between atoms: C_10  and  C_11
REMARK    4  A    between atoms: C_12  and  C_13
REMARK    5  A    between atoms: C_13  and  C_14
REMARK    6  A    between atoms: C_14  and  C_15
REMARK    7  A    between atoms: N_17  and  C_18
REMARK    8  A    between atoms: C_18  and  C_19
REMARK    9  A    between atoms: C_19  and  C_20
REMARK   10  A    between atoms: C_20  and  C_21
REMARK   11  A    between atoms: C_21  and  C_22
REMARK   12  A    between atoms: C_21  and  C_23
REMARK                            x       y       z     vdW  Elec       q    Type
REMARK                         _______ _______ _______ _____ _____    ______ ____
ROOT
ATOM      1  C   UNL     1       3.207   7.688  17.651  0.00  0.00    +0.000 C 
ATOM      2  C   UNL     1       3.140   6.311  18.268  0.00  0.00    +0.000 A 
ATOM      3  N   UNL     1       2.426   6.249  19.355  0.00  0.00    +0.000 NA
ATOM      4  C   UNL     1       2.318   5.047  19.962  0.00  0.00    +0.000 A 
ATOM      5  C   UNL     1       1.646   4.679  21.103  0.00  0.00    +0.000 A 
ATOM      6  C   UNL     1       1.913   3.322  21.221  0.00  0.00    +0.000 A 
ATOM      7  N   UNL     1       2.687   2.828  20.265  0.00  0.00    +0.000 NA
ATOM      8  N   UNL     1       2.946   3.899  19.465  0.00  0.00    +0.000 N 
ATOM      9  C   UNL     1       3.721   3.955  18.291  0.00  0.00    +0.000 A 
ATOM     10  C   UNL     1       4.343   2.667  17.820  0.00  0.00    +0.000 C 
ATOM     11  C   UNL     1       3.880   5.135  17.632  0.00  0.00    +0.000 A 
ENDROOT
BRANCH   6  12
ATOM     12  O   UNL     1       1.506   2.471  22.167  0.00  0.00    +0.000 OA
ATOM     13  H   UNL     1       2.282   2.071  22.590  0.00  0.00    +0.000 HD
ENDBRANCH   6  12
BRANCH  11  14
ATOM     14  C   UNL     1       4.633   5.249  16.318  0.00  0.00    +0.000 C 
BRANCH  14  15
ATOM     15  C   UNL     1       5.371   6.575  16.120  0.00  0.00    +0.000 C 
BRANCH  15  16
ATOM     16  C   UNL     1       6.707   6.621  16.852  0.00  0.00    +0.000 C 
ATOM     17  O   UNL     1       7.427   5.646  16.996  0.00  0.00    +0.000 OA
ATOM     18  N   UNL     1       6.989   7.889  17.325  0.00  0.00    +0.000 N 
ATOM     19  H   UNL     1       6.340   8.644  17.153  0.00  0.00    +0.000 HD
BRANCH  18  20
ATOM     20  C   UNL     1       8.206   8.187  18.050  0.00  0.00    +0.000 C 
BRANCH  20  21
ATOM     21  C   UNL     1       8.522   9.680  18.042  0.00  0.00    +0.000 C 
BRANCH  21  22
ATOM     22  C   UNL     1       9.213  10.082  19.346  0.00  0.00    +0.000 C 
BRANCH  22  23
ATOM     23  C   UNL     1      10.327  11.126  19.167  0.00  0.00    +0.000 C 
ATOM     24  C   UNL     1       9.983  12.167  18.101  0.00  0.00    +0.000 C 
ATOM     25  C   UNL     1      10.593  11.826  20.503  0.00  0.00    +0.000 C 
ENDBRANCH  22  23
ENDBRANCH  21  22
ENDBRANCH  20  21
ENDBRANCH  18  20
ENDBRANCH  15  16
ENDBRANCH  14  15
ENDBRANCH  11  14
TORSDOF 8
ENDMDL
MODEL 4
REMARK VINA RESULT:      -7.0      1.614      2.698
REMARK  Name = 
REMARK  12 active torsions:
REMARK  status: ('A' for Active; 'I' for Inactive)
REMARK    1  A    between atoms: C_1  and  C_2
REMARK    2  A    between atoms: C_6  and  O_7
REMARK    3  A    between atoms: C_10  and  C_11
REMARK    4  A    between atoms: C_12  and  C_13
REMARK    5  A    between atoms: C_13  and  C_14
REMARK    6  A    between atoms: C_14  and  C_15
REMARK    7  A    between atoms: N_17  and  C_18
REMARK    8  A    between atoms: C_18  and  C_19
REMARK    9  A    between atoms: C_19  and  C_20
REMARK   10  A    between atoms: C_20  and  C_21
REMARK   11  A    between atoms: C_21  and  C_22
REMARK   12  A    between atoms: C_21  and  C_23
REMARK                            x       y       z     vdW  Elec       q    Type
REMARK                         _______ _______ _______ _____ _____    ______ ____
ROOT
ATOM      1  C   UNL     1       7.023   4.546  18.566  0.00  0.00    +0.000 C 
ATOM      2  C   UNL     1       5.537   4.590  18.833  0.00  0.00    +0.000 A 
ATOM      3  N   UNL     1       5.114   3.664  19.646  0.00  0.00    +0.000 NA
ATOM      4  C   UNL     1       3.794   3.643  19.933  0.00  0.00    +0.000 A 
ATOM      5  C   UNL     1       3.070   2.800  20.741  0.00  0.00    +0.000 A 
ATOM      6  C   UNL     1       1.770   3.273  20.629  0.00  0.00    +0.000 A 
ATOM      7  N   UNL     1       1.631   4.320  19.829  0.00  0.00    +0.000 NA
ATOM      8  N   UNL     1       2.895   4.566  19.388  0.00  0.00    +0.000 N 
ATOM      9  C   UNL     1       3.342   5.571  18.508  0.00  0.00    +0.000 A 
ATOM     10  C   UNL     1       2.307   6.532  17.986  0.00  0.00    +0.000 C 
ATOM     11  C   UNL     1       4.657   5.647  18.167  0.00  0.00    +0.000 A 
ENDROOT
BRANCH   6  12
ATOM     12  O   UNL     1       0.659   2.806  21.208  0.00  0.00    +0.000 OA
ATOM     13  H   UNL     1      -0.107   3.035  20.657  0.00  0.00    +0.000 HD
ENDBRANCH   6  12
BRANCH  11  14
ATOM     14  C   UNL     1       5.219   6.753  17.291  0.00  0.00    +0.000 C 
BRANCH  14  15
ATOM     15  C   UNL     1       5.032   6.532  15.788  0.00  0.00    +0.000 C 
BRANCH  15  16
ATOM     16  C   UNL     1       6.042   5.550  15.207  0.00  0.00    +0.000 C 
ATOM     17  O   UNL     1       7.250   5.698  15.298  0.00  0.00    +0.000 OA
ATOM     18  N   UNL     1       5.421   4.492  14.569  0.00  0.00    +0.000 N 
ATOM     19  H   UNL     1       4.412   4.443  14.548  0.00  0.00    +0.000 HD
BRANCH  18  20
ATOM     20  C   UNL     1       6.170   3.425  13.941  0.00  0.00    +0.000 C 
BRANCH  20  21
ATOM     21  C   UNL     1       6.224   3.586  12.424  0.00  0.00    +0.000 C 
BRANCH  21  22
ATOM     22  C   UNL     1       5.401   2.489  11.747  0.00  0.00    +0.000 C 
BRANCH  22  23
ATOM     23  C   UNL     1       6.224   1.555  10.845  0.00  0.00    +0.000 C 
ATOM     24  C   UNL     1       7.668   2.030  10.678  0.00  0.00    +0.000 C 
ATOM     25  C   UNL     1       6.213   0.138  11.428  0.00  0.00    +0.000 C 
ENDBRANCH  22  23
ENDBRANCH  21  22
ENDBRANCH  20  21
ENDBRANCH  18  20
ENDBRANCH  15  16
ENDBRANCH  14  15
ENDBRANCH  11  14
TORSDOF 8
ENDMDL
MODEL 5
REMARK VINA RESULT:      -7.0      1.898      2.296
REMARK  Name = 
REMARK  12 active torsions:
REMARK  status: ('A' for Active; 'I' for Inactive)
REMARK    1  A    between atoms: C_1  and  C_2
REMARK    2  A    between atoms: C_6  and  O_7
REMARK    3  A    between atoms: C_10  and  C_11
REMARK    4  A    between atoms: C_12  and  C_13
REMARK    5  A    between atoms: C_13  and  C_14
REMARK    6  A    between atoms: C_14  and  C_15
REMARK    7  A    between atoms: N_17  and  C_18
REMARK    8  A    between atoms: C_18  and  C_19
REMARK    9  A    between atoms: C_19  and  C_20
REMARK   10  A    between atoms: C_20  and  C_21
REMARK   11  A    between atoms: C_21  and  C_22
REMARK   12  A    between atoms: C_21  and  C_23
REMARK                            x       y       z     vdW  Elec       q    Type
REMARK                         _______ _______ _______ _____ _____    ______ ____
ROOT
ATOM      1  C   UNL     1       2.232   7.833  18.481  0.00  0.00    +0.000 C 
ATOM      2  C   UNL     1       2.572   6.418  18.885  0.00  0.00    +0.000 A 
ATOM      3  N   UNL     1       2.053   6.049  20.021  0.00  0.00    +0.000 NA
ATOM      4  C   UNL     1       2.313   4.793  20.447  0.00  0.00    +0.000 A 
ATOM      5  C   UNL     1       1.912   4.135  21.584  0.00  0.00    +0.000 A 
ATOM      6  C   UNL     1       2.499   2.883  21.465  0.00  0.00    +0.000 A 
ATOM      7  N   UNL     1       3.222   2.715  20.367  0.00  0.00    +0.000 NA
ATOM      8  N   UNL     1       3.111   3.906  19.716  0.00  0.00    +0.000 N 
ATOM      9  C   UNL     1       3.678   4.294  18.487  0.00  0.00    +0.000 A 
ATOM     10  C   UNL     1       4.505   3.268  17.761  0.00  0.00    +0.000 C 
ATOM     11  C   UNL     1       3.465   5.548  18.001  0.00  0.00    +0.000 A 
ENDROOT
BRANCH   6  12
ATOM     12  O   UNL     1       2.437   1.848  22.309  0.00  0.00    +0.000 OA
ATOM     13  H   UNL     1       2.016   1.098  21.861  0.00  0.00    +0.000 HD
ENDBRANCH   6  12
BRANCH  11  14
ATOM     14  C   UNL     1       3.977   6.004  16.646  0.00  0.00    +0.000 C 
BRANCH  14  15
ATOM     15  C   UNL     1       5.363   6.653  16.674  0.00  0.00    +0.000 C 
BRANCH  15  16
ATOM     16  C   UNL     1       6.422   5.810  15.973  0.00  0.00    +0.000 C 
ATOM     17  O   UNL     1       7.612   5.873  16.237  0.00  0.00    +0.000 OA
ATOM     18  N   UNL     1       5.868   4.984  15.013  0.00  0.00    +0.000 N 
ATOM     19  H   UNL     1       4.869   4.988  14.865  0.00  0.00    +0.000 HD
BRANCH  18  20
ATOM     20  C   UNL     1       6.672   4.083  14.215  0.00  0.00    +0.000 C 
BRANCH  20  21
ATOM     21  C   UNL     1       7.191   4.757  12.948  0.00  0.00    +0.000 C 
BRANCH  21  22
ATOM     22  C   UNL     1       6.859   3.904  11.722  0.00  0.00    +0.000 C 
BRANCH  22  23
ATOM     23  C   UNL     1       5.776   2.842  11.974  0.00  0.00    +0.000 C 
ATOM     24  C   UNL     1       4.407   3.269  11.442  0.00  0.00    +0.000 C 
ATOM     25  C   UNL     1       6.192   1.520  11.322  0.00  0.00    +0.000 C 
ENDBRANCH  22  23
ENDBRANCH  21  22
ENDBRANCH  20  21
ENDBRANCH  18  20
ENDBRANCH  15  16
ENDBRANCH  14  15
ENDBRANCH  11  14
TORSDOF 8
ENDMDL
MODEL 6
REMARK VINA RESULT:      -6.8      4.804      7.327
REMARK  Name = 
REMARK  12 active torsions:
REMARK  status: ('A' for Active; 'I' for Inactive)
REMARK    1  A    between atoms: C_1  and  C_2
REMARK    2  A    between atoms: C_6  and  O_7
REMARK    3  A    between atoms: C_10  and  C_11
REMARK    4  A    between atoms: C_12  and  C_13
REMARK    5  A    between atoms: C_13  and  C_14
REMARK    6  A    between atoms: C_14  and  C_15
REMARK    7  A    between atoms: N_17  and  C_18
REMARK    8  A    between atoms: C_18  and  C_19
REMARK    9  A    between atoms: C_19  and  C_20
REMARK   10  A    between atoms: C_20  and  C_21
REMARK   11  A    between atoms: C_21  and  C_22
REMARK   12  A    between atoms: C_21  and  C_23
REMARK                            x       y       z     vdW  Elec       q    Type
REMARK                         _______ _______ _______ _____ _____    ______ ____
ROOT
ATOM      1  C   UNL     1       1.611   7.080  20.656  0.00  0.00    +0.000 C 
ATOM      2  C   UNL     1       2.344   6.069  19.806  0.00  0.00    +0.000 A 
ATOM      3  N   UNL     1       2.251   4.844  20.238  0.00  0.00    +0.000 NA
ATOM      4  C   UNL     1       2.881   3.883  19.526  0.00  0.00    +0.000 A 
ATOM      5  C   UNL     1       2.962   2.528  19.733  0.00  0.00    +0.000 A 
ATOM      6  C   UNL     1       3.746   2.079  18.679  0.00  0.00    +0.000 A 
ATOM      7  N   UNL     1       4.154   3.031  17.852  0.00  0.00    +0.000 NA
ATOM      8  N   UNL     1       3.615   4.169  18.370  0.00  0.00    +0.000 N 
ATOM      9  C   UNL     1       3.722   5.490  17.894  0.00  0.00    +0.000 A 
ATOM     10  C   UNL     1       4.515   5.700  16.632  0.00  0.00    +0.000 C 
ATOM     11  C   UNL     1       3.120   6.510  18.566  0.00  0.00    +0.000 A 
ENDROOT
BRANCH   6  12
ATOM     12  O   UNL     1       4.143   0.833  18.406  0.00  0.00    +0.000 OA
ATOM     13  H   UNL     1       5.107   0.823  18.300  0.00  0.00    +0.000 HD
ENDBRANCH   6  12
BRANCH  11  14
ATOM     14  C   UNL     1       3.126   7.943  18.064  0.00  0.00    +0.000 C 
BRANCH  14  15
ATOM     15  C   UNL     1       1.772   8.447  17.560  0.00  0.00    +0.000 C 
BRANCH  15  16
ATOM     16  C   UNL     1       1.497   9.894  17.952  0.00  0.00    +0.000 C 
ATOM     17  O   UNL     1       2.367  10.747  18.021  0.00  0.00    +0.000 OA
ATOM     18  N   UNL     1       0.157  10.107  18.219  0.00  0.00    +0.000 N 
ATOM     19  H   UNL     1      -0.499   9.345  18.128  0.00  0.00    +0.000 HD
BRANCH  18  20
ATOM     20  C   UNL     1      -0.353  11.405  18.608  0.00  0.00    +0.000 C 
BRANCH  20  21
ATOM     21  C   UNL     1      -1.689  11.714  17.938  0.00  0.00    +0.000 C 
BRANCH  21  22
ATOM     22  C   UNL     1      -2.581  10.471  17.939  0.00  0.00    +0.000 C 
BRANCH  22  23
ATOM     23  C   UNL     1      -3.587  10.422  16.778  0.00  0.00    +0.000 C 
ATOM     24  C   UNL     1      -4.811  11.303  17.030  0.00  0.00    +0.000 C 
ATOM     25  C   UNL     1      -2.897  10.858  15.482  0.00  0.00    +0.000 C 
ENDBRANCH  22  23
ENDBRANCH  21  22
ENDBRANCH  20  21
ENDBRANCH  18  20
ENDBRANCH  15  16
ENDBRANCH  14  15
ENDBRANCH  11  14
TORSDOF 8
ENDMDL
MODEL 7
REMARK VINA RESULT:      -6.7      2.359      6.555
REMARK  Name = 
REMARK  12 active torsions:
REMARK  status: ('A' for Active; 'I' for Inactive)
REMARK    1  A    between atoms: C_1  and  C_2
REMARK    2  A    between atoms: C_6  and  O_7
REMARK    3  A    between atoms: C_10  and  C_11
REMARK    4  A    between atoms: C_12  and  C_13
REMARK    5  A    between atoms: C_13  and  C_14
REMARK    6  A    between atoms: C_14  and  C_15
REMARK    7  A    between atoms: N_17  and  C_18
REMARK    8  A    between atoms: C_18  and  C_19
REMARK    9  A    between atoms: C_19  and  C_20
REMARK   10  A    between atoms: C_20  and  C_21
REMARK   11  A    between atoms: C_21  and  C_22
REMARK   12  A    between atoms: C_21  and  C_23
REMARK                            x       y       z     vdW  Elec       q    Type
REMARK                         _______ _______ _______ _____ _____    ______ ____
ROOT
ATOM      1  C   UNL     1       4.392   2.409  20.428  0.00  0.00    +0.000 C 
ATOM      2  C   UNL     1       4.853   3.293  19.293  0.00  0.00    +0.000 A 
ATOM      3  N   UNL     1       5.777   4.148  19.627  0.00  0.00    +0.000 NA
ATOM      4  C   UNL     1       6.241   4.972  18.661  0.00  0.00    +0.000 A 
ATOM      5  C   UNL     1       7.195   5.959  18.713  0.00  0.00    +0.000 A 
ATOM      6  C   UNL     1       7.228   6.454  17.417  0.00  0.00    +0.000 A 
ATOM      7  N   UNL     1       6.383   5.867  16.581  0.00  0.00    +0.000 NA
ATOM      8  N   UNL     1       5.759   4.931  17.349  0.00  0.00    +0.000 N 
ATOM      9  C   UNL     1       4.760   4.011  16.977  0.00  0.00    +0.000 A 
ATOM     10  C   UNL     1       4.318   4.026  15.538  0.00  0.00    +0.000 C 
ATOM     11  C   UNL     1       4.241   3.156  17.900  0.00  0.00    +0.000 A 
ENDROOT
BRANCH   6  12
ATOM     12  O   UNL     1       7.982   7.439  16.918  0.00  0.00    +0.000 OA
ATOM     13  H   UNL     1       8.901   7.136  16.857  0.00  0.00    +0.000 HD
ENDBRANCH   6  12
BRANCH  11  14
ATOM     14  C   UNL     1       3.223   2.085  17.549  0.00  0.00    +0.000 C 
BRANCH  14  15
ATOM     15  C   UNL     1       1.856   2.263  18.215  0.00  0.00    +0.000 C 
BRANCH  15  16
ATOM     16  C   UNL     1       1.479   3.728  18.405  0.00  0.00    +0.000 C 
ATOM     17  O   UNL     1       1.182   4.469  17.482  0.00  0.00    +0.000 OA
ATOM     18  N   UNL     1       1.521   4.099  19.736  0.00  0.00    +0.000 N 
ATOM     19  H   UNL     1       1.769   3.418  20.439  0.00  0.00    +0.000 HD
BRANCH  18  20
ATOM     20  C   UNL     1       1.198   5.442  20.170  0.00  0.00    +0.000 C 
BRANCH  20  21
ATOM     21  C   UNL     1       2.411   6.366  20.110  0.00  0.00    +0.000 C 
BRANCH  21  22
ATOM     22  C   UNL     1       1.978   7.782  19.725  0.00  0.00    +0.000 C 
BRANCH  22  23
ATOM     23  C   UNL     1       2.057   8.072  18.218  0.00  0.00    +0.000 C 
ATOM     24  C   UNL     1       1.955   9.566  17.907  0.00  0.00    +0.000 C 
ATOM     25  C   UNL     1       3.369   7.518  17.656  0.00  0.00    +0.000 C 
ENDBRANCH  22  23
ENDBRANCH  21  22
ENDBRANCH  20  21
ENDBRANCH  18  20
ENDBRANCH  15  16
ENDBRANCH  14  15
ENDBRANCH  11  14
TORSDOF 8
ENDMDL
MODEL 8
REMARK VINA RESULT:      -6.7      2.532      6.281
REMARK  Name = 
REMARK  12 active torsions:
REMARK  status: ('A' for Active; 'I' for Inactive)
REMARK    1  A    between atoms: C_1  and  C_2
REMARK    2  A    between atoms: C_6  and  O_7
REMARK    3  A    between atoms: C_10  and  C_11
REMARK    4  A    between atoms: C_12  and  C_13
REMARK    5  A    between atoms: C_13  and  C_14
REMARK    6  A    between atoms: C_14  and  C_15
REMARK    7  A    between atoms: N_17  and  C_18
REMARK    8  A    between atoms: C_18  and  C_19
REMARK    9  A    between atoms: C_19  and  C_20
REMARK   10  A    between atoms: C_20  and  C_21
REMARK   11  A    between atoms: C_21  and  C_22
REMARK   12  A    between atoms: C_21  and  C_23
REMARK                            x       y       z     vdW  Elec       q    Type
REMARK                         _______ _______ _______ _____ _____    ______ ____
ROOT
ATOM      1  C   UNL     1       7.532   7.192  17.849  0.00  0.00    +0.000 C 
ATOM      2  C   UNL     1       6.831   6.231  16.919  0.00  0.00    +0.000 A 
ATOM      3  N   UNL     1       7.499   5.956  15.835  0.00  0.00    +0.000 NA
ATOM      4  C   UNL     1       6.934   5.100  14.955  0.00  0.00    +0.000 A 
ATOM      5  C   UNL     1       7.391   4.630  13.748  0.00  0.00    +0.000 A 
ATOM      6  C   UNL     1       6.373   3.793  13.313  0.00  0.00    +0.000 A 
ATOM      7  N   UNL     1       5.338   3.710  14.137  0.00  0.00    +0.000 NA
ATOM      8  N   UNL     1       5.679   4.523  15.174  0.00  0.00    +0.000 N 
ATOM      9  C   UNL     1       4.947   4.813  16.342  0.00  0.00    +0.000 A 
ATOM     10  C   UNL     1       3.615   4.131  16.502  0.00  0.00    +0.000 C 
ATOM     11  C   UNL     1       5.451   5.674  17.268  0.00  0.00    +0.000 A 
ENDROOT
BRANCH   6  12
ATOM     12  O   UNL     1       6.302   3.083  12.183  0.00  0.00    +0.000 OA
ATOM     13  H   UNL     1       6.940   3.438  11.543  0.00  0.00    +0.000 HD
ENDBRANCH   6  12
BRANCH  11  14
ATOM     14  C   UNL     1       4.754   5.967  18.586  0.00  0.00    +0.000 C 
BRANCH  14  15
ATOM     15  C   UNL     1       3.528   6.875  18.469  0.00  0.00    +0.000 C 
BRANCH  15  16
ATOM     16  C   UNL     1       2.484   6.597  19.544  0.00  0.00    +0.000 C 
ATOM     17  O   UNL     1       1.999   7.468  20.249  0.00  0.00    +0.000 OA
ATOM     18  N   UNL     1       2.168   5.253  19.617  0.00  0.00    +0.000 N 
ATOM     19  H   UNL     1       2.611   4.600  18.987  0.00  0.00    +0.000 HD
BRANCH  18  20
ATOM     20  C   UNL     1       1.196   4.741  20.559  0.00  0.00    +0.000 C 
BRANCH  20  21
ATOM     21  C   UNL     1       1.389   3.250  20.821  0.00  0.00    +0.000 C 
BRANCH  21  22
ATOM     22  C   UNL     1       1.767   2.531  19.525  0.00  0.00    +0.000 C 
BRANCH  22  23
ATOM     23  C   UNL     1       3.066   1.714  19.618  0.00  0.00    +0.000 C 
ATOM     24  C   UNL     1       3.556   1.241  18.249  0.00  0.00    +0.000 C 
ATOM     25  C   UNL     1       4.153   2.555  20.292  0.00  0.00    +0.000 C 
ENDBRANCH  22  23
ENDBRANCH  21  22
ENDBRANCH  20  21
ENDBRANCH  18  20
ENDBRANCH  15  16
ENDBRANCH  14  15
ENDBRANCH  11  14
TORSDOF 8
ENDMDL
MODEL 9
REMARK VINA RESULT:      -6.6      1.996      2.553
REMARK  Name = 
REMARK  12 active torsions:
REMARK  status: ('A' for Active; 'I' for Inactive)
REMARK    1  A    between atoms: C_1  and  C_2
REMARK    2  A    between atoms: C_6  and  O_7
REMARK    3  A    between atoms: C_10  and  C_11
REMARK    4  A    between atoms: C_12  and  C_13
REMARK    5  A    between atoms: C_13  and  C_14
REMARK    6  A    between atoms: C_14  and  C_15
REMARK    7  A    between atoms: N_17  and  C_18
REMARK    8  A    between atoms: C_18  and  C_19
REMARK    9  A    between atoms: C_19  and  C_20
REMARK   10  A    between atoms: C_20  and  C_21
REMARK   11  A    between atoms: C_21  and  C_22
REMARK   12  A    between atoms: C_21  and  C_23
REMARK                            x       y       z     vdW  Elec       q    Type
REMARK                         _______ _______ _______ _____ _____    ______ ____
ROOT
ATOM      1  C   UNL     1       5.316   6.543  17.730  0.00  0.00    +0.000 C 
ATOM      2  C   UNL     1       4.548   5.397  18.344  0.00  0.00    +0.000 A 
ATOM      3  N   UNL     1       4.000   5.678  19.492  0.00  0.00    +0.000 NA
ATOM      4  C   UNL     1       3.293   4.700  20.101  0.00  0.00    +0.000 A 
ATOM      5  C   UNL     1       2.617   4.699  21.296  0.00  0.00    +0.000 A 
ATOM      6  C   UNL     1       2.100   3.414  21.382  0.00  0.00    +0.000 A 
ATOM      7  N   UNL     1       2.400   2.629  20.357  0.00  0.00    +0.000 NA
ATOM      8  N   UNL     1       3.146   3.425  19.542  0.00  0.00    +0.000 N 
ATOM      9  C   UNL     1       3.734   3.111  18.302  0.00  0.00    +0.000 A 
ATOM     10  C   UNL     1       3.505   1.722  17.769  0.00  0.00    +0.000 C 
ATOM     11  C   UNL     1       4.467   4.045  17.637  0.00  0.00    +0.000 A 
ENDROOT
BRANCH   6  12
ATOM     12  O   UNL     1       1.362   2.874  22.358  0.00  0.00    +0.000 OA
ATOM     13  H   UNL     1       0.555   3.400  22.474  0.00  0.00    +0.000 HD
ENDBRANCH   6  12
BRANCH  11  14
ATOM     14  C   UNL     1       5.058   3.800  16.259  0.00  0.00    +0.000 C 
BRANCH  14  15
ATOM     15  C   UNL     1       6.427   4.446  16.029  0.00  0.00    +0.000 C 
BRANCH  15  16
ATOM     16  C   UNL     1       6.812   4.504  14.556  0.00  0.00    +0.000 C 
ATOM     17  O   UNL     1       7.573   5.339  14.094  0.00  0.00    +0.000 OA
ATOM     18  N   UNL     1       6.193   3.507  13.825  0.00  0.00    +0.000 N 
ATOM     19  H   UNL     1       5.583   2.850  14.290  0.00  0.00    +0.000 HD
BRANCH  18  20
ATOM     20  C   UNL     1       6.405   3.352  12.401  0.00  0.00    +0.000 C 
BRANCH  20  21
ATOM     21  C   UNL     1       5.141   2.881  11.686  0.00  0.00    +0.000 C 
BRANCH  21  22
ATOM     22  C   UNL     1       4.258   4.078  11.331  0.00  0.00    +0.000 C 
BRANCH  22  23
ATOM     23  C   UNL     1       3.072   3.731  10.415  0.00  0.00    +0.000 C 
ATOM     24  C   UNL     1       2.972   4.669   9.212  0.00  0.00    +0.000 C 
ATOM     25  C   UNL     1       3.206   2.284   9.930  0.00  0.00    +0.000 C 
ENDBRANCH  22  23
ENDBRANCH  21  22
ENDBRANCH  20  21
ENDBRANCH  18  20
ENDBRANCH  15  16
ENDBRANCH  14  15
ENDBRANCH  11  14
TORSDOF 8
ENDMDL
