MODEL 1
REMARK VINA RESULT:      -7.5      0.000      0.000
REMARK  Name = 
REMARK  8 active torsions:
REMARK  status: ('A' for Active; 'I' for Inactive)
REMARK    1  A    between atoms: C_1  and  C_2
REMARK    2  A    between atoms: C_2  and  N_3
REMARK    3  A    between atoms: C_5  and  C_6
REMARK    4  A    between atoms: C_8  and  C_9
REMARK    5  A    between atoms: N_18  and  C_19
REMARK    6  A    between atoms: C_19  and  C_20
REMARK    7  A    between atoms: C_20  and  C_21
REMARK    8  A    between atoms: C_21  and  C_22
REMARK                            x       y       z     vdW  Elec       q    Type
REMARK                         _______ _______ _______ _____ _____    ______ ____
ROOT
ATOM      1  C   UNL     1      -5.700  11.634  17.778  0.00  0.00    +0.000 C 
ATOM      2  O   UNL     1      -6.272  12.321  16.935  0.00  0.00    +0.000 OA
ATOM      3  N   UNL     1      -4.362  11.308  17.659  0.00  0.00    +0.000 N 
ATOM      4  C   UNL     1      -3.595  11.649  16.482  0.00  0.00    +0.000 C 
ATOM      5  C   UNL     1      -2.150  11.290  16.802  0.00  0.00    +0.000 C 
ATOM      6  C   UNL     1      -2.087  11.128  18.339  0.00  0.00    +0.000 C 
ATOM      7  C   UNL     1      -1.608  12.409  19.047  0.00  0.00    +0.000 C 
ATOM      8  C   UNL     1      -0.112  12.638  18.831  0.00  0.00    +0.000 C 
ATOM      9  C   UNL     1       0.712  11.388  19.160  0.00  0.00    +0.000 C 
ATOM     10  N   UNL     1       0.223  10.196  18.447  0.00  0.00    +0.000 NA
ATOM     11  C   UNL     1      -1.189   9.957  18.761  0.00  0.00    +0.000 C 
ATOM     12  C   UNL     1      -3.530  10.792  18.725  0.00  0.00    +0.000 C 
ENDROOT
BRANCH   1  18
ATOM     13  N   UNL     1      -6.613  11.892  20.090  0.00  0.00    +0.000 N 
ATOM     14  N   UNL     1      -7.169  11.174  21.093  0.00  0.00    +0.000 NA
ATOM     15  C   UNL     1      -7.339   9.956  20.570  0.00  0.00    +0.000 A 
ATOM     16  C   UNL     1      -7.915   8.844  21.362  0.00  0.00    +0.000 C 
ATOM     17  C   UNL     1      -6.882   9.898  19.241  0.00  0.00    +0.000 A 
ATOM     18  C   UNL     1      -6.365  11.151  18.963  0.00  0.00    +0.000 A 
BRANCH  13  20
ATOM     19  C   UNL     1      -5.586  13.442  21.716  0.00  0.00    +0.000 C 
ATOM     20  C   UNL     1      -6.212  13.264  20.346  0.00  0.00    +0.000 C 
ENDBRANCH  13  20
ENDBRANCH   1  18
BRANCH  10  21
ATOM     21  C   UNL     1       1.049   9.019  18.783  0.00  0.00    +0.000 C 
BRANCH  21  22
ATOM     22  C   UNL     1       1.952   8.523  17.640  0.00  0.00    +0.000 C 
BRANCH  22  23
ATOM     23  C   UNL     1       3.025   7.541  18.116  0.00  0.00    +0.000 C 
BRANCH  23  24
ATOM     24  C   UNL     1       2.412   6.278  18.669  0.00  0.00    +0.000 A 
ATOM     25  C   UNL     1       2.182   6.142  20.043  0.00  0.00    +0.000 A 
ATOM     26  C   UNL     1       1.620   4.972  20.554  0.00  0.00    +0.000 A 
ATOM     27  C   UNL     1       1.291   3.925  19.696  0.00  0.00    +0.000 A 
ATOM     28  C   UNL     1       1.524   4.048  18.329  0.00  0.00    +0.000 A 
ATOM     29  C   UNL     1       2.085   5.217  17.814  0.00  0.00    +0.000 A 
ENDBRANCH  23  24
ENDBRANCH  22  23
ENDBRANCH  21  22
ENDBRANCH  10  21
TORSDOF 6
ENDMDL
MODEL 2
REMARK VINA RESULT:      -7.4      1.246      2.433
REMARK  Name = 
REMARK  8 active torsions:
REMARK  status: ('A' for Active; 'I' for Inactive)
REMARK    1  A    between atoms: C_1  and  C_2
REMARK    2  A    between atoms: C_2  and  N_3
REMARK    3  A    between atoms: C_5  and  C_6
REMARK    4  A    between atoms: C_8  and  C_9
REMARK    5  A    between atoms: N_18  and  C_19
REMARK    6  A    between atoms: C_19  and  C_20
REMARK    7  A    between atoms: C_20  and  C_21
REMARK    8  A    between atoms: C_21  and  C_22
REMARK                            x       y       z     vdW  Elec       q    Type
REMARK                         _______ _______ _______ _____ _____    ______ ____
ROOT
ATOM      1  C   UNL     1      -4.859  11.824  17.722  0.00  0.00    +0.000 C 
ATOM      2  O   UNL     1      -5.271  12.055  16.588  0.00  0.00    +0.000 OA
ATOM      3  N   UNL     1      -3.607  11.278  17.939  0.00  0.00    +0.000 N 
ATOM      4  C   UNL     1      -2.768  10.835  16.849  0.00  0.00    +0.000 C 
ATOM      5  C   UNL     1      -1.426  10.472  17.471  0.00  0.00    +0.000 C 
ATOM      6  C   UNL     1      -1.423  11.122  18.875  0.00  0.00    +0.000 C 
ATOM      7  C   UNL     1      -0.717  12.491  18.889  0.00  0.00    +0.000 C 
ATOM      8  C   UNL     1       0.798  12.337  18.761  0.00  0.00    +0.000 C 
ATOM      9  C   UNL     1       1.358  11.327  19.769  0.00  0.00    +0.000 C 
ATOM     10  N   UNL     1       0.659  10.031  19.705  0.00  0.00    +0.000 NA
ATOM     11  C   UNL     1      -0.777  10.215  19.931  0.00  0.00    +0.000 C 
ATOM     12  C   UNL     1      -2.910  11.266  19.208  0.00  0.00    +0.000 C 
ENDROOT
BRANCH   1  18
ATOM     13  N   UNL     1      -6.512  11.288  19.518  0.00  0.00    +0.000 N 
ATOM     14  N   UNL     1      -7.169  11.859  20.554  0.00  0.00    +0.000 NA
ATOM     15  C   UNL     1      -6.644  13.085  20.642  0.00  0.00    +0.000 A 
ATOM     16  C   UNL     1      -7.109  14.059  21.656  0.00  0.00    +0.000 C 
ATOM     17  C   UNL     1      -5.661  13.295  19.657  0.00  0.00    +0.000 A 
ATOM     18  C   UNL     1      -5.626  12.136  18.902  0.00  0.00    +0.000 A 
BRANCH  13  20
ATOM     19  C   UNL     1      -7.378   9.088  20.232  0.00  0.00    +0.000 C 
ATOM     20  C   UNL     1      -6.900   9.958  19.085  0.00  0.00    +0.000 C 
ENDBRANCH  13  20
ENDBRANCH   1  18
BRANCH  10  21
ATOM     21  C   UNL     1       1.235   9.086  20.682  0.00  0.00    +0.000 C 
BRANCH  21  22
ATOM     22  C   UNL     1       1.878   7.835  20.060  0.00  0.00    +0.000 C 
BRANCH  22  23
ATOM     23  C   UNL     1       2.220   8.017  18.579  0.00  0.00    +0.000 C 
BRANCH  23  24
ATOM     24  C   UNL     1       2.921   6.805  18.020  0.00  0.00    +0.000 A 
ATOM     25  C   UNL     1       2.351   5.532  18.146  0.00  0.00    +0.000 A 
ATOM     26  C   UNL     1       3.004   4.410  17.632  0.00  0.00    +0.000 A 
ATOM     27  C   UNL     1       4.234   4.551  16.996  0.00  0.00    +0.000 A 
ATOM     28  C   UNL     1       4.813   5.811  16.874  0.00  0.00    +0.000 A 
ATOM     29  C   UNL     1       4.163   6.936  17.384  0.00  0.00    +0.000 A 
ENDBRANCH  23  24
ENDBRANCH  22  23
ENDBRANCH  21  22
ENDBRANCH  10  21
TORSDOF 6
ENDMDL
MODEL 3
REMARK VINA RESULT:      -7.3      4.396      7.127
REMARK  Name = 
REMARK  8 active torsions:
REMARK  status: ('A' for Active; 'I' for Inactive)
REMARK    1  A    between atoms: C_1  and  C_2
REMARK    2  A    between atoms: C_2  and  N_3
REMARK    3  A    between atoms: C_5  and  C_6
REMARK    4  A    between atoms: C_8  and  C_9
REMARK    5  A    between atoms: N_18  and  C_19
REMARK    6  A    between atoms: C_19  and  C_20
REMARK    7  A    between atoms: C_20  and  C_21
REMARK    8  A    between atoms: C_21  and  C_22
REMARK                            x       y       z     vdW  Elec       q    Type
REMARK                         _______ _______ _______ _____ _____    ______ ____
ROOT
ATOM      1  C   UNL     1       1.877  15.650  20.263  0.00  0.00    +0.000 C 
ATOM      2  O   UNL     1       1.850  16.189  21.367  0.00  0.00    +0.000 OA
ATOM      3  N   UNL     1       1.807  14.276  20.126  0.00  0.00    +0.000 N 
ATOM      4  C   UNL     1       1.822  13.394  21.271  0.00  0.00    +0.000 C 
ATOM      5  C   UNL     1       1.550  11.996  20.730  0.00  0.00    +0.000 C 
ATOM      6  C   UNL     1       0.974  12.200  19.308  0.00  0.00    +0.000 C 
ATOM      7  C   UNL     1      -0.566  12.180  19.288  0.00  0.00    +0.000 C 
ATOM      8  C   UNL     1      -1.106  10.766  19.497  0.00  0.00    +0.000 C 
ATOM      9  C   UNL     1      -0.448   9.755  18.551  0.00  0.00    +0.000 C 
ATOM     10  N   UNL     1       1.022   9.805  18.619  0.00  0.00    +0.000 NA
ATOM     11  C   UNL     1       1.502  11.156  18.315  0.00  0.00    +0.000 C 
ATOM     12  C   UNL     1       1.513  13.573  18.896  0.00  0.00    +0.000 C 
ENDROOT
BRANCH   1  18
ATOM     13  N   UNL     1       3.092  16.649  18.321  0.00  0.00    +0.000 N 
ATOM     14  N   UNL     1       2.898  17.460  17.256  0.00  0.00    +0.000 NA
ATOM     15  C   UNL     1       1.581  17.690  17.254  0.00  0.00    +0.000 A 
ATOM     16  C   UNL     1       0.946  18.564  16.241  0.00  0.00    +0.000 C 
ATOM     17  C   UNL     1       0.943  17.033  18.322  0.00  0.00    +0.000 A 
ATOM     18  C   UNL     1       1.948  16.404  19.036  0.00  0.00    +0.000 A 
BRANCH  13  20
ATOM     19  C   UNL     1       4.838  14.915  18.101  0.00  0.00    +0.000 C 
ATOM     20  C   UNL     1       4.447  16.264  18.673  0.00  0.00    +0.000 C 
ENDBRANCH  13  20
ENDBRANCH   1  18
BRANCH  10  21
ATOM     21  C   UNL     1       1.615   8.811  17.703  0.00  0.00    +0.000 C 
BRANCH  21  22
ATOM     22  C   UNL     1       2.843   8.074  18.264  0.00  0.00    +0.000 C 
BRANCH  22  23
ATOM     23  C   UNL     1       3.023   6.677  17.665  0.00  0.00    +0.000 C 
BRANCH  23  24
ATOM     24  C   UNL     1       2.351   5.623  18.508  0.00  0.00    +0.000 A 
ATOM     25  C   UNL     1       2.251   5.780  19.897  0.00  0.00    +0.000 A 
ATOM     26  C   UNL     1       1.634   4.801  20.676  0.00  0.00    +0.000 A 
ATOM     27  C   UNL     1       1.118   3.655  20.076  0.00  0.00    +0.000 A 
ATOM     28  C   UNL     1       1.220   3.487  18.698  0.00  0.00    +0.000 A 
ATOM     29  C   UNL     1       1.835   4.464  17.914  0.00  0.00    +0.000 A 
ENDBRANCH  23  24
ENDBRANCH  22  23
ENDBRANCH  21  22
ENDBRANCH  10  21
TORSDOF 6
ENDMDL
MODEL 4
REMARK VINA RESULT:      -7.3      2.968      4.240
REMARK  Name = 
REMARK  8 active torsions:
REMARK  status: ('A' for Active; 'I' for Inactive)
REMARK    1  A    between atoms: C_1  and  C_2
REMARK    2  A    between atoms: C_2  and  N_3
REMARK    3  A    between atoms: C_5  and  C_6
REMARK    4  A    between atoms: C_8  and  C_9
REMARK    5  A    between atoms: N_18  and  C_19
REMARK    6  A    between atoms: C_19  and  C_20
REMARK    7  A    between atoms: C_20  and  C_21
REMARK    8  A    between atoms: C_21  and  C_22
REMARK                            x       y       z     vdW  Elec       q    Type
REMARK                         _______ _______ _______ _____ _____    ______ ____
ROOT
ATOM      1  C   UNL     1      -2.024  13.700  21.822  0.00  0.00    +0.000 C 
ATOM      2  O   UNL     1      -1.714  14.691  22.479  0.00  0.00    +0.000 OA
ATOM      3  N   UNL     1      -1.067  12.882  21.250  0.00  0.00    +0.000 N 
ATOM      4  C   UNL     1       0.339  13.211  21.288  0.00  0.00    +0.000 C 
ATOM      5  C   UNL     1       1.071  12.000  20.725  0.00  0.00    +0.000 C 
ATOM      6  C   UNL     1       0.052  10.836  20.764  0.00  0.00    +0.000 C 
ATOM      7  C   UNL     1       0.202   9.964  22.024  0.00  0.00    +0.000 C 
ATOM      8  C   UNL     1       1.459   9.097  21.953  0.00  0.00    +0.000 C 
ATOM      9  C   UNL     1       1.546   8.322  20.633  0.00  0.00    +0.000 C 
ATOM     10  N   UNL     1       1.411   9.203  19.461  0.00  0.00    +0.000 NA
ATOM     11  C   UNL     1       0.147   9.942  19.521  0.00  0.00    +0.000 C 
ATOM     12  C   UNL     1      -1.305  11.546  20.745  0.00  0.00    +0.000 C 
ENDROOT
BRANCH   1  18
ATOM     13  N   UNL     1      -4.186  12.696  22.575  0.00  0.00    +0.000 N 
ATOM     14  N   UNL     1      -5.404  12.339  22.109  0.00  0.00    +0.000 NA
ATOM     15  C   UNL     1      -5.417  12.782  20.848  0.00  0.00    +0.000 A 
ATOM     16  C   UNL     1      -6.586  12.573  19.962  0.00  0.00    +0.000 C 
ATOM     17  C   UNL     1      -4.203  13.410  20.511  0.00  0.00    +0.000 A 
ATOM     18  C   UNL     1      -3.396  13.298  21.629  0.00  0.00    +0.000 A 
BRANCH  13  20
ATOM     19  C   UNL     1      -4.959  12.308  24.889  0.00  0.00    +0.000 C 
ATOM     20  C   UNL     1      -3.797  12.289  23.914  0.00  0.00    +0.000 C 
ENDBRANCH  13  20
ENDBRANCH   1  18
BRANCH  10  21
ATOM     21  C   UNL     1       1.512   8.421  18.213  0.00  0.00    +0.000 C 
BRANCH  21  22
ATOM     22  C   UNL     1       2.911   7.846  17.928  0.00  0.00    +0.000 C 
BRANCH  22  23
ATOM     23  C   UNL     1       2.919   6.318  17.848  0.00  0.00    +0.000 C 
BRANCH  23  24
ATOM     24  C   UNL     1       4.236   5.799  17.328  0.00  0.00    +0.000 A 
ATOM     25  C   UNL     1       5.363   6.630  17.287  0.00  0.00    +0.000 A 
ATOM     26  C   UNL     1       6.579   6.150  16.802  0.00  0.00    +0.000 A 
ATOM     27  C   UNL     1       6.678   4.838  16.346  0.00  0.00    +0.000 A 
ATOM     28  C   UNL     1       5.562   4.007  16.374  0.00  0.00    +0.000 A 
ATOM     29  C   UNL     1       4.344   4.482  16.861  0.00  0.00    +0.000 A 
ENDBRANCH  23  24
ENDBRANCH  22  23
ENDBRANCH  21  22
ENDBRANCH  10  21
TORSDOF 6
ENDMDL
MODEL 5
REMARK VINA RESULT:      -7.2      0.732      1.766
REMARK  Name = 
REMARK  8 active torsions:
REMARK  status: ('A' for Active; 'I' for Inactive)
REMARK    1  A    between atoms: C_1  and  C_2
REMARK    2  A    between atoms: C_2  and  N_3
REMARK    3  A    between atoms: C_5  and  C_6
REMARK    4  A    between atoms: C_8  and  C_9
REMARK    5  A    between atoms: N_18  and  C_19
REMARK    6  A    between atoms: C_19  and  C_20
REMARK    7  A    between atoms: C_20  and  C_21
REMARK    8  A    between atoms: C_21  and  C_22
REMARK                            x       y       z     vdW  Elec       q    Type
REMARK                         _______ _______ _______ _____ _____    ______ ____
ROOT
ATOM      1  C   UNL     1      -5.489  12.044  18.033  0.00  0.00    +0.000 C 
ATOM      2  O   UNL     1      -6.093  12.512  17.071  0.00  0.00    +0.000 OA
ATOM      3  N   UNL     1      -4.202  11.553  17.911  0.00  0.00    +0.000 N 
ATOM      4  C   UNL     1      -3.544  11.450  16.629  0.00  0.00    +0.000 C 
ATOM      5  C   UNL     1      -2.106  11.044  16.925  0.00  0.00    +0.000 C 
ATOM      6  C   UNL     1      -1.888  11.333  18.429  0.00  0.00    +0.000 C 
ATOM      7  C   UNL     1      -1.234  12.705  18.677  0.00  0.00    +0.000 C 
ATOM      8  C   UNL     1       0.242  12.696  18.283  0.00  0.00    +0.000 C 
ATOM      9  C   UNL     1       0.995  11.515  18.906  0.00  0.00    +0.000 C 
ATOM     10  N   UNL     1       0.337  10.227  18.628  0.00  0.00    +0.000 NA
ATOM     11  C   UNL     1      -1.047  10.246  19.111  0.00  0.00    +0.000 C 
ATOM     12  C   UNL     1      -3.303  11.284  19.012  0.00  0.00    +0.000 C 
ENDROOT
BRANCH   1  18
ATOM     13  N   UNL     1      -6.660  10.912  19.928  0.00  0.00    +0.000 N 
ATOM     14  N   UNL     1      -7.192  11.167  21.146  0.00  0.00    +0.000 NA
ATOM     15  C   UNL     1      -6.866  12.441  21.387  0.00  0.00    +0.000 A 
ATOM     16  C   UNL     1      -7.281  13.127  22.632  0.00  0.00    +0.000 C 
ATOM     17  C   UNL     1      -6.136  12.995  20.319  0.00  0.00    +0.000 A 
ATOM     18  C   UNL     1      -6.058  12.004  19.358  0.00  0.00    +0.000 A 
BRANCH  13  20
ATOM     19  C   UNL     1      -7.445   8.598  20.292  0.00  0.00    +0.000 C 
ATOM     20  C   UNL     1      -6.903   9.620  19.311  0.00  0.00    +0.000 C 
ENDBRANCH  13  20
ENDBRANCH   1  18
BRANCH  10  21
ATOM     21  C   UNL     1       1.098   9.117  19.235  0.00  0.00    +0.000 C 
BRANCH  21  22
ATOM     22  C   UNL     1       2.423   8.786  18.527  0.00  0.00    +0.000 C 
BRANCH  22  23
ATOM     23  C   UNL     1       2.321   7.552  17.627  0.00  0.00    +0.000 C 
BRANCH  23  24
ATOM     24  C   UNL     1       2.177   6.288  18.436  0.00  0.00    +0.000 A 
ATOM     25  C   UNL     1       2.518   6.269  19.794  0.00  0.00    +0.000 A 
ATOM     26  C   UNL     1       2.389   5.098  20.541  0.00  0.00    +0.000 A 
ATOM     27  C   UNL     1       1.926   3.933  19.934  0.00  0.00    +0.000 A 
ATOM     28  C   UNL     1       1.593   3.939  18.583  0.00  0.00    +0.000 A 
ATOM     29  C   UNL     1       1.718   5.109  17.833  0.00  0.00    +0.000 A 
ENDBRANCH  23  24
ENDBRANCH  22  23
ENDBRANCH  21  22
ENDBRANCH  10  21
TORSDOF 6
ENDMDL
MODEL 6
REMARK VINA RESULT:      -7.2      4.540     10.587
REMARK  Name = 
REMARK  8 active torsions:
REMARK  status: ('A' for Active; 'I' for Inactive)
REMARK    1  A    between atoms: C_1  and  C_2
REMARK    2  A    between atoms: C_2  and  N_3
REMARK    3  A    between atoms: C_5  and  C_6
REMARK    4  A    between atoms: C_8  and  C_9
REMARK    5  A    between atoms: N_18  and  C_19
REMARK    6  A    between atoms: C_19  and  C_20
REMARK    7  A    between atoms: C_20  and  C_21
REMARK    8  A    between atoms: C_21  and  C_22
REMARK                            x       y       z     vdW  Elec       q    Type
REMARK                         _______ _______ _______ _____ _____    ______ ____
ROOT
ATOM      1  C   UNL     1       4.139   3.634  16.921  0.00  0.00    +0.000 C 
ATOM      2  O   UNL     1       3.896   2.446  17.124  0.00  0.00    +0.000 OA
ATOM      3  N   UNL     1       3.246   4.626  17.280  0.00  0.00    +0.000 N 
ATOM      4  C   UNL     1       1.933   4.320  17.799  0.00  0.00    +0.000 C 
ATOM      5  C   UNL     1       1.333   5.649  18.239  0.00  0.00    +0.000 C 
ATOM      6  C   UNL     1       2.520   6.638  18.328  0.00  0.00    +0.000 C 
ATOM      7  C   UNL     1       3.078   6.761  19.758  0.00  0.00    +0.000 C 
ATOM      8  C   UNL     1       2.126   7.544  20.661  0.00  0.00    +0.000 C 
ATOM      9  C   UNL     1       1.704   8.877  20.030  0.00  0.00    +0.000 C 
ATOM     10  N   UNL     1       1.164   8.702  18.671  0.00  0.00    +0.000 NA
ATOM     11  C   UNL     1       2.149   8.035  17.813  0.00  0.00    +0.000 C 
ATOM     12  C   UNL     1       3.561   6.036  17.381  0.00  0.00    +0.000 C 
ENDROOT
BRANCH   1  18
ATOM     13  N   UNL     1       6.489   4.477  17.028  0.00  0.00    +0.000 N 
ATOM     14  N   UNL     1       7.484   4.937  16.234  0.00  0.00    +0.000 NA
ATOM     15  C   UNL     1       7.019   4.769  14.992  0.00  0.00    +0.000 A 
ATOM     16  C   UNL     1       7.809   5.170  13.806  0.00  0.00    +0.000 C 
ATOM     17  C   UNL     1       5.726   4.214  14.999  0.00  0.00    +0.000 A 
ATOM     18  C   UNL     1       5.377   4.080  16.331  0.00  0.00    +0.000 A 
BRANCH  13  20
ATOM     19  C   UNL     1       7.477   5.779  18.880  0.00  0.00    +0.000 C 
ATOM     20  C   UNL     1       6.629   4.590  18.468  0.00  0.00    +0.000 C 
ENDBRANCH  13  20
ENDBRANCH   1  18
BRANCH  10  21
ATOM     21  C   UNL     1       0.762  10.005  18.105  0.00  0.00    +0.000 C 
BRANCH  21  22
ATOM     22  C   UNL     1      -0.311  10.751  18.917  0.00  0.00    +0.000 C 
BRANCH  22  23
ATOM     23  C   UNL     1      -1.655  10.019  18.938  0.00  0.00    +0.000 C 
BRANCH  23  24
ATOM     24  C   UNL     1      -2.482  10.345  17.720  0.00  0.00    +0.000 A 
ATOM     25  C   UNL     1      -3.554  11.242  17.806  0.00  0.00    +0.000 A 
ATOM     26  C   UNL     1      -4.321  11.538  16.679  0.00  0.00    +0.000 A 
ATOM     27  C   UNL     1      -4.028  10.935  15.459  0.00  0.00    +0.000 A 
ATOM     28  C   UNL     1      -2.970  10.035  15.365  0.00  0.00    +0.000 A 
ATOM     29  C   UNL     1      -2.199   9.737  16.489  0.00  0.00    +0.000 A 
ENDBRANCH  23  24
ENDBRANCH  22  23
ENDBRANCH  21  22
ENDBRANCH  10  21
TORSDOF 6
ENDMDL
MODEL 7
REMARK VINA RESULT:      -7.1      2.021      3.727
REMARK  Name = 
REMARK  8 active torsions:
REMARK  status: ('A' for Active; 'I' for Inactive)
REMARK    1  A    between atoms: C_1  and  C_2
REMARK    2  A    between atoms: C_2  and  N_3
REMARK    3  A    between atoms: C_5  and  C_6
REMARK    4  A    between atoms: C_8  and  C_9
REMARK    5  A    between atoms: N_18  and  C_19
REMARK    6  A    between atoms: C_19  and  C_20
REMARK    7  A    between atoms: C_20  and  C_21
REMARK    8  A    between atoms: C_21  and  C_22
REMARK                            x       y       z     vdW  Elec       q    Type
REMARK                         _______ _______ _______ _____ _____    ______ ____
ROOT
ATOM      1  C   UNL     1      -2.331  12.566  19.459  0.00  0.00    +0.000 C 
ATOM      2  O   UNL     1      -2.370  13.634  20.065  0.00  0.00    +0.000 OA
ATOM      3  N   UNL     1      -1.154  11.853  19.326  0.00  0.00    +0.000 N 
ATOM      4  C   UNL     1       0.112  12.379  19.780  0.00  0.00    +0.000 C 
ATOM      5  C   UNL     1       1.119  11.246  19.626  0.00  0.00    +0.000 C 
ATOM      6  C   UNL     1       0.279   9.956  19.463  0.00  0.00    +0.000 C 
ATOM      7  C   UNL     1       0.092   9.204  20.794  0.00  0.00    +0.000 C 
ATOM      8  C   UNL     1       1.385   8.519  21.233  0.00  0.00    +0.000 C 
ATOM      9  C   UNL     1       1.996   7.674  20.109  0.00  0.00    +0.000 C 
ATOM     10  N   UNL     1       2.168   8.443  18.865  0.00  0.00    +0.000 NA
ATOM     11  C   UNL     1       0.884   8.999  18.428  0.00  0.00    +0.000 C 
ATOM     12  C   UNL     1      -1.060  10.465  18.925  0.00  0.00    +0.000 C 
ENDROOT
BRANCH   1  18
ATOM     13  N   UNL     1      -3.609  11.514  17.587  0.00  0.00    +0.000 N 
ATOM     14  N   UNL     1      -4.849  11.076  17.268  0.00  0.00    +0.000 NA
ATOM     15  C   UNL     1      -5.540  11.189  18.406  0.00  0.00    +0.000 A 
ATOM     16  C   UNL     1      -6.973  10.823  18.485  0.00  0.00    +0.000 C 
ATOM     17  C   UNL     1      -4.743  11.708  19.443  0.00  0.00    +0.000 A 
ATOM     18  C   UNL     1      -3.506  11.963  18.878  0.00  0.00    +0.000 A 
BRANCH  13  20
ATOM     19  C   UNL     1      -2.869  10.651  15.394  0.00  0.00    +0.000 C 
ATOM     20  C   UNL     1      -2.605  11.607  16.541  0.00  0.00    +0.000 C 
ENDBRANCH  13  20
ENDBRANCH   1  18
BRANCH  10  21
ATOM     21  C   UNL     1       2.768   7.597  17.814  0.00  0.00    +0.000 C 
BRANCH  21  22
ATOM     22  C   UNL     1       3.638   6.443  18.341  0.00  0.00    +0.000 C 
BRANCH  22  23
ATOM     23  C   UNL     1       3.213   5.080  17.791  0.00  0.00    +0.000 C 
BRANCH  23  24
ATOM     24  C   UNL     1       2.512   4.254  18.840  0.00  0.00    +0.000 A 
ATOM     25  C   UNL     1       1.364   3.519  18.518  0.00  0.00    +0.000 A 
ATOM     26  C   UNL     1       0.714   2.759  19.492  0.00  0.00    +0.000 A 
ATOM     27  C   UNL     1       1.201   2.735  20.796  0.00  0.00    +0.000 A 
ATOM     28  C   UNL     1       2.336   3.469  21.128  0.00  0.00    +0.000 A 
ATOM     29  C   UNL     1       2.991   4.229  20.157  0.00  0.00    +0.000 A 
ENDBRANCH  23  24
ENDBRANCH  22  23
ENDBRANCH  21  22
ENDBRANCH  10  21
TORSDOF 6
ENDMDL
MODEL 8
REMARK VINA RESULT:      -6.9      4.249      6.880
REMARK  Name = 
REMARK  8 active torsions:
REMARK  status: ('A' for Active; 'I' for Inactive)
REMARK    1  A    between atoms: C_1  and  C_2
REMARK    2  A    between atoms: C_2  and  N_3
REMARK    3  A    between atoms: C_5  and  C_6
REMARK    4  A    between atoms: C_8  and  C_9
REMARK    5  A    between atoms: N_18  and  C_19
REMARK    6  A    between atoms: C_19  and  C_20
REMARK    7  A    between atoms: C_20  and  C_21
REMARK    8  A    between atoms: C_21  and  C_22
REMARK                            x       y       z     vdW  Elec       q    Type
REMARK                         _______ _______ _______ _____ _____    ______ ____
ROOT
ATOM      1  C   UNL     1       0.354  15.529  20.611  0.00  0.00    +0.000 C 
ATOM      2  O   UNL     1      -0.199  15.970  21.615  0.00  0.00    +0.000 OA
ATOM      3  N   UNL     1       0.507  14.170  20.407  0.00  0.00    +0.000 N 
ATOM      4  C   UNL     1       0.138  13.201  21.414  0.00  0.00    +0.000 C 
ATOM      5  C   UNL     1       0.283  11.834  20.757  0.00  0.00    +0.000 C 
ATOM      6  C   UNL     1       0.343  12.103  19.235  0.00  0.00    +0.000 C 
ATOM      7  C   UNL     1      -1.031  11.949  18.555  0.00  0.00    +0.000 C 
ATOM      8  C   UNL     1      -1.442  10.480  18.460  0.00  0.00    +0.000 C 
ATOM      9  C   UNL     1      -0.335   9.613  17.851  0.00  0.00    +0.000 C 
ATOM     10  N   UNL     1       0.953   9.786  18.545  0.00  0.00    +0.000 NA
ATOM     11  C   UNL     1       1.357  11.196  18.526  0.00  0.00    +0.000 C 
ATOM     12  C   UNL     1       0.843  13.547  19.144  0.00  0.00    +0.000 C 
ENDROOT
BRANCH   1  18
ATOM     13  N   UNL     1       2.143  16.825  19.442  0.00  0.00    +0.000 N 
ATOM     14  N   UNL     1       2.323  17.692  18.419  0.00  0.00    +0.000 NA
ATOM     15  C   UNL     1       1.124  17.760  17.830  0.00  0.00    +0.000 A 
ATOM     16  C   UNL     1       0.883  18.631  16.657  0.00  0.00    +0.000 C 
ATOM     17  C   UNL     1       0.183  16.944  18.485  0.00  0.00    +0.000 A 
ATOM     18  C   UNL     1       0.849  16.385  19.561  0.00  0.00    +0.000 A 
BRANCH  13  20
ATOM     19  C   UNL     1       4.031  15.334  20.001  0.00  0.00    +0.000 C 
ATOM     20  C   UNL     1       3.242  16.579  20.358  0.00  0.00    +0.000 C 
ENDBRANCH  13  20
ENDBRANCH   1  18
BRANCH  10  21
ATOM     21  C   UNL     1       1.987   8.928  17.935  0.00  0.00    +0.000 C 
BRANCH  21  22
ATOM     22  C   UNL     1       2.370   7.694  18.771  0.00  0.00    +0.000 C 
BRANCH  22  23
ATOM     23  C   UNL     1       2.822   6.512  17.910  0.00  0.00    +0.000 C 
BRANCH  23  24
ATOM     24  C   UNL     1       4.308   6.282  18.024  0.00  0.00    +0.000 A 
ATOM     25  C   UNL     1       4.826   5.461  19.035  0.00  0.00    +0.000 A 
ATOM     26  C   UNL     1       6.201   5.253  19.142  0.00  0.00    +0.000 A 
ATOM     27  C   UNL     1       7.071   5.869  18.246  0.00  0.00    +0.000 A 
ATOM     28  C   UNL     1       6.566   6.693  17.243  0.00  0.00    +0.000 A 
ATOM     29  C   UNL     1       5.191   6.902  17.131  0.00  0.00    +0.000 A 
ENDBRANCH  23  24
ENDBRANCH  22  23
ENDBRANCH  21  22
ENDBRANCH  10  21
TORSDOF 6
ENDMDL
MODEL 9
REMARK VINA RESULT:      -6.9      4.079      6.822
REMARK  Name = 
REMARK  8 active torsions:
REMARK  status: ('A' for Active; 'I' for Inactive)
REMARK    1  A    between atoms: C_1  and  C_2
REMARK    2  A    between atoms: C_2  and  N_3
REMARK    3  A    between atoms: C_5  and  C_6
REMARK    4  A    between atoms: C_8  and  C_9
REMARK    5  A    between atoms: N_18  and  C_19
REMARK    6  A    between atoms: C_19  and  C_20
REMARK    7  A    between atoms: C_20  and  C_21
REMARK    8  A    between atoms: C_21  and  C_22
REMARK                            x       y       z     vdW  Elec       q    Type
REMARK                         _______ _______ _______ _____ _____    ______ ____
ROOT
ATOM      1  C   UNL     1       0.994  15.042  21.806  0.00  0.00    +0.000 C 
ATOM      2  O   UNL     1       0.397  15.437  22.805  0.00  0.00    +0.000 OA
ATOM      3  N   UNL     1       0.815  13.762  21.315  0.00  0.00    +0.000 N 
ATOM      4  C   UNL     1       0.015  12.782  22.014  0.00  0.00    +0.000 C 
ATOM      5  C   UNL     1      -0.087  11.581  21.084  0.00  0.00    +0.000 C 
ATOM      6  C   UNL     1       0.333  12.094  19.685  0.00  0.00    +0.000 C 
ATOM      7  C   UNL     1      -0.875  12.489  18.816  0.00  0.00    +0.000 C 
ATOM      8  C   UNL     1      -1.638  11.257  18.331  0.00  0.00    +0.000 C 
ATOM      9  C   UNL     1      -0.707  10.223  17.687  0.00  0.00    +0.000 C 
ATOM     10  N   UNL     1       0.422   9.869  18.564  0.00  0.00    +0.000 NA
ATOM     11  C   UNL     1       1.184  11.069  18.925  0.00  0.00    +0.000 C 
ATOM     12  C   UNL     1       1.208  13.311  19.998  0.00  0.00    +0.000 C 
ENDROOT
BRANCH   1  18
ATOM     13  N   UNL     1       1.510  16.820  20.127  0.00  0.00    +0.000 N 
ATOM     14  N   UNL     1       2.553  17.413  19.502  0.00  0.00    +0.000 NA
ATOM     15  C   UNL     1       3.632  16.889  20.093  0.00  0.00    +0.000 A 
ATOM     16  C   UNL     1       5.004  17.265  19.682  0.00  0.00    +0.000 C 
ATOM     17  C   UNL     1       3.273  15.957  21.085  0.00  0.00    +0.000 A 
ATOM     18  C   UNL     1       1.892  15.887  21.057  0.00  0.00    +0.000 A 
BRANCH  13  20
ATOM     19  C   UNL     1       0.068  17.189  18.156  0.00  0.00    +0.000 C 
ATOM     20  C   UNL     1       0.162  17.102  19.668  0.00  0.00    +0.000 C 
ENDBRANCH  13  20
ENDBRANCH   1  18
BRANCH  10  21
ATOM     21  C   UNL     1       1.287   8.866  17.912  0.00  0.00    +0.000 C 
BRANCH  21  22
ATOM     22  C   UNL     1       2.215   8.101  18.871  0.00  0.00    +0.000 C 
BRANCH  22  23
ATOM     23  C   UNL     1       2.831   6.854  18.232  0.00  0.00    +0.000 C 
BRANCH  23  24
ATOM     24  C   UNL     1       2.198   5.591  18.759  0.00  0.00    +0.000 A 
ATOM     25  C   UNL     1       1.840   4.556  17.886  0.00  0.00    +0.000 A 
ATOM     26  C   UNL     1       1.249   3.390  18.375  0.00  0.00    +0.000 A 
ATOM     27  C   UNL     1       1.004   3.253  19.739  0.00  0.00    +0.000 A 
ATOM     28  C   UNL     1       1.348   4.280  20.614  0.00  0.00    +0.000 A 
ATOM     29  C   UNL     1       1.941   5.447  20.129  0.00  0.00    +0.000 A 
ENDBRANCH  23  24
ENDBRANCH  22  23
ENDBRANCH  21  22
ENDBRANCH  10  21
TORSDOF 6
ENDMDL
