MODEL 1
REMARK VINA RESULT:      -8.1      0.000      0.000
REMARK  Name = 
REMARK  6 active torsions:
REMARK  status: ('A' for Active; 'I' for Inactive)
REMARK    1  A    between atoms: C_2  and  O_3
REMARK    2  A    between atoms: C_2  and  C_4
REMARK    3  A    between atoms: C_4  and  S_5
REMARK    4  A    between atoms: S_5  and  C_6
REMARK    5  A    between atoms: C_8  and  C_9
REMARK    6  A    between atoms: C_15  and  C_16
REMARK                            x       y       z     vdW  Elec       q    Type
REMARK                         _______ _______ _______ _____ _____    ______ ____
ROOT
ATOM      1  C   UNL     1       5.238   5.697  17.311  0.00  0.00    +0.000 A 
ATOM      2  N   UNL     1       4.543   4.655  17.691  0.00  0.00    +0.000 NA
ATOM      3  C   UNL     1       3.417   5.193  18.301  0.00  0.00    +0.000 A 
ATOM      4  C   UNL     1       3.400   6.583  18.186  0.00  0.00    +0.000 A 
ATOM      5  N   UNL     1       4.583   6.865  17.535  0.00  0.00    +0.000 N 
ATOM      6  H   UNL     1       4.926   7.779  17.282  0.00  0.00    +0.000 HD
ENDROOT
BRANCH   3   7
ATOM      7  C   UNL     1       2.424   4.359  18.968  0.00  0.00    +0.000 A 
ATOM      8  C   UNL     1       1.532   3.596  18.202  0.00  0.00    +0.000 A 
ATOM      9  C   UNL     1       0.592   2.762  18.821  0.00  0.00    +0.000 A 
ATOM     10  C   UNL     1       0.538   2.684  20.211  0.00  0.00    +0.000 A 
ATOM     11  C   UNL     1       1.416   3.442  20.983  0.00  0.00    +0.000 A 
ATOM     12  C   UNL     1       2.346   4.283  20.364  0.00  0.00    +0.000 A 
ENDBRANCH   3   7
BRANCH   4  13
ATOM     13  C   UNL     1       2.487   7.644  18.615  0.00  0.00    +0.000 A 
ATOM     14  C   UNL     1       2.060   7.739  19.946  0.00  0.00    +0.000 A 
ATOM     15  C   UNL     1       1.150   8.724  20.337  0.00  0.00    +0.000 A 
ATOM     16  C   UNL     1       0.680   9.649  19.409  0.00  0.00    +0.000 A 
ATOM     17  C   UNL     1       1.116   9.587  18.088  0.00  0.00    +0.000 A 
ATOM     18  C   UNL     1       2.010   8.588  17.692  0.00  0.00    +0.000 A 
ENDBRANCH   4  13
BRANCH   1  19
ATOM     19  S   UNL     1       6.781   5.719  16.553  0.00  0.00    +0.000 S 
BRANCH  19  20
ATOM     20  C   UNL     1       7.798   4.912  17.813  0.00  0.00    +0.000 C 
BRANCH  20  22
ATOM     21  O   UNL     1       7.355   5.351  20.151  0.00  0.00    +0.000 OA
ATOM     22  C   UNL     1       7.811   5.733  19.084  0.00  0.00    +0.000 C 
BRANCH  22  23
ATOM     23  O   UNL     1       8.357   6.963  18.936  0.00  0.00    +0.000 OA
ATOM     24  H   UNL     1       9.080   7.159  19.582  0.00  0.00    +0.000 HD
ENDBRANCH  22  23
ENDBRANCH  20  22
ENDBRANCH  19  20
ENDBRANCH   1  19
TORSDOF 6
ENDMDL
MODEL 2
REMARK VINA RESULT:      -8.1      0.197      1.046
REMARK  Name = 
REMARK  6 active torsions:
REMARK  status: ('A' for Active; 'I' for Inactive)
REMARK    1  A    between atoms: C_2  and  O_3
REMARK    2  A    between atoms: C_2  and  C_4
REMARK    3  A    between atoms: C_4  and  S_5
REMARK    4  A    between atoms: S_5  and  C_6
REMARK    5  A    between atoms: C_8  and  C_9
REMARK    6  A    between atoms: C_15  and  C_16
REMARK                            x       y       z     vdW  Elec       q    Type
REMARK                         _______ _______ _______ _____ _____    ______ ____
ROOT
ATOM      1  C   UNL     1       5.207   5.733  17.378  0.00  0.00    +0.000 A 
ATOM      2  N   UNL     1       4.560   4.695  17.842  0.00  0.00    +0.000 NA
ATOM      3  C   UNL     1       3.434   5.233  18.452  0.00  0.00    +0.000 A 
ATOM      4  C   UNL     1       3.366   6.612  18.251  0.00  0.00    +0.000 A 
ATOM      5  N   UNL     1       4.519   6.890  17.548  0.00  0.00    +0.000 N 
ATOM      6  H   UNL     1       4.824   7.798  17.229  0.00  0.00    +0.000 HD
ENDROOT
BRANCH   3   7
ATOM      7  C   UNL     1       2.489   4.411  19.199  0.00  0.00    +0.000 A 
ATOM      8  C   UNL     1       1.516   3.673  18.511  0.00  0.00    +0.000 A 
ATOM      9  C   UNL     1       0.620   2.850  19.205  0.00  0.00    +0.000 A 
ATOM     10  C   UNL     1       0.691   2.759  20.594  0.00  0.00    +0.000 A 
ATOM     11  C   UNL     1       1.651   3.492  21.289  0.00  0.00    +0.000 A 
ATOM     12  C   UNL     1       2.537   4.322  20.596  0.00  0.00    +0.000 A 
ENDBRANCH   3   7
BRANCH   4  13
ATOM     13  C   UNL     1       2.429   7.668  18.642  0.00  0.00    +0.000 A 
ATOM     14  C   UNL     1       1.958   8.601  17.708  0.00  0.00    +0.000 A 
ATOM     15  C   UNL     1       1.103   9.634  18.100  0.00  0.00    +0.000 A 
ATOM     16  C   UNL     1       0.683   9.730  19.424  0.00  0.00    +0.000 A 
ATOM     17  C   UNL     1       1.120   8.795  20.358  0.00  0.00    +0.000 A 
ATOM     18  C   UNL     1       1.992   7.773  19.971  0.00  0.00    +0.000 A 
ENDBRANCH   4  13
BRANCH   1  19
ATOM     19  S   UNL     1       6.726   5.757  16.573  0.00  0.00    +0.000 S 
BRANCH  19  20
ATOM     20  C   UNL     1       7.779   4.938  17.795  0.00  0.00    +0.000 C 
BRANCH  20  22
ATOM     21  O   UNL     1       7.444   5.358  20.154  0.00  0.00    +0.000 OA
ATOM     22  C   UNL     1       7.840   5.754  19.068  0.00  0.00    +0.000 C 
BRANCH  22  23
ATOM     23  O   UNL     1       8.356   6.994  18.900  0.00  0.00    +0.000 OA
ATOM     24  H   UNL     1       8.936   7.079  18.102  0.00  0.00    +0.000 HD
ENDBRANCH  22  23
ENDBRANCH  20  22
ENDBRANCH  19  20
ENDBRANCH   1  19
TORSDOF 6
ENDMDL
MODEL 3
REMARK VINA RESULT:      -8.0      0.158      1.037
REMARK  Name = 
REMARK  6 active torsions:
REMARK  status: ('A' for Active; 'I' for Inactive)
REMARK    1  A    between atoms: C_2  and  O_3
REMARK    2  A    between atoms: C_2  and  C_4
REMARK    3  A    between atoms: C_4  and  S_5
REMARK    4  A    between atoms: S_5  and  C_6
REMARK    5  A    between atoms: C_8  and  C_9
REMARK    6  A    between atoms: C_15  and  C_16
REMARK                            x       y       z     vdW  Elec       q    Type
REMARK                         _______ _______ _______ _____ _____    ______ ____
ROOT
ATOM      1  C   UNL     1       5.245   5.682  17.334  0.00  0.00    +0.000 A 
ATOM      2  N   UNL     1       4.580   4.643  17.769  0.00  0.00    +0.000 NA
ATOM      3  C   UNL     1       3.458   5.183  18.386  0.00  0.00    +0.000 A 
ATOM      4  C   UNL     1       3.413   6.568  18.218  0.00  0.00    +0.000 A 
ATOM      5  N   UNL     1       4.574   6.846  17.529  0.00  0.00    +0.000 N 
ATOM      6  H   UNL     1       4.895   7.756  17.234  0.00  0.00    +0.000 HD
ENDROOT
BRANCH   3   7
ATOM      7  C   UNL     1       2.497   4.358  19.107  0.00  0.00    +0.000 A 
ATOM      8  C   UNL     1       2.554   4.287  20.505  0.00  0.00    +0.000 A 
ATOM      9  C   UNL     1       1.619   3.528  21.220  0.00  0.00    +0.000 A 
ATOM     10  C   UNL     1       0.619   2.834  20.542  0.00  0.00    +0.000 A 
ATOM     11  C   UNL     1       0.556   2.893  19.151  0.00  0.00    +0.000 A 
ATOM     12  C   UNL     1       1.496   3.641  18.438  0.00  0.00    +0.000 A 
ENDBRANCH   3   7
BRANCH   4  13
ATOM     13  C   UNL     1       2.491   7.629  18.630  0.00  0.00    +0.000 A 
ATOM     14  C   UNL     1       2.051   7.733  19.956  0.00  0.00    +0.000 A 
ATOM     15  C   UNL     1       1.133   8.718  20.329  0.00  0.00    +0.000 A 
ATOM     16  C   UNL     1       0.667   9.631  19.388  0.00  0.00    +0.000 A 
ATOM     17  C   UNL     1       1.115   9.559  18.072  0.00  0.00    +0.000 A 
ATOM     18  C   UNL     1       2.017   8.561  17.693  0.00  0.00    +0.000 A 
ENDBRANCH   4  13
BRANCH   1  19
ATOM     19  S   UNL     1       6.769   5.702  16.538  0.00  0.00    +0.000 S 
BRANCH  19  20
ATOM     20  C   UNL     1       7.820   4.915  17.782  0.00  0.00    +0.000 C 
BRANCH  20  22
ATOM     21  O   UNL     1       7.381   5.335  20.123  0.00  0.00    +0.000 OA
ATOM     22  C   UNL     1       7.828   5.729  19.057  0.00  0.00    +0.000 C 
BRANCH  22  23
ATOM     23  O   UNL     1       8.358   6.966  18.913  0.00  0.00    +0.000 OA
ATOM     24  H   UNL     1       8.343   7.505  19.743  0.00  0.00    +0.000 HD
ENDBRANCH  22  23
ENDBRANCH  20  22
ENDBRANCH  19  20
ENDBRANCH   1  19
TORSDOF 6
ENDMDL
MODEL 4
REMARK VINA RESULT:      -8.0      0.427      4.213
REMARK  Name = 
REMARK  6 active torsions:
REMARK  status: ('A' for Active; 'I' for Inactive)
REMARK    1  A    between atoms: C_2  and  O_3
REMARK    2  A    between atoms: C_2  and  C_4
REMARK    3  A    between atoms: C_4  and  S_5
REMARK    4  A    between atoms: S_5  and  C_6
REMARK    5  A    between atoms: C_8  and  C_9
REMARK    6  A    between atoms: C_15  and  C_16
REMARK                            x       y       z     vdW  Elec       q    Type
REMARK                         _______ _______ _______ _____ _____    ______ ____
ROOT
ATOM      1  C   UNL     1       5.087   5.872  17.264  0.00  0.00    +0.000 A 
ATOM      2  N   UNL     1       4.500   7.022  17.470  0.00  0.00    +0.000 NA
ATOM      3  C   UNL     1       3.407   6.716  18.271  0.00  0.00    +0.000 A 
ATOM      4  C   UNL     1       3.412   5.367  18.629  0.00  0.00    +0.000 A 
ATOM      5  N   UNL     1       4.513   4.864  17.970  0.00  0.00    +0.000 N 
ATOM      6  H   UNL     1       4.835   3.908  17.981  0.00  0.00    +0.000 HD
ENDROOT
BRANCH   3   7
ATOM      7  C   UNL     1       2.414   7.716  18.646  0.00  0.00    +0.000 A 
ATOM      8  C   UNL     1       1.981   7.799  19.976  0.00  0.00    +0.000 A 
ATOM      9  C   UNL     1       1.054   8.774  20.365  0.00  0.00    +0.000 A 
ATOM     10  C   UNL     1       0.554   9.675  19.426  0.00  0.00    +0.000 A 
ATOM     11  C   UNL     1       0.974   9.598  18.100  0.00  0.00    +0.000 A 
ATOM     12  C   UNL     1       1.890   8.617  17.710  0.00  0.00    +0.000 A 
ENDBRANCH   3   7
BRANCH   4  13
ATOM     13  C   UNL     1       2.543   4.510  19.440  0.00  0.00    +0.000 A 
ATOM     14  C   UNL     1       2.750   4.365  20.818  0.00  0.00    +0.000 A 
ATOM     15  C   UNL     1       1.947   3.507  21.574  0.00  0.00    +0.000 A 
ATOM     16  C   UNL     1       0.906   2.809  20.970  0.00  0.00    +0.000 A 
ATOM     17  C   UNL     1       0.669   2.965  19.606  0.00  0.00    +0.000 A 
ATOM     18  C   UNL     1       1.485   3.806  18.845  0.00  0.00    +0.000 A 
ENDBRANCH   4  13
BRANCH   1  19
ATOM     19  S   UNL     1       6.466   5.550  16.289  0.00  0.00    +0.000 S 
BRANCH  19  20
ATOM     20  C   UNL     1       7.612   4.882  17.519  0.00  0.00    +0.000 C 
BRANCH  20  22
ATOM     21  O   UNL     1       8.214   6.902  18.705  0.00  0.00    +0.000 OA
ATOM     22  C   UNL     1       7.690   5.799  18.720  0.00  0.00    +0.000 C 
BRANCH  22  23
ATOM     23  O   UNL     1       7.145   5.278  19.844  0.00  0.00    +0.000 OA
ATOM     24  H   UNL     1       7.785   5.189  20.593  0.00  0.00    +0.000 HD
ENDBRANCH  22  23
ENDBRANCH  20  22
ENDBRANCH  19  20
ENDBRANCH   1  19
TORSDOF 6
ENDMDL
MODEL 5
REMARK VINA RESULT:      -7.9      0.691      1.665
REMARK  Name = 
REMARK  6 active torsions:
REMARK  status: ('A' for Active; 'I' for Inactive)
REMARK    1  A    between atoms: C_2  and  O_3
REMARK    2  A    between atoms: C_2  and  C_4
REMARK    3  A    between atoms: C_4  and  S_5
REMARK    4  A    between atoms: S_5  and  C_6
REMARK    5  A    between atoms: C_8  and  C_9
REMARK    6  A    between atoms: C_15  and  C_16
REMARK                            x       y       z     vdW  Elec       q    Type
REMARK                         _______ _______ _______ _____ _____    ______ ____
ROOT
ATOM      1  C   UNL     1       5.116   6.239  17.321  0.00  0.00    +0.000 A 
ATOM      2  N   UNL     1       4.529   5.132  17.698  0.00  0.00    +0.000 NA
ATOM      3  C   UNL     1       3.371   5.554  18.339  0.00  0.00    +0.000 A 
ATOM      4  C   UNL     1       3.224   6.939  18.245  0.00  0.00    +0.000 A 
ATOM      5  N   UNL     1       4.362   7.337  17.575  0.00  0.00    +0.000 N 
ATOM      6  H   UNL     1       4.614   8.283  17.331  0.00  0.00    +0.000 HD
ENDROOT
BRANCH   3   7
ATOM      7  C   UNL     1       2.473   4.623  19.011  0.00  0.00    +0.000 A 
ATOM      8  C   UNL     1       2.490   4.529  20.409  0.00  0.00    +0.000 A 
ATOM      9  C   UNL     1       1.612   3.667  21.078  0.00  0.00    +0.000 A 
ATOM     10  C   UNL     1       0.710   2.892  20.353  0.00  0.00    +0.000 A 
ATOM     11  C   UNL     1       0.687   2.973  18.962  0.00  0.00    +0.000 A 
ATOM     12  C   UNL     1       1.571   3.825  18.295  0.00  0.00    +0.000 A 
ENDBRANCH   3   7
BRANCH   4  13
ATOM     13  C   UNL     1       2.226   7.905  18.708  0.00  0.00    +0.000 A 
ATOM     14  C   UNL     1       1.622   8.806  17.822  0.00  0.00    +0.000 A 
ATOM     15  C   UNL     1       0.708   9.757  18.281  0.00  0.00    +0.000 A 
ATOM     16  C   UNL     1       0.360   9.799  19.628  0.00  0.00    +0.000 A 
ATOM     17  C   UNL     1       0.929   8.892  20.518  0.00  0.00    +0.000 A 
ATOM     18  C   UNL     1       1.860   7.954  20.063  0.00  0.00    +0.000 A 
ENDBRANCH   4  13
BRANCH   1  19
ATOM     19  S   UNL     1       6.635   6.413  16.533  0.00  0.00    +0.000 S 
BRANCH  19  20
ATOM     20  C   UNL     1       7.736   6.641  17.950  0.00  0.00    +0.000 C 
BRANCH  20  22
ATOM     21  O   UNL     1       7.602   5.511  20.085  0.00  0.00    +0.000 OA
ATOM     22  C   UNL     1       7.671   5.440  18.868  0.00  0.00    +0.000 C 
BRANCH  22  23
ATOM     23  O   UNL     1       7.721   4.252  18.219  0.00  0.00    +0.000 OA
ATOM     24  H   UNL     1       8.498   3.693  18.472  0.00  0.00    +0.000 HD
ENDBRANCH  22  23
ENDBRANCH  20  22
ENDBRANCH  19  20
ENDBRANCH   1  19
TORSDOF 6
ENDMDL
MODEL 6
REMARK VINA RESULT:      -7.9      0.922      4.363
REMARK  Name = 
REMARK  6 active torsions:
REMARK  status: ('A' for Active; 'I' for Inactive)
REMARK    1  A    between atoms: C_2  and  O_3
REMARK    2  A    between atoms: C_2  and  C_4
REMARK    3  A    between atoms: C_4  and  S_5
REMARK    4  A    between atoms: S_5  and  C_6
REMARK    5  A    between atoms: C_8  and  C_9
REMARK    6  A    between atoms: C_15  and  C_16
REMARK                            x       y       z     vdW  Elec       q    Type
REMARK                         _______ _______ _______ _____ _____    ______ ____
ROOT
ATOM      1  C   UNL     1       4.706   5.663  16.550  0.00  0.00    +0.000 A 
ATOM      2  N   UNL     1       4.236   6.824  16.928  0.00  0.00    +0.000 NA
ATOM      3  C   UNL     1       3.320   6.518  17.927  0.00  0.00    +0.000 A 
ATOM      4  C   UNL     1       3.329   5.152  18.213  0.00  0.00    +0.000 A 
ATOM      5  N   UNL     1       4.241   4.642  17.313  0.00  0.00    +0.000 N 
ATOM      6  H   UNL     1       4.508   3.674  17.212  0.00  0.00    +0.000 HD
ENDROOT
BRANCH   3   7
ATOM      7  C   UNL     1       2.481   7.536  18.549  0.00  0.00    +0.000 A 
ATOM      8  C   UNL     1       2.151   7.429  19.906  0.00  0.00    +0.000 A 
ATOM      9  C   UNL     1       1.375   8.413  20.532  0.00  0.00    +0.000 A 
ATOM     10  C   UNL     1       0.924   9.512  19.805  0.00  0.00    +0.000 A 
ATOM     11  C   UNL     1       1.242   9.627  18.453  0.00  0.00    +0.000 A 
ATOM     12  C   UNL     1       2.006   8.638  17.826  0.00  0.00    +0.000 A 
ENDBRANCH   3   7
BRANCH   4  13
ATOM     13  C   UNL     1       2.606   4.288  19.149  0.00  0.00    +0.000 A 
ATOM     14  C   UNL     1       1.331   3.794  18.842  0.00  0.00    +0.000 A 
ATOM     15  C   UNL     1       0.628   3.011  19.761  0.00  0.00    +0.000 A 
ATOM     16  C   UNL     1       1.203   2.684  20.985  0.00  0.00    +0.000 A 
ATOM     17  C   UNL     1       2.480   3.144  21.294  0.00  0.00    +0.000 A 
ATOM     18  C   UNL     1       3.176   3.945  20.384  0.00  0.00    +0.000 A 
ENDBRANCH   4  13
BRANCH   1  19
ATOM     19  S   UNL     1       5.832   5.340  15.291  0.00  0.00    +0.000 S 
BRANCH  19  20
ATOM     20  C   UNL     1       7.084   4.385  16.183  0.00  0.00    +0.000 C 
BRANCH  20  22
ATOM     21  O   UNL     1       7.870   6.136  17.655  0.00  0.00    +0.000 OA
ATOM     22  C   UNL     1       7.381   5.025  17.521  0.00  0.00    +0.000 C 
BRANCH  22  23
ATOM     23  O   UNL     1       7.078   4.241  18.582  0.00  0.00    +0.000 OA
ATOM     24  H   UNL     1       7.546   3.369  18.579  0.00  0.00    +0.000 HD
ENDBRANCH  22  23
ENDBRANCH  20  22
ENDBRANCH  19  20
ENDBRANCH   1  19
TORSDOF 6
ENDMDL
MODEL 7
REMARK VINA RESULT:      -7.9      0.698      4.168
REMARK  Name = 
REMARK  6 active torsions:
REMARK  status: ('A' for Active; 'I' for Inactive)
REMARK    1  A    between atoms: C_2  and  O_3
REMARK    2  A    between atoms: C_2  and  C_4
REMARK    3  A    between atoms: C_4  and  S_5
REMARK    4  A    between atoms: S_5  and  C_6
REMARK    5  A    between atoms: C_8  and  C_9
REMARK    6  A    between atoms: C_15  and  C_16
REMARK                            x       y       z     vdW  Elec       q    Type
REMARK                         _______ _______ _______ _____ _____    ______ ____
ROOT
ATOM      1  C   UNL     1       4.736   5.830  16.793  0.00  0.00    +0.000 A 
ATOM      2  N   UNL     1       4.237   6.998  17.107  0.00  0.00    +0.000 NA
ATOM      3  C   UNL     1       3.262   6.714  18.055  0.00  0.00    +0.000 A 
ATOM      4  C   UNL     1       3.261   5.357  18.381  0.00  0.00    +0.000 A 
ATOM      5  N   UNL     1       4.230   4.829  17.555  0.00  0.00    +0.000 N 
ATOM      6  H   UNL     1       4.508   3.860  17.499  0.00  0.00    +0.000 HD
ENDROOT
BRANCH   3   7
ATOM      7  C   UNL     1       2.380   7.744  18.593  0.00  0.00    +0.000 A 
ATOM      8  C   UNL     1       1.856   8.723  17.740  0.00  0.00    +0.000 A 
ATOM      9  C   UNL     1       0.980   9.701  18.229  0.00  0.00    +0.000 A 
ATOM     10  C   UNL     1       0.622   9.705  19.575  0.00  0.00    +0.000 A 
ATOM     11  C   UNL     1       1.141   8.739  20.435  0.00  0.00    +0.000 A 
ATOM     12  C   UNL     1       2.024   7.771  19.948  0.00  0.00    +0.000 A 
ENDBRANCH   3   7
BRANCH   4  13
ATOM     13  C   UNL     1       2.485   4.515  19.294  0.00  0.00    +0.000 A 
ATOM     14  C   UNL     1       2.792   4.452  20.660  0.00  0.00    +0.000 A 
ATOM     15  C   UNL     1       2.078   3.608  21.515  0.00  0.00    +0.000 A 
ATOM     16  C   UNL     1       1.026   2.841  21.022  0.00  0.00    +0.000 A 
ATOM     17  C   UNL     1       0.690   2.914  19.673  0.00  0.00    +0.000 A 
ATOM     18  C   UNL     1       1.417   3.742  18.813  0.00  0.00    +0.000 A 
ENDBRANCH   4  13
BRANCH   1  19
ATOM     19  S   UNL     1       5.941   5.479  15.617  0.00  0.00    +0.000 S 
BRANCH  19  20
ATOM     20  C   UNL     1       7.192   4.662  16.636  0.00  0.00    +0.000 C 
BRANCH  20  22
ATOM     21  O   UNL     1       7.840   6.555  17.996  0.00  0.00    +0.000 OA
ATOM     22  C   UNL     1       7.395   5.419  17.930  0.00  0.00    +0.000 C 
BRANCH  22  23
ATOM     23  O   UNL     1       7.061   4.713  19.036  0.00  0.00    +0.000 OA
ATOM     24  H   UNL     1       7.677   4.852  19.798  0.00  0.00    +0.000 HD
ENDBRANCH  22  23
ENDBRANCH  20  22
ENDBRANCH  19  20
ENDBRANCH   1  19
TORSDOF 6
ENDMDL
MODEL 8
REMARK VINA RESULT:      -7.8      0.829      1.120
REMARK  Name = 
REMARK  6 active torsions:
REMARK  status: ('A' for Active; 'I' for Inactive)
REMARK    1  A    between atoms: C_2  and  O_3
REMARK    2  A    between atoms: C_2  and  C_4
REMARK    3  A    between atoms: C_4  and  S_5
REMARK    4  A    between atoms: S_5  and  C_6
REMARK    5  A    between atoms: C_8  and  C_9
REMARK    6  A    between atoms: C_15  and  C_16
REMARK                            x       y       z     vdW  Elec       q    Type
REMARK                         _______ _______ _______ _____ _____    ______ ____
ROOT
ATOM      1  C   UNL     1       4.625   5.825  16.728  0.00  0.00    +0.000 A 
ATOM      2  N   UNL     1       4.114   4.791  17.346  0.00  0.00    +0.000 NA
ATOM      3  C   UNL     1       3.184   5.335  18.222  0.00  0.00    +0.000 A 
ATOM      4  C   UNL     1       3.072   6.714  18.040  0.00  0.00    +0.000 A 
ATOM      5  N   UNL     1       4.008   6.986  17.064  0.00  0.00    +0.000 N 
ATOM      6  H   UNL     1       4.224   7.891  16.675  0.00  0.00    +0.000 HD
ENDROOT
BRANCH   3   7
ATOM      7  C   UNL     1       2.458   4.519  19.188  0.00  0.00    +0.000 A 
ATOM      8  C   UNL     1       1.398   3.711  18.757  0.00  0.00    +0.000 A 
ATOM      9  C   UNL     1       0.709   2.893  19.661  0.00  0.00    +0.000 A 
ATOM     10  C   UNL     1       1.077   2.877  21.005  0.00  0.00    +0.000 A 
ATOM     11  C   UNL     1       2.126   3.681  21.447  0.00  0.00    +0.000 A 
ATOM     12  C   UNL     1       2.805   4.505  20.545  0.00  0.00    +0.000 A 
ENDBRANCH   3   7
BRANCH   4  13
ATOM     13  C   UNL     1       2.270   7.775  18.653  0.00  0.00    +0.000 A 
ATOM     14  C   UNL     1       1.973   7.760  20.022  0.00  0.00    +0.000 A 
ATOM     15  C   UNL     1       1.166   8.750  20.590  0.00  0.00    +0.000 A 
ATOM     16  C   UNL     1       0.673   9.786  19.802  0.00  0.00    +0.000 A 
ATOM     17  C   UNL     1       0.982   9.831  18.445  0.00  0.00    +0.000 A 
ATOM     18  C   UNL     1       1.771   8.830  17.873  0.00  0.00    +0.000 A 
ENDBRANCH   4  13
BRANCH   1  19
ATOM     19  S   UNL     1       5.888   5.840  15.561  0.00  0.00    +0.000 S 
BRANCH  19  20
ATOM     20  C   UNL     1       7.089   4.731  16.336  0.00  0.00    +0.000 C 
BRANCH  20  22
ATOM     21  O   UNL     1       7.813   6.127  18.174  0.00  0.00    +0.000 OA
ATOM     22  C   UNL     1       7.281   5.096  17.792  0.00  0.00    +0.000 C 
BRANCH  22  23
ATOM     23  O   UNL     1       6.830   4.157  18.656  0.00  0.00    +0.000 OA
ATOM     24  H   UNL     1       7.181   4.261  19.575  0.00  0.00    +0.000 HD
ENDBRANCH  22  23
ENDBRANCH  20  22
ENDBRANCH  19  20
ENDBRANCH   1  19
TORSDOF 6
ENDMDL
MODEL 9
REMARK VINA RESULT:      -7.8      2.018      2.481
REMARK  Name = 
REMARK  6 active torsions:
REMARK  status: ('A' for Active; 'I' for Inactive)
REMARK    1  A    between atoms: C_2  and  O_3
REMARK    2  A    between atoms: C_2  and  C_4
REMARK    3  A    between atoms: C_4  and  S_5
REMARK    4  A    between atoms: S_5  and  C_6
REMARK    5  A    between atoms: C_8  and  C_9
REMARK    6  A    between atoms: C_15  and  C_16
REMARK                            x       y       z     vdW  Elec       q    Type
REMARK                         _______ _______ _______ _____ _____    ______ ____
ROOT
ATOM      1  C   UNL     1       5.282   5.950  17.496  0.00  0.00    +0.000 A 
ATOM      2  N   UNL     1       4.680   4.888  17.968  0.00  0.00    +0.000 NA
ATOM      3  C   UNL     1       3.521   5.379  18.554  0.00  0.00    +0.000 A 
ATOM      4  C   UNL     1       3.388   6.751  18.330  0.00  0.00    +0.000 A 
ATOM      5  N   UNL     1       4.536   7.074  17.638  0.00  0.00    +0.000 N 
ATOM      6  H   UNL     1       4.800   7.991  17.309  0.00  0.00    +0.000 HD
ENDROOT
BRANCH   3   7
ATOM      7  C   UNL     1       2.607   4.523  19.301  0.00  0.00    +0.000 A 
ATOM      8  C   UNL     1       1.635   3.782  18.617  0.00  0.00    +0.000 A 
ATOM      9  C   UNL     1       0.769   2.927  19.310  0.00  0.00    +0.000 A 
ATOM     10  C   UNL     1       0.869   2.807  20.695  0.00  0.00    +0.000 A 
ATOM     11  C   UNL     1       1.828   3.544  21.387  0.00  0.00    +0.000 A 
ATOM     12  C   UNL     1       2.684   4.405  20.695  0.00  0.00    +0.000 A 
ENDBRANCH   3   7
BRANCH   4  13
ATOM     13  C   UNL     1       2.395   7.765  18.691  0.00  0.00    +0.000 A 
ATOM     14  C   UNL     1       1.882   8.650  17.734  0.00  0.00    +0.000 A 
ATOM     15  C   UNL     1       0.972   9.646  18.097  0.00  0.00    +0.000 A 
ATOM     16  C   UNL     1       0.538   9.750  19.416  0.00  0.00    +0.000 A 
ATOM     17  C   UNL     1       1.017   8.860  20.373  0.00  0.00    +0.000 A 
ATOM     18  C   UNL     1       1.943   7.876  20.015  0.00  0.00    +0.000 A 
ENDBRANCH   4  13
BRANCH   1  19
ATOM     19  S   UNL     1       6.810   6.036  16.711  0.00  0.00    +0.000 S 
BRANCH  19  20
ATOM     20  C   UNL     1       6.888   4.408  15.926  0.00  0.00    +0.000 C 
BRANCH  20  22
ATOM     21  O   UNL     1       7.688   5.456  13.899  0.00  0.00    +0.000 OA
ATOM     22  C   UNL     1       7.065   4.551  14.431  0.00  0.00    +0.000 C 
BRANCH  22  23
ATOM     23  O   UNL     1       6.440   3.589  13.711  0.00  0.00    +0.000 OA
ATOM     24  H   UNL     1       7.040   2.859  13.418  0.00  0.00    +0.000 HD
ENDBRANCH  22  23
ENDBRANCH  20  22
ENDBRANCH  19  20
ENDBRANCH   1  19
TORSDOF 6
ENDMDL
