MODEL 1
REMARK VINA RESULT:      -7.3      0.000      0.000
REMARK  Name = 
REMARK  3 active torsions:
REMARK  status: ('A' for Active; 'I' for Inactive)
REMARK    1  A    between atoms: C_6  and  C_7
REMARK    2  A    between atoms: C_8  and  C_9
REMARK    3  A    between atoms: C_12  and  C_13
REMARK                            x       y       z     vdW  Elec       q    Type
REMARK                         _______ _______ _______ _____ _____    ______ ____
ROOT
ATOM      1  C   UNL     1       6.463   5.370  18.977  0.00  0.00    +0.000 C 
ATOM      2  C   UNL     1       6.272   5.329  17.650  0.00  0.00    +0.000 C 
ATOM      3  C   UNL     1       6.738   6.412  16.767  0.00  0.00    +0.000 C 
ATOM      4  O   UNL     1       7.422   7.363  17.094  0.00  0.00    +0.000 OA
ATOM      5  O   UNL     1       6.285   6.169  15.513  0.00  0.00    +0.000 OA
ATOM      6  C   UNL     1       5.508   4.960  15.457  0.00  0.00    +0.000 C 
ATOM      7  C   UNL     1       6.076   4.100  14.335  0.00  0.00    +0.000 C 
ATOM      8  C   UNL     1       5.593   4.285  16.831  0.00  0.00    +0.000 C 
ENDROOT
BRANCH   8   9
ATOM      9  C   UNL     1       4.239   3.849  17.361  0.00  0.00    +0.000 A 
ATOM     10  C   UNL     1       3.207   4.786  17.516  0.00  0.00    +0.000 A 
ATOM     11  C   UNL     1       1.967   4.404  18.038  0.00  0.00    +0.000 A 
ATOM     12  C   UNL     1       1.732   3.078  18.413  0.00  0.00    +0.000 A 
ATOM     13  C   UNL     1       0.423   2.660  19.015  0.00  0.00    +0.000 C 
ATOM     14  C   UNL     1       2.748   2.133  18.236  0.00  0.00    +0.000 A 
ATOM     15  C   UNL     1       3.985   2.513  17.713  0.00  0.00    +0.000 A 
ENDBRANCH   8   9
TORSDOF 1
ENDMDL
MODEL 2
REMARK VINA RESULT:      -7.3      0.067      1.246
REMARK  Name = 
REMARK  3 active torsions:
REMARK  status: ('A' for Active; 'I' for Inactive)
REMARK    1  A    between atoms: C_6  and  C_7
REMARK    2  A    between atoms: C_8  and  C_9
REMARK    3  A    between atoms: C_12  and  C_13
REMARK                            x       y       z     vdW  Elec       q    Type
REMARK                         _______ _______ _______ _____ _____    ______ ____
ROOT
ATOM      1  C   UNL     1       6.528   5.388  18.979  0.00  0.00    +0.000 C 
ATOM      2  C   UNL     1       6.309   5.347  17.657  0.00  0.00    +0.000 C 
ATOM      3  C   UNL     1       6.760   6.427  16.763  0.00  0.00    +0.000 C 
ATOM      4  O   UNL     1       7.454   7.376  17.075  0.00  0.00    +0.000 OA
ATOM      5  O   UNL     1       6.279   6.185  15.519  0.00  0.00    +0.000 OA
ATOM      6  C   UNL     1       5.496   4.979  15.481  0.00  0.00    +0.000 C 
ATOM      7  C   UNL     1       6.037   4.116  14.348  0.00  0.00    +0.000 C 
ATOM      8  C   UNL     1       5.609   4.305  16.853  0.00  0.00    +0.000 C 
ENDROOT
BRANCH   8   9
ATOM      9  C   UNL     1       4.264   3.875  17.412  0.00  0.00    +0.000 A 
ATOM     10  C   UNL     1       4.051   2.541  17.788  0.00  0.00    +0.000 A 
ATOM     11  C   UNL     1       2.806   2.124  18.270  0.00  0.00    +0.000 A 
ATOM     12  C   UNL     1       1.749   3.032  18.387  0.00  0.00    +0.000 A 
ATOM     13  C   UNL     1       0.395   2.593  18.860  0.00  0.00    +0.000 C 
ATOM     14  C   UNL     1       1.963   4.370  18.039  0.00  0.00    +0.000 A 
ATOM     15  C   UNL     1       3.206   4.787  17.561  0.00  0.00    +0.000 A 
ENDBRANCH   8   9
TORSDOF 1
ENDMDL
MODEL 3
REMARK VINA RESULT:      -7.2      1.279      2.328
REMARK  Name = 
REMARK  3 active torsions:
REMARK  status: ('A' for Active; 'I' for Inactive)
REMARK    1  A    between atoms: C_6  and  C_7
REMARK    2  A    between atoms: C_8  and  C_9
REMARK    3  A    between atoms: C_12  and  C_13
REMARK                            x       y       z     vdW  Elec       q    Type
REMARK                         _______ _______ _______ _____ _____    ______ ____
ROOT
ATOM      1  C   UNL     1       5.033   5.873  14.956  0.00  0.00    +0.000 C 
ATOM      2  C   UNL     1       5.822   5.544  15.990  0.00  0.00    +0.000 C 
ATOM      3  C   UNL     1       7.238   5.185  15.800  0.00  0.00    +0.000 C 
ATOM      4  O   UNL     1       7.865   5.257  14.761  0.00  0.00    +0.000 OA
ATOM      5  O   UNL     1       7.738   4.766  16.989  0.00  0.00    +0.000 OA
ATOM      6  C   UNL     1       6.741   4.803  18.024  0.00  0.00    +0.000 C 
ATOM      7  C   UNL     1       7.324   5.581  19.196  0.00  0.00    +0.000 C 
ATOM      8  C   UNL     1       5.483   5.455  17.439  0.00  0.00    +0.000 C 
ENDROOT
BRANCH   8   9
ATOM      9  C   UNL     1       4.216   4.675  17.743  0.00  0.00    +0.000 A 
ATOM     10  C   UNL     1       3.113   5.319  18.320  0.00  0.00    +0.000 A 
ATOM     11  C   UNL     1       1.954   4.604  18.639  0.00  0.00    +0.000 A 
ATOM     12  C   UNL     1       1.874   3.231  18.387  0.00  0.00    +0.000 A 
ATOM     13  C   UNL     1       0.656   2.441  18.763  0.00  0.00    +0.000 C 
ATOM     14  C   UNL     1       2.961   2.588  17.788  0.00  0.00    +0.000 A 
ATOM     15  C   UNL     1       4.117   3.301  17.466  0.00  0.00    +0.000 A 
ENDBRANCH   8   9
TORSDOF 1
ENDMDL
MODEL 4
REMARK VINA RESULT:      -7.1      1.284      2.639
REMARK  Name = 
REMARK  3 active torsions:
REMARK  status: ('A' for Active; 'I' for Inactive)
REMARK    1  A    between atoms: C_6  and  C_7
REMARK    2  A    between atoms: C_8  and  C_9
REMARK    3  A    between atoms: C_12  and  C_13
REMARK                            x       y       z     vdW  Elec       q    Type
REMARK                         _______ _______ _______ _____ _____    ______ ____
ROOT
ATOM      1  C   UNL     1       5.032   5.826  15.001  0.00  0.00    +0.000 C 
ATOM      2  C   UNL     1       5.847   5.527  16.023  0.00  0.00    +0.000 C 
ATOM      3  C   UNL     1       7.257   5.158  15.807  0.00  0.00    +0.000 C 
ATOM      4  O   UNL     1       7.856   5.194  14.749  0.00  0.00    +0.000 OA
ATOM      5  O   UNL     1       7.788   4.775  16.994  0.00  0.00    +0.000 OA
ATOM      6  C   UNL     1       6.819   4.848  18.054  0.00  0.00    +0.000 C 
ATOM      7  C   UNL     1       7.436   5.662  19.184  0.00  0.00    +0.000 C 
ATOM      8  C   UNL     1       5.547   5.486  17.482  0.00  0.00    +0.000 C 
ENDROOT
BRANCH   8   9
ATOM      9  C   UNL     1       4.287   4.721  17.846  0.00  0.00    +0.000 A 
ATOM     10  C   UNL     1       4.323   3.325  17.976  0.00  0.00    +0.000 A 
ATOM     11  C   UNL     1       3.161   2.605  18.274  0.00  0.00    +0.000 A 
ATOM     12  C   UNL     1       1.941   3.266  18.450  0.00  0.00    +0.000 A 
ATOM     13  C   UNL     1       0.678   2.506  18.726  0.00  0.00    +0.000 C 
ATOM     14  C   UNL     1       1.904   4.660  18.347  0.00  0.00    +0.000 A 
ATOM     15  C   UNL     1       3.063   5.379  18.052  0.00  0.00    +0.000 A 
ENDBRANCH   8   9
TORSDOF 1
ENDMDL
MODEL 5
REMARK VINA RESULT:      -7.1      1.589      2.600
REMARK  Name = 
REMARK  3 active torsions:
REMARK  status: ('A' for Active; 'I' for Inactive)
REMARK    1  A    between atoms: C_6  and  C_7
REMARK    2  A    between atoms: C_8  and  C_9
REMARK    3  A    between atoms: C_12  and  C_13
REMARK                            x       y       z     vdW  Elec       q    Type
REMARK                         _______ _______ _______ _____ _____    ______ ____
ROOT
ATOM      1  C   UNL     1       4.936   6.559  15.700  0.00  0.00    +0.000 C 
ATOM      2  C   UNL     1       5.832   6.036  16.551  0.00  0.00    +0.000 C 
ATOM      3  C   UNL     1       7.104   5.462  16.080  0.00  0.00    +0.000 C 
ATOM      4  O   UNL     1       7.532   5.498  14.942  0.00  0.00    +0.000 OA
ATOM      5  O   UNL     1       7.733   4.888  17.134  0.00  0.00    +0.000 OA
ATOM      6  C   UNL     1       6.966   5.020  18.343  0.00  0.00    +0.000 C 
ATOM      7  C   UNL     1       7.882   5.611  19.406  0.00  0.00    +0.000 C 
ATOM      8  C   UNL     1       5.755   5.908  18.034  0.00  0.00    +0.000 C 
ENDROOT
BRANCH   8   9
ATOM      9  C   UNL     1       4.450   5.330  18.550  0.00  0.00    +0.000 A 
ATOM     10  C   UNL     1       3.533   6.149  19.224  0.00  0.00    +0.000 A 
ATOM     11  C   UNL     1       2.344   5.620  19.737  0.00  0.00    +0.000 A 
ATOM     12  C   UNL     1       2.046   4.262  19.585  0.00  0.00    +0.000 A 
ATOM     13  C   UNL     1       0.797   3.670  20.167  0.00  0.00    +0.000 C 
ATOM     14  C   UNL     1       2.944   3.445  18.890  0.00  0.00    +0.000 A 
ATOM     15  C   UNL     1       4.130   3.973  18.376  0.00  0.00    +0.000 A 
ENDBRANCH   8   9
TORSDOF 1
ENDMDL
MODEL 6
REMARK VINA RESULT:      -7.0      3.241      5.557
REMARK  Name = 
REMARK  3 active torsions:
REMARK  status: ('A' for Active; 'I' for Inactive)
REMARK    1  A    between atoms: C_6  and  C_7
REMARK    2  A    between atoms: C_8  and  C_9
REMARK    3  A    between atoms: C_12  and  C_13
REMARK                            x       y       z     vdW  Elec       q    Type
REMARK                         _______ _______ _______ _____ _____    ______ ____
ROOT
ATOM      1  C   UNL     1       2.227   5.651  20.520  0.00  0.00    +0.000 C 
ATOM      2  C   UNL     1       2.704   4.454  20.146  0.00  0.00    +0.000 C 
ATOM      3  C   UNL     1       2.604   3.274  21.021  0.00  0.00    +0.000 C 
ATOM      4  O   UNL     1       2.003   3.209  22.077  0.00  0.00    +0.000 OA
ATOM      5  O   UNL     1       3.290   2.254  20.448  0.00  0.00    +0.000 OA
ATOM      6  C   UNL     1       3.884   2.653  19.201  0.00  0.00    +0.000 C 
ATOM      7  C   UNL     1       3.470   1.633  18.148  0.00  0.00    +0.000 C 
ATOM      8  C   UNL     1       3.398   4.072  18.884  0.00  0.00    +0.000 C 
ENDROOT
BRANCH   8   9
ATOM      9  C   UNL     1       4.525   5.005  18.476  0.00  0.00    +0.000 A 
ATOM     10  C   UNL     1       5.773   4.922  19.107  0.00  0.00    +0.000 A 
ATOM     11  C   UNL     1       6.807   5.800  18.767  0.00  0.00    +0.000 A 
ATOM     12  C   UNL     1       6.615   6.778  17.786  0.00  0.00    +0.000 A 
ATOM     13  C   UNL     1       7.698   7.756  17.439  0.00  0.00    +0.000 C 
ATOM     14  C   UNL     1       5.380   6.849  17.134  0.00  0.00    +0.000 A 
ATOM     15  C   UNL     1       4.348   5.972  17.472  0.00  0.00    +0.000 A 
ENDBRANCH   8   9
TORSDOF 1
ENDMDL
MODEL 7
REMARK VINA RESULT:      -7.0      3.292      5.504
REMARK  Name = 
REMARK  3 active torsions:
REMARK  status: ('A' for Active; 'I' for Inactive)
REMARK    1  A    between atoms: C_6  and  C_7
REMARK    2  A    between atoms: C_8  and  C_9
REMARK    3  A    between atoms: C_12  and  C_13
REMARK                            x       y       z     vdW  Elec       q    Type
REMARK                         _______ _______ _______ _____ _____    ______ ____
ROOT
ATOM      1  C   UNL     1       2.030   5.526  20.514  0.00  0.00    +0.000 C 
ATOM      2  C   UNL     1       2.573   4.342  20.192  0.00  0.00    +0.000 C 
ATOM      3  C   UNL     1       2.489   3.181  21.095  0.00  0.00    +0.000 C 
ATOM      4  O   UNL     1       1.850   3.118  22.128  0.00  0.00    +0.000 OA
ATOM      5  O   UNL     1       3.240   2.179  20.577  0.00  0.00    +0.000 OA
ATOM      6  C   UNL     1       3.866   2.571  19.344  0.00  0.00    +0.000 C 
ATOM      7  C   UNL     1       3.538   1.507  18.304  0.00  0.00    +0.000 C 
ATOM      8  C   UNL     1       3.332   3.959  18.969  0.00  0.00    +0.000 C 
ENDROOT
BRANCH   8   9
ATOM      9  C   UNL     1       4.433   4.930  18.579  0.00  0.00    +0.000 A 
ATOM     10  C   UNL     1       4.205   5.889  17.583  0.00  0.00    +0.000 A 
ATOM     11  C   UNL     1       5.222   6.765  17.189  0.00  0.00    +0.000 A 
ATOM     12  C   UNL     1       6.486   6.701  17.784  0.00  0.00    +0.000 A 
ATOM     13  C   UNL     1       7.600   7.602  17.343  0.00  0.00    +0.000 C 
ATOM     14  C   UNL     1       6.711   5.763  18.797  0.00  0.00    +0.000 A 
ATOM     15  C   UNL     1       5.696   4.890  19.193  0.00  0.00    +0.000 A 
ENDBRANCH   8   9
TORSDOF 1
ENDMDL
MODEL 8
REMARK VINA RESULT:      -6.9      1.961      3.098
REMARK  Name = 
REMARK  3 active torsions:
REMARK  status: ('A' for Active; 'I' for Inactive)
REMARK    1  A    between atoms: C_6  and  C_7
REMARK    2  A    between atoms: C_8  and  C_9
REMARK    3  A    between atoms: C_12  and  C_13
REMARK                            x       y       z     vdW  Elec       q    Type
REMARK                         _______ _______ _______ _____ _____    ______ ____
ROOT
ATOM      1  C   UNL     1       4.716   5.255  16.027  0.00  0.00    +0.000 C 
ATOM      2  C   UNL     1       5.750   5.157  16.875  0.00  0.00    +0.000 C 
ATOM      3  C   UNL     1       7.085   4.729  16.422  0.00  0.00    +0.000 C 
ATOM      4  O   UNL     1       7.428   4.541  15.270  0.00  0.00    +0.000 OA
ATOM      5  O   UNL     1       7.882   4.586  17.509  0.00  0.00    +0.000 OA
ATOM      6  C   UNL     1       7.176   4.887  18.725  0.00  0.00    +0.000 C 
ATOM      7  C   UNL     1       8.007   5.902  19.499  0.00  0.00    +0.000 C 
ATOM      8  C   UNL     1       5.789   5.416  18.342  0.00  0.00    +0.000 C 
ENDROOT
BRANCH   8   9
ATOM      9  C   UNL     1       4.668   4.760  19.129  0.00  0.00    +0.000 A 
ATOM     10  C   UNL     1       4.636   3.367  19.282  0.00  0.00    +0.000 A 
ATOM     11  C   UNL     1       3.589   2.747  19.973  0.00  0.00    +0.000 A 
ATOM     12  C   UNL     1       2.555   3.509  20.527  0.00  0.00    +0.000 A 
ATOM     13  C   UNL     1       1.403   2.858  21.232  0.00  0.00    +0.000 C 
ATOM     14  C   UNL     1       2.595   4.901  20.400  0.00  0.00    +0.000 A 
ATOM     15  C   UNL     1       3.641   5.519  19.713  0.00  0.00    +0.000 A 
ENDBRANCH   8   9
TORSDOF 1
ENDMDL
MODEL 9
REMARK VINA RESULT:      -6.9      1.658      1.734
REMARK  Name = 
REMARK  3 active torsions:
REMARK  status: ('A' for Active; 'I' for Inactive)
REMARK    1  A    between atoms: C_6  and  C_7
REMARK    2  A    between atoms: C_8  and  C_9
REMARK    3  A    between atoms: C_12  and  C_13
REMARK                            x       y       z     vdW  Elec       q    Type
REMARK                         _______ _______ _______ _____ _____    ______ ____
ROOT
ATOM      1  C   UNL     1       7.617   5.730  19.495  0.00  0.00    +0.000 C 
ATOM      2  C   UNL     1       6.959   5.908  18.340  0.00  0.00    +0.000 C 
ATOM      3  C   UNL     1       7.184   7.094  17.496  0.00  0.00    +0.000 C 
ATOM      4  O   UNL     1       8.033   7.949  17.668  0.00  0.00    +0.000 OA
ATOM      5  O   UNL     1       6.288   7.074  16.479  0.00  0.00    +0.000 OA
ATOM      6  C   UNL     1       5.424   5.928  16.558  0.00  0.00    +0.000 C 
ATOM      7  C   UNL     1       5.461   5.231  15.204  0.00  0.00    +0.000 C 
ATOM      8  C   UNL     1       5.929   5.040  17.702  0.00  0.00    +0.000 C 
ENDROOT
BRANCH   8   9
ATOM      9  C   UNL     1       4.818   4.590  18.634  0.00  0.00    +0.000 A 
ATOM     10  C   UNL     1       3.908   5.523  19.150  0.00  0.00    +0.000 A 
ATOM     11  C   UNL     1       2.903   5.127  20.039  0.00  0.00    +0.000 A 
ATOM     12  C   UNL     1       2.787   3.789  20.428  0.00  0.00    +0.000 A 
ATOM     13  C   UNL     1       1.744   3.354  21.414  0.00  0.00    +0.000 C 
ATOM     14  C   UNL     1       3.675   2.848  19.897  0.00  0.00    +0.000 A 
ATOM     15  C   UNL     1       4.677   3.243  19.008  0.00  0.00    +0.000 A 
ENDBRANCH   8   9
TORSDOF 1
ENDMDL
