MODEL 1
REMARK VINA RESULT:      -6.4      0.000      0.000
REMARK  Name = 
REMARK  2 active torsions:
REMARK  status: ('A' for Active; 'I' for Inactive)
REMARK    1  A    between atoms: C_1  and  C_9
REMARK    2  A    between atoms: C_2  and  C_3
REMARK                            x       y       z     vdW  Elec       q    Type
REMARK                         _______ _______ _______ _____ _____    ______ ____
ROOT
ATOM      1  C   UNL     1       3.660   3.701  17.631  0.00  0.00    +0.000 C 
ATOM      2  C   UNL     1       4.858   4.306  17.579  0.00  0.00    +0.000 C 
ENDROOT
BRANCH   2   3
ATOM      3  C   UNL     1       5.656   4.455  16.352  0.00  0.00    +0.000 A 
ATOM      4  C   UNL     1       5.309   3.865  15.135  0.00  0.00    +0.000 A 
ATOM      5  C   UNL     1       6.090   4.085  14.002  0.00  0.00    +0.000 A 
ATOM      6  C   UNL     1       7.199   4.906  14.118  0.00  0.00    +0.000 A 
ATOM      7  N   UNL     1       7.568   5.507  15.268  0.00  0.00    +0.000 NA
ATOM      8  C   UNL     1       6.788   5.269  16.352  0.00  0.00    +0.000 A 
ENDBRANCH   2   3
BRANCH   1   9
ATOM      9  C   UNL     1       2.854   3.535  18.852  0.00  0.00    +0.000 A 
ATOM     10  C   UNL     1       1.504   3.884  18.924  0.00  0.00    +0.000 A 
ATOM     11  C   UNL     1       0.823   3.660  20.111  0.00  0.00    +0.000 A 
ATOM     12  N   UNL     1       1.382   3.113  21.209  0.00  0.00    +0.000 NA
ATOM     13  C   UNL     1       2.682   2.769  21.115  0.00  0.00    +0.000 A 
ATOM     14  C   UNL     1       3.448   2.950  19.973  0.00  0.00    +0.000 A 
ENDBRANCH   1   9
TORSDOF 2
ENDMDL
MODEL 2
REMARK VINA RESULT:      -6.3      0.915      1.173
REMARK  Name = 
REMARK  2 active torsions:
REMARK  status: ('A' for Active; 'I' for Inactive)
REMARK    1  A    between atoms: C_1  and  C_9
REMARK    2  A    between atoms: C_2  and  C_3
REMARK                            x       y       z     vdW  Elec       q    Type
REMARK                         _______ _______ _______ _____ _____    ______ ____
ROOT
ATOM      1  C   UNL     1       3.570   4.425  17.402  0.00  0.00    +0.000 C 
ATOM      2  C   UNL     1       4.841   4.012  17.276  0.00  0.00    +0.000 C 
ENDROOT
BRANCH   2   3
ATOM      3  C   UNL     1       5.685   4.282  16.101  0.00  0.00    +0.000 A 
ATOM      4  C   UNL     1       5.434   3.745  14.836  0.00  0.00    +0.000 A 
ATOM      5  C   UNL     1       6.252   4.080  13.759  0.00  0.00    +0.000 A 
ATOM      6  C   UNL     1       7.300   4.959  13.977  0.00  0.00    +0.000 A 
ATOM      7  N   UNL     1       7.575   5.511  15.176  0.00  0.00    +0.000 NA
ATOM      8  C   UNL     1       6.762   5.162  16.204  0.00  0.00    +0.000 A 
ENDBRANCH   2   3
BRANCH   1   9
ATOM      9  C   UNL     1       2.710   4.153  18.566  0.00  0.00    +0.000 A 
ATOM     10  C   UNL     1       2.807   4.864  19.763  0.00  0.00    +0.000 A 
ATOM     11  C   UNL     1       1.930   4.555  20.792  0.00  0.00    +0.000 A 
ATOM     12  N   UNL     1       0.973   3.610  20.708  0.00  0.00    +0.000 NA
ATOM     13  C   UNL     1       0.884   2.945  19.538  0.00  0.00    +0.000 A 
ATOM     14  C   UNL     1       1.712   3.183  18.451  0.00  0.00    +0.000 A 
ENDBRANCH   1   9
TORSDOF 2
ENDMDL
MODEL 3
REMARK VINA RESULT:      -6.3      0.376      1.293
REMARK  Name = 
REMARK  2 active torsions:
REMARK  status: ('A' for Active; 'I' for Inactive)
REMARK    1  A    between atoms: C_1  and  C_9
REMARK    2  A    between atoms: C_2  and  C_3
REMARK                            x       y       z     vdW  Elec       q    Type
REMARK                         _______ _______ _______ _____ _____    ______ ____
ROOT
ATOM      1  C   UNL     1       4.107   3.402  18.054  0.00  0.00    +0.000 C 
ATOM      2  C   UNL     1       4.365   4.524  17.364  0.00  0.00    +0.000 C 
ENDROOT
BRANCH   2   3
ATOM      3  C   UNL     1       5.351   4.617  16.275  0.00  0.00    +0.000 A 
ATOM      4  C   UNL     1       5.187   3.991  15.037  0.00  0.00    +0.000 A 
ATOM      5  C   UNL     1       6.143   4.158  14.037  0.00  0.00    +0.000 A 
ATOM      6  C   UNL     1       7.239   4.962  14.302  0.00  0.00    +0.000 A 
ATOM      7  N   UNL     1       7.435   5.595  15.477  0.00  0.00    +0.000 NA
ATOM      8  C   UNL     1       6.488   5.409  16.430  0.00  0.00    +0.000 A 
ENDBRANCH   2   3
BRANCH   1   9
ATOM      9  C   UNL     1       3.132   3.297  19.152  0.00  0.00    +0.000 A 
ATOM     10  C   UNL     1       3.433   2.709  20.382  0.00  0.00    +0.000 A 
ATOM     11  C   UNL     1       2.455   2.687  21.365  0.00  0.00    +0.000 A 
ATOM     12  N   UNL     1       1.222   3.209  21.213  0.00  0.00    +0.000 NA
ATOM     13  C   UNL     1       0.954   3.786  20.024  0.00  0.00    +0.000 A 
ATOM     14  C   UNL     1       1.865   3.860  18.980  0.00  0.00    +0.000 A 
ENDBRANCH   1   9
TORSDOF 2
ENDMDL
MODEL 4
REMARK VINA RESULT:      -6.2      1.010      1.017
REMARK  Name = 
REMARK  2 active torsions:
REMARK  status: ('A' for Active; 'I' for Inactive)
REMARK    1  A    between atoms: C_1  and  C_9
REMARK    2  A    between atoms: C_2  and  C_3
REMARK                            x       y       z     vdW  Elec       q    Type
REMARK                         _______ _______ _______ _____ _____    ______ ____
ROOT
ATOM      1  C   UNL     1       3.759   4.662  17.564  0.00  0.00    +0.000 C 
ATOM      2  C   UNL     1       4.520   3.782  16.893  0.00  0.00    +0.000 C 
ENDROOT
BRANCH   2   3
ATOM      3  C   UNL     1       5.502   4.155  15.864  0.00  0.00    +0.000 A 
ATOM      4  C   UNL     1       5.403   3.756  14.528  0.00  0.00    +0.000 A 
ATOM      5  C   UNL     1       6.348   4.184  13.598  0.00  0.00    +0.000 A 
ATOM      6  C   UNL     1       7.368   5.015  14.032  0.00  0.00    +0.000 A 
ATOM      7  N   UNL     1       7.500   5.435  15.306  0.00  0.00    +0.000 NA
ATOM      8  C   UNL     1       6.565   4.998  16.187  0.00  0.00    +0.000 A 
ENDBRANCH   2   3
BRANCH   1   9
ATOM      9  C   UNL     1       2.765   4.304  18.589  0.00  0.00    +0.000 A 
ATOM     10  C   UNL     1       1.809   3.303  18.402  0.00  0.00    +0.000 A 
ATOM     11  C   UNL     1       0.936   3.017  19.440  0.00  0.00    +0.000 A 
ATOM     12  N   UNL     1       0.955   3.641  20.635  0.00  0.00    +0.000 NA
ATOM     13  C   UNL     1       1.895   4.593  20.802  0.00  0.00    +0.000 A 
ATOM     14  C   UNL     1       2.813   4.950  19.826  0.00  0.00    +0.000 A 
ENDBRANCH   1   9
TORSDOF 2
ENDMDL
MODEL 5
REMARK VINA RESULT:      -6.2      5.551      8.294
REMARK  Name = 
REMARK  2 active torsions:
REMARK  status: ('A' for Active; 'I' for Inactive)
REMARK    1  A    between atoms: C_1  and  C_9
REMARK    2  A    between atoms: C_2  and  C_3
REMARK                            x       y       z     vdW  Elec       q    Type
REMARK                         _______ _______ _______ _____ _____    ______ ____
ROOT
ATOM      1  C   UNL     1       8.449   9.339  18.200  0.00  0.00    +0.000 C 
ATOM      2  C   UNL     1       8.517   8.111  18.739  0.00  0.00    +0.000 C 
ENDROOT
BRANCH   2   3
ATOM      3  C   UNL     1       7.823   6.932  18.198  0.00  0.00    +0.000 A 
ATOM      4  C   UNL     1       7.277   6.886  16.912  0.00  0.00    +0.000 A 
ATOM      5  C   UNL     1       6.671   5.718  16.451  0.00  0.00    +0.000 A 
ATOM      6  C   UNL     1       6.639   4.618  17.292  0.00  0.00    +0.000 A 
ATOM      7  N   UNL     1       7.161   4.611  18.535  0.00  0.00    +0.000 NA
ATOM      8  C   UNL     1       7.740   5.763  18.954  0.00  0.00    +0.000 A 
ENDBRANCH   2   3
BRANCH   1   9
ATOM      9  C   UNL     1       9.129  10.530  18.735  0.00  0.00    +0.000 A 
ATOM     10  C   UNL     1       9.579  10.618  20.054  0.00  0.00    +0.000 A 
ATOM     11  C   UNL     1      10.238  11.771  20.455  0.00  0.00    +0.000 A 
ATOM     12  N   UNL     1      10.484  12.819  19.643  0.00  0.00    +0.000 NA
ATOM     13  C   UNL     1      10.055  12.709  18.370  0.00  0.00    +0.000 A 
ATOM     14  C   UNL     1       9.390  11.598  17.873  0.00  0.00    +0.000 A 
ENDBRANCH   1   9
TORSDOF 2
ENDMDL
MODEL 6
REMARK VINA RESULT:      -6.1      0.850      6.472
REMARK  Name = 
REMARK  2 active torsions:
REMARK  status: ('A' for Active; 'I' for Inactive)
REMARK    1  A    between atoms: C_1  and  C_9
REMARK    2  A    between atoms: C_2  and  C_3
REMARK                            x       y       z     vdW  Elec       q    Type
REMARK                         _______ _______ _______ _____ _____    ______ ____
ROOT
ATOM      1  C   UNL     1       4.210   4.012  17.452  0.00  0.00    +0.000 C 
ATOM      2  C   UNL     1       4.331   3.907  18.786  0.00  0.00    +0.000 C 
ENDROOT
BRANCH   2   3
ATOM      3  C   UNL     1       3.221   3.573  19.692  0.00  0.00    +0.000 A 
ATOM      4  C   UNL     1       1.889   3.906  19.429  0.00  0.00    +0.000 A 
ATOM      5  C   UNL     1       0.884   3.519  20.313  0.00  0.00    +0.000 A 
ATOM      6  C   UNL     1       1.241   2.795  21.438  0.00  0.00    +0.000 A 
ATOM      7  N   UNL     1       2.509   2.442  21.729  0.00  0.00    +0.000 NA
ATOM      8  C   UNL     1       3.463   2.836  20.850  0.00  0.00    +0.000 A 
ENDBRANCH   2   3
BRANCH   1   9
ATOM      9  C   UNL     1       5.309   4.355  16.534  0.00  0.00    +0.000 A 
ATOM     10  C   UNL     1       5.285   4.045  15.173  0.00  0.00    +0.000 A 
ATOM     11  C   UNL     1       6.355   4.439  14.383  0.00  0.00    +0.000 A 
ATOM     12  N   UNL     1       7.424   5.117  14.847  0.00  0.00    +0.000 NA
ATOM     13  C   UNL     1       7.422   5.421  16.161  0.00  0.00    +0.000 A 
ATOM     14  C   UNL     1       6.399   5.073  17.031  0.00  0.00    +0.000 A 
ENDBRANCH   1   9
TORSDOF 2
ENDMDL
MODEL 7
REMARK VINA RESULT:      -6.1      5.758      8.670
REMARK  Name = 
REMARK  2 active torsions:
REMARK  status: ('A' for Active; 'I' for Inactive)
REMARK    1  A    between atoms: C_1  and  C_9
REMARK    2  A    between atoms: C_2  and  C_3
REMARK                            x       y       z     vdW  Elec       q    Type
REMARK                         _______ _______ _______ _____ _____    ______ ____
ROOT
ATOM      1  C   UNL     1       8.816   9.524  18.676  0.00  0.00    +0.000 C 
ATOM      2  C   UNL     1       8.073   8.916  17.737  0.00  0.00    +0.000 C 
ENDROOT
BRANCH   2   3
ATOM      3  C   UNL     1       7.568   7.539  17.847  0.00  0.00    +0.000 A 
ATOM      4  C   UNL     1       8.093   6.598  18.736  0.00  0.00    +0.000 A 
ATOM      5  C   UNL     1       7.535   5.323  18.816  0.00  0.00    +0.000 A 
ATOM      6  C   UNL     1       6.451   5.028  18.005  0.00  0.00    +0.000 A 
ATOM      7  N   UNL     1       5.903   5.905  17.141  0.00  0.00    +0.000 NA
ATOM      8  C   UNL     1       6.471   7.135  17.085  0.00  0.00    +0.000 A 
ENDBRANCH   2   3
BRANCH   1   9
ATOM      9  C   UNL     1       9.337  10.897  18.576  0.00  0.00    +0.000 A 
ATOM     10  C   UNL     1       8.711  11.894  17.825  0.00  0.00    +0.000 A 
ATOM     11  C   UNL     1       9.262  13.166  17.819  0.00  0.00    +0.000 A 
ATOM     12  N   UNL     1      10.370  13.510  18.507  0.00  0.00    +0.000 NA
ATOM     13  C   UNL     1      10.952  12.539  19.239  0.00  0.00    +0.000 A 
ATOM     14  C   UNL     1      10.476  11.238  19.310  0.00  0.00    +0.000 A 
ENDBRANCH   1   9
TORSDOF 2
ENDMDL
MODEL 8
REMARK VINA RESULT:      -6.1      5.820      8.800
REMARK  Name = 
REMARK  2 active torsions:
REMARK  status: ('A' for Active; 'I' for Inactive)
REMARK    1  A    between atoms: C_1  and  C_9
REMARK    2  A    between atoms: C_2  and  C_3
REMARK                            x       y       z     vdW  Elec       q    Type
REMARK                         _______ _______ _______ _____ _____    ______ ____
ROOT
ATOM      1  C   UNL     1       8.920   9.535  18.797  0.00  0.00    +0.000 C 
ATOM      2  C   UNL     1       8.152   8.981  17.844  0.00  0.00    +0.000 C 
ENDROOT
BRANCH   2   3
ATOM      3  C   UNL     1       7.648   7.600  17.888  0.00  0.00    +0.000 A 
ATOM      4  C   UNL     1       8.150   6.628  18.758  0.00  0.00    +0.000 A 
ATOM      5  C   UNL     1       7.593   5.351  18.775  0.00  0.00    +0.000 A 
ATOM      6  C   UNL     1       6.534   5.083  17.924  0.00  0.00    +0.000 A 
ATOM      7  N   UNL     1       6.009   5.990  17.076  0.00  0.00    +0.000 NA
ATOM      8  C   UNL     1       6.575   7.223  17.082  0.00  0.00    +0.000 A 
ENDBRANCH   2   3
BRANCH   1   9
ATOM      9  C   UNL     1       9.440  10.912  18.761  0.00  0.00    +0.000 A 
ATOM     10  C   UNL     1      10.540  11.327  19.513  0.00  0.00    +0.000 A 
ATOM     11  C   UNL     1      10.975  12.638  19.386  0.00  0.00    +0.000 A 
ATOM     12  N   UNL     1      10.404  13.546  18.568  0.00  0.00    +0.000 NA
ATOM     13  C   UNL     1       9.353  13.122  17.839  0.00  0.00    +0.000 A 
ATOM     14  C   UNL     1       8.846  11.832  17.893  0.00  0.00    +0.000 A 
ENDBRANCH   1   9
TORSDOF 2
ENDMDL
MODEL 9
REMARK VINA RESULT:      -6.0      1.277      1.638
REMARK  Name = 
REMARK  2 active torsions:
REMARK  status: ('A' for Active; 'I' for Inactive)
REMARK    1  A    between atoms: C_1  and  C_9
REMARK    2  A    between atoms: C_2  and  C_3
REMARK                            x       y       z     vdW  Elec       q    Type
REMARK                         _______ _______ _______ _____ _____    ______ ____
ROOT
ATOM      1  C   UNL     1       4.401   4.848  16.677  0.00  0.00    +0.000 C 
ATOM      2  C   UNL     1       5.022   3.921  15.930  0.00  0.00    +0.000 C 
ENDROOT
BRANCH   2   3
ATOM      3  C   UNL     1       5.961   4.230  14.841  0.00  0.00    +0.000 A 
ATOM      4  C   UNL     1       5.822   3.731  13.543  0.00  0.00    +0.000 A 
ATOM      5  C   UNL     1       6.727   4.102  12.550  0.00  0.00    +0.000 A 
ATOM      6  C   UNL     1       7.746   4.978  12.884  0.00  0.00    +0.000 A 
ATOM      7  N   UNL     1       7.914   5.494  14.118  0.00  0.00    +0.000 NA
ATOM      8  C   UNL     1       7.019   5.111  15.061  0.00  0.00    +0.000 A 
ENDBRANCH   2   3
BRANCH   1   9
ATOM      9  C   UNL     1       3.451   4.554  17.763  0.00  0.00    +0.000 A 
ATOM     10  C   UNL     1       2.234   3.903  17.551  0.00  0.00    +0.000 A 
ATOM     11  C   UNL     1       1.422   3.642  18.644  0.00  0.00    +0.000 A 
ATOM     12  N   UNL     1       1.737   3.972  19.913  0.00  0.00    +0.000 NA
ATOM     13  C   UNL     1       2.923   4.587  20.099  0.00  0.00    +0.000 A 
ATOM     14  C   UNL     1       3.805   4.888  19.072  0.00  0.00    +0.000 A 
ENDBRANCH   1   9
TORSDOF 2
ENDMDL
