MODEL 1
REMARK VINA RESULT:      -9.3      0.000      0.000
REMARK  Name = 
REMARK  6 active torsions:
REMARK  status: ('A' for Active; 'I' for Inactive)
REMARK    1  A    between atoms: C_1  and  S_2
REMARK    2  A    between atoms: S_2  and  C_5
REMARK    3  A    between atoms: C_8  and  C_9
REMARK    4  A    between atoms: C_16  and  N_17
REMARK    5  A    between atoms: N_17  and  C_18
REMARK    6  A    between atoms: C_22  and  C_23
REMARK                            x       y       z     vdW  Elec       q    Type
REMARK                         _______ _______ _______ _____ _____    ______ ____
ROOT
ATOM      1  C   UNL     1       1.938   6.532  19.658  0.00  0.00    +0.000 A 
ATOM      2  C   UNL     1       1.593   5.851  20.832  0.00  0.00    +0.000 A 
ATOM      3  C   UNL     1       1.737   4.464  20.937  0.00  0.00    +0.000 A 
ATOM      4  C   UNL     1       2.226   3.699  19.894  0.00  0.00    +0.000 A 
ATOM      5  N   UNL     1       2.255   2.368  20.054  0.00  0.00    +0.000 NA
ATOM      6  C   UNL     1       2.722   1.621  19.037  0.00  0.00    +0.000 A 
ATOM      7  C   UNL     1       3.213   2.149  17.861  0.00  0.00    +0.000 A 
ATOM      8  C   UNL     1       3.205   3.534  17.689  0.00  0.00    +0.000 A 
ATOM      9  C   UNL     1       2.654   4.347  18.718  0.00  0.00    +0.000 A 
ATOM     10  C   UNL     1       2.492   5.759  18.622  0.00  0.00    +0.000 A 
ENDROOT
BRANCH   1  14
ATOM     11  C   UNL     1       1.163  10.746  19.241  0.00  0.00    +0.000 A 
ATOM     12  C   UNL     1       0.906  10.111  20.452  0.00  0.00    +0.000 A 
ATOM     13  C   UNL     1       1.184   8.748  20.587  0.00  0.00    +0.000 A 
ATOM     14  C   UNL     1       1.697   7.988  19.517  0.00  0.00    +0.000 A 
ATOM     15  C   UNL     1       1.926   8.659  18.299  0.00  0.00    +0.000 A 
ATOM     16  C   UNL     1       1.663  10.027  18.155  0.00  0.00    +0.000 A 
BRANCH  11  18
ATOM     17  C   UNL     1      -0.762  12.502  18.306  0.00  0.00    +0.000 C 
ATOM     18  S   UNL     1       0.837  12.482  19.074  0.00  0.00    +0.000 S 
ATOM     19  O   UNL     1       1.797  13.020  18.126  0.00  0.00    +0.000 OA
ATOM     20  O   UNL     1       0.710  13.038  20.405  0.00  0.00    +0.000 OA
ENDBRANCH  11  18
ENDBRANCH   1  14
BRANCH   8  21
ATOM     21  N   UNL     1       3.698   4.128  16.502  0.00  0.00    +0.000 N 
ATOM     22  H   UNL     1       2.955   4.453  15.890  0.00  0.00    +0.000 HD
BRANCH  21  23
ATOM     23  C   UNL     1       4.966   4.643  16.182  0.00  0.00    +0.000 A 
ATOM     24  C   UNL     1       5.738   4.136  15.143  0.00  0.00    +0.000 A 
ATOM     25  C   UNL     1       6.975   4.706  14.900  0.00  0.00    +0.000 A 
ATOM     26  N   UNL     1       7.499   5.712  15.635  0.00  0.00    +0.000 NA
ATOM     27  C   UNL     1       6.763   6.195  16.666  0.00  0.00    +0.000 A 
ATOM     28  C   UNL     1       5.499   5.678  16.954  0.00  0.00    +0.000 A 
BRANCH  27  29
ATOM     29  C   UNL     1       7.417   7.228  17.495  0.00  0.00    +0.000 A 
ATOM     30  C   UNL     1       7.349   8.586  17.126  0.00  0.00    +0.000 A 
ATOM     31  C   UNL     1       8.029   9.562  17.851  0.00  0.00    +0.000 A 
ATOM     32  F   UNL     1       7.966  10.841  17.457  0.00  0.00    +0.000 F 
ATOM     33  C   UNL     1       8.784   9.231  18.969  0.00  0.00    +0.000 A 
ATOM     34  C   UNL     1       8.841   7.903  19.377  0.00  0.00    +0.000 A 
ATOM     35  C   UNL     1       8.159   6.923  18.651  0.00  0.00    +0.000 A 
ATOM     36  F   UNL     1       8.238   5.661  19.101  0.00  0.00    +0.000 F 
ENDBRANCH  27  29
ENDBRANCH  21  23
ENDBRANCH   8  21
TORSDOF 5
ENDMDL
MODEL 2
REMARK VINA RESULT:      -9.3      2.263      3.871
REMARK  Name = 
REMARK  6 active torsions:
REMARK  status: ('A' for Active; 'I' for Inactive)
REMARK    1  A    between atoms: C_1  and  S_2
REMARK    2  A    between atoms: S_2  and  C_5
REMARK    3  A    between atoms: C_8  and  C_9
REMARK    4  A    between atoms: C_16  and  N_17
REMARK    5  A    between atoms: N_17  and  C_18
REMARK    6  A    between atoms: C_22  and  C_23
REMARK                            x       y       z     vdW  Elec       q    Type
REMARK                         _______ _______ _______ _____ _____    ______ ____
ROOT
ATOM      1  C   UNL     1       1.781   6.021  20.161  0.00  0.00    +0.000 A 
ATOM      2  C   UNL     1       0.733   5.101  20.286  0.00  0.00    +0.000 A 
ATOM      3  C   UNL     1       0.932   3.737  20.052  0.00  0.00    +0.000 A 
ATOM      4  C   UNL     1       2.166   3.230  19.689  0.00  0.00    +0.000 A 
ATOM      5  N   UNL     1       2.248   1.922  19.407  0.00  0.00    +0.000 NA
ATOM      6  C   UNL     1       3.446   1.429  19.045  0.00  0.00    +0.000 A 
ATOM      7  C   UNL     1       4.601   2.182  18.992  0.00  0.00    +0.000 A 
ATOM      8  C   UNL     1       4.533   3.541  19.301  0.00  0.00    +0.000 A 
ATOM      9  C   UNL     1       3.268   4.107  19.621  0.00  0.00    +0.000 A 
ATOM     10  C   UNL     1       3.048   5.495  19.852  0.00  0.00    +0.000 A 
ENDROOT
BRANCH   1  14
ATOM     11  C   UNL     1       1.021  10.234  20.619  0.00  0.00    +0.000 A 
ATOM     12  C   UNL     1       0.915   9.388  21.719  0.00  0.00    +0.000 A 
ATOM     13  C   UNL     1       1.189   8.026  21.566  0.00  0.00    +0.000 A 
ATOM     14  C   UNL     1       1.546   7.477  20.319  0.00  0.00    +0.000 A 
ATOM     15  C   UNL     1       1.622   8.359  19.222  0.00  0.00    +0.000 A 
ATOM     16  C   UNL     1       1.364   9.729  19.365  0.00  0.00    +0.000 A 
BRANCH  11  18
ATOM     17  C   UNL     1       0.145  12.441  19.197  0.00  0.00    +0.000 C 
ATOM     18  S   UNL     1       0.702  11.969  20.813  0.00  0.00    +0.000 S 
ATOM     19  O   UNL     1       1.975  12.624  21.058  0.00  0.00    +0.000 OA
ATOM     20  O   UNL     1      -0.404  12.114  21.736  0.00  0.00    +0.000 OA
ENDBRANCH  11  18
ENDBRANCH   1  14
BRANCH   8  21
ATOM     21  N   UNL     1       5.688   4.359  19.262  0.00  0.00    +0.000 N 
ATOM     22  H   UNL     1       6.300   4.210  20.059  0.00  0.00    +0.000 HD
BRANCH  21  23
ATOM     23  C   UNL     1       6.296   5.055  18.202  0.00  0.00    +0.000 A 
ATOM     24  C   UNL     1       6.967   6.258  18.385  0.00  0.00    +0.000 A 
ATOM     25  C   UNL     1       7.534   6.872  17.284  0.00  0.00    +0.000 A 
ATOM     26  N   UNL     1       7.448   6.390  16.024  0.00  0.00    +0.000 NA
ATOM     27  C   UNL     1       6.774   5.230  15.833  0.00  0.00    +0.000 A 
ATOM     28  C   UNL     1       6.193   4.548  16.904  0.00  0.00    +0.000 A 
BRANCH  27  29
ATOM     29  C   UNL     1       6.629   4.793  14.429  0.00  0.00    +0.000 A 
ATOM     30  C   UNL     1       5.470   4.111  14.011  0.00  0.00    +0.000 A 
ATOM     31  C   UNL     1       5.354   3.620  12.712  0.00  0.00    +0.000 A 
ATOM     32  F   UNL     1       4.250   2.951  12.355  0.00  0.00    +0.000 F 
ATOM     33  C   UNL     1       6.371   3.798  11.784  0.00  0.00    +0.000 A 
ATOM     34  C   UNL     1       7.513   4.497  12.159  0.00  0.00    +0.000 A 
ATOM     35  C   UNL     1       7.630   4.991  13.461  0.00  0.00    +0.000 A 
ATOM     36  F   UNL     1       8.748   5.671  13.760  0.00  0.00    +0.000 F 
ENDBRANCH  27  29
ENDBRANCH  21  23
ENDBRANCH   8  21
TORSDOF 5
ENDMDL
MODEL 3
REMARK VINA RESULT:      -9.2      0.648      1.137
REMARK  Name = 
REMARK  6 active torsions:
REMARK  status: ('A' for Active; 'I' for Inactive)
REMARK    1  A    between atoms: C_1  and  S_2
REMARK    2  A    between atoms: S_2  and  C_5
REMARK    3  A    between atoms: C_8  and  C_9
REMARK    4  A    between atoms: C_16  and  N_17
REMARK    5  A    between atoms: N_17  and  C_18
REMARK    6  A    between atoms: C_22  and  C_23
REMARK                            x       y       z     vdW  Elec       q    Type
REMARK                         _______ _______ _______ _____ _____    ______ ____
ROOT
ATOM      1  C   UNL     1       2.016   6.335  19.694  0.00  0.00    +0.000 A 
ATOM      2  C   UNL     1       1.715   5.647  20.877  0.00  0.00    +0.000 A 
ATOM      3  C   UNL     1       1.900   4.265  20.980  0.00  0.00    +0.000 A 
ATOM      4  C   UNL     1       2.387   3.512  19.928  0.00  0.00    +0.000 A 
ATOM      5  N   UNL     1       2.457   2.183  20.089  0.00  0.00    +0.000 NA
ATOM      6  C   UNL     1       2.923   1.447  19.063  0.00  0.00    +0.000 A 
ATOM      7  C   UNL     1       3.373   1.985  17.876  0.00  0.00    +0.000 A 
ATOM      8  C   UNL     1       3.323   3.370  17.703  0.00  0.00    +0.000 A 
ATOM      9  C   UNL     1       2.772   4.169  18.742  0.00  0.00    +0.000 A 
ATOM     10  C   UNL     1       2.569   5.576  18.647  0.00  0.00    +0.000 A 
ENDROOT
BRANCH   1  14
ATOM     11  C   UNL     1       1.266  10.556  19.308  0.00  0.00    +0.000 A 
ATOM     12  C   UNL     1       1.835   9.855  18.249  0.00  0.00    +0.000 A 
ATOM     13  C   UNL     1       2.051   8.479  18.374  0.00  0.00    +0.000 A 
ATOM     14  C   UNL     1       1.732   7.783  19.557  0.00  0.00    +0.000 A 
ATOM     15  C   UNL     1       1.177   8.530  20.616  0.00  0.00    +0.000 A 
ATOM     16  C   UNL     1       0.943   9.906  20.499  0.00  0.00    +0.000 A 
BRANCH  11  18
ATOM     17  C   UNL     1       2.325  12.832  18.141  0.00  0.00    +0.000 C 
ATOM     18  S   UNL     1       0.964  12.297  19.144  0.00  0.00    +0.000 S 
ATOM     19  O   UNL     1       1.115  12.894  20.460  0.00  0.00    +0.000 OA
ATOM     20  O   UNL     1      -0.256  12.465  18.384  0.00  0.00    +0.000 OA
ENDBRANCH  11  18
ENDBRANCH   1  14
BRANCH   8  21
ATOM     21  N   UNL     1       3.773   3.974  16.504  0.00  0.00    +0.000 N 
ATOM     22  H   UNL     1       3.009   4.263  15.900  0.00  0.00    +0.000 HD
BRANCH  21  23
ATOM     23  C   UNL     1       5.014   4.542  16.162  0.00  0.00    +0.000 A 
ATOM     24  C   UNL     1       5.772   4.088  15.090  0.00  0.00    +0.000 A 
ATOM     25  C   UNL     1       6.981   4.707  14.828  0.00  0.00    +0.000 A 
ATOM     26  N   UNL     1       7.492   5.711  15.574  0.00  0.00    +0.000 NA
ATOM     27  C   UNL     1       6.770   6.143  16.638  0.00  0.00    +0.000 A 
ATOM     28  C   UNL     1       5.533   5.575  16.947  0.00  0.00    +0.000 A 
BRANCH  27  29
ATOM     29  C   UNL     1       7.411   7.177  17.475  0.00  0.00    +0.000 A 
ATOM     30  C   UNL     1       7.346   8.534  17.105  0.00  0.00    +0.000 A 
ATOM     31  C   UNL     1       8.015   9.511  17.839  0.00  0.00    +0.000 A 
ATOM     32  F   UNL     1       7.956  10.790  17.444  0.00  0.00    +0.000 F 
ATOM     33  C   UNL     1       8.757   9.182  18.966  0.00  0.00    +0.000 A 
ATOM     34  C   UNL     1       8.811   7.854  19.374  0.00  0.00    +0.000 A 
ATOM     35  C   UNL     1       8.139   6.873  18.640  0.00  0.00    +0.000 A 
ATOM     36  F   UNL     1       8.215   5.610  19.090  0.00  0.00    +0.000 F 
ENDBRANCH  27  29
ENDBRANCH  21  23
ENDBRANCH   8  21
TORSDOF 5
ENDMDL
MODEL 4
REMARK VINA RESULT:      -8.9      2.250      3.715
REMARK  Name = 
REMARK  6 active torsions:
REMARK  status: ('A' for Active; 'I' for Inactive)
REMARK    1  A    between atoms: C_1  and  S_2
REMARK    2  A    between atoms: S_2  and  C_5
REMARK    3  A    between atoms: C_8  and  C_9
REMARK    4  A    between atoms: C_16  and  N_17
REMARK    5  A    between atoms: N_17  and  C_18
REMARK    6  A    between atoms: C_22  and  C_23
REMARK                            x       y       z     vdW  Elec       q    Type
REMARK                         _______ _______ _______ _____ _____    ______ ____
ROOT
ATOM      1  C   UNL     1       1.825   6.003  20.131  0.00  0.00    +0.000 A 
ATOM      2  C   UNL     1       0.784   5.070  20.217  0.00  0.00    +0.000 A 
ATOM      3  C   UNL     1       1.013   3.705  20.015  0.00  0.00    +0.000 A 
ATOM      4  C   UNL     1       2.271   3.211  19.722  0.00  0.00    +0.000 A 
ATOM      5  N   UNL     1       2.384   1.900  19.465  0.00  0.00    +0.000 NA
ATOM      6  C   UNL     1       3.605   1.418  19.171  0.00  0.00    +0.000 A 
ATOM      7  C   UNL     1       4.751   2.186  19.163  0.00  0.00    +0.000 A 
ATOM      8  C   UNL     1       4.649   3.549  19.448  0.00  0.00    +0.000 A 
ATOM      9  C   UNL     1       3.363   4.102  19.695  0.00  0.00    +0.000 A 
ATOM     10  C   UNL     1       3.113   5.490  19.893  0.00  0.00    +0.000 A 
ENDROOT
BRANCH   1  14
ATOM     11  C   UNL     1       1.140  10.238  20.492  0.00  0.00    +0.000 A 
ATOM     12  C   UNL     1       1.523   9.701  19.267  0.00  0.00    +0.000 A 
ATOM     13  C   UNL     1       1.718   8.321  19.152  0.00  0.00    +0.000 A 
ATOM     14  C   UNL     1       1.563   7.457  20.254  0.00  0.00    +0.000 A 
ATOM     15  C   UNL     1       1.195   8.038  21.485  0.00  0.00    +0.000 A 
ATOM     16  C   UNL     1       0.984   9.417  21.609  0.00  0.00    +0.000 A 
BRANCH  11  18
ATOM     17  C   UNL     1      -0.496  12.069  21.770  0.00  0.00    +0.000 C 
ATOM     18  S   UNL     1       0.864  11.985  20.635  0.00  0.00    +0.000 S 
ATOM     19  O   UNL     1       0.402  12.463  19.344  0.00  0.00    +0.000 OA
ATOM     20  O   UNL     1       2.027  12.565  21.274  0.00  0.00    +0.000 OA
ENDBRANCH  11  18
ENDBRANCH   1  14
BRANCH   8  21
ATOM     21  N   UNL     1       5.794   4.383  19.455  0.00  0.00    +0.000 N 
ATOM     22  H   UNL     1       6.392   4.220  20.260  0.00  0.00    +0.000 HD
BRANCH  21  23
ATOM     23  C   UNL     1       6.413   5.114  18.426  0.00  0.00    +0.000 A 
ATOM     24  C   UNL     1       6.993   6.360  18.639  0.00  0.00    +0.000 A 
ATOM     25  C   UNL     1       7.579   7.008  17.567  0.00  0.00    +0.000 A 
ATOM     26  N   UNL     1       7.597   6.518  16.308  0.00  0.00    +0.000 NA
ATOM     27  C   UNL     1       7.012   5.315  16.086  0.00  0.00    +0.000 A 
ATOM     28  C   UNL     1       6.418   4.599  17.127  0.00  0.00    +0.000 A 
BRANCH  27  29
ATOM     29  C   UNL     1       6.976   4.866  14.679  0.00  0.00    +0.000 A 
ATOM     30  C   UNL     1       7.630   5.608  13.677  0.00  0.00    +0.000 A 
ATOM     31  C   UNL     1       7.536   5.244  12.336  0.00  0.00    +0.000 A 
ATOM     32  F   UNL     1       8.147   5.988  11.405  0.00  0.00    +0.000 F 
ATOM     33  C   UNL     1       6.806   4.129  11.944  0.00  0.00    +0.000 A 
ATOM     34  C   UNL     1       6.178   3.358  12.915  0.00  0.00    +0.000 A 
ATOM     35  C   UNL     1       6.272   3.722  14.261  0.00  0.00    +0.000 A 
ATOM     36  F   UNL     1       5.658   2.930  15.155  0.00  0.00    +0.000 F 
ENDBRANCH  27  29
ENDBRANCH  21  23
ENDBRANCH   8  21
TORSDOF 5
ENDMDL
MODEL 5
REMARK VINA RESULT:      -8.8      2.267      3.656
REMARK  Name = 
REMARK  6 active torsions:
REMARK  status: ('A' for Active; 'I' for Inactive)
REMARK    1  A    between atoms: C_1  and  S_2
REMARK    2  A    between atoms: S_2  and  C_5
REMARK    3  A    between atoms: C_8  and  C_9
REMARK    4  A    between atoms: C_16  and  N_17
REMARK    5  A    between atoms: N_17  and  C_18
REMARK    6  A    between atoms: C_22  and  C_23
REMARK                            x       y       z     vdW  Elec       q    Type
REMARK                         _______ _______ _______ _____ _____    ______ ____
ROOT
ATOM      1  C   UNL     1       1.785   6.016  20.125  0.00  0.00    +0.000 A 
ATOM      2  C   UNL     1       0.763   5.066  20.252  0.00  0.00    +0.000 A 
ATOM      3  C   UNL     1       1.020   3.699  20.108  0.00  0.00    +0.000 A 
ATOM      4  C   UNL     1       2.288   3.219  19.836  0.00  0.00    +0.000 A 
ATOM      5  N   UNL     1       2.428   1.900  19.636  0.00  0.00    +0.000 NA
ATOM      6  C   UNL     1       3.659   1.432  19.362  0.00  0.00    +0.000 A 
ATOM      7  C   UNL     1       4.789   2.222  19.322  0.00  0.00    +0.000 A 
ATOM      8  C   UNL     1       4.659   3.594  19.547  0.00  0.00    +0.000 A 
ATOM      9  C   UNL     1       3.362   4.130  19.771  0.00  0.00    +0.000 A 
ATOM     10  C   UNL     1       3.083   5.520  19.909  0.00  0.00    +0.000 A 
ENDROOT
BRANCH   1  14
ATOM     11  C   UNL     1       0.863  10.218  20.286  0.00  0.00    +0.000 A 
ATOM     12  C   UNL     1       0.560   9.401  21.371  0.00  0.00    +0.000 A 
ATOM     13  C   UNL     1       0.886   8.042  21.320  0.00  0.00    +0.000 A 
ATOM     14  C   UNL     1       1.493   7.468  20.186  0.00  0.00    +0.000 A 
ATOM     15  C   UNL     1       1.766   8.321  19.097  0.00  0.00    +0.000 A 
ATOM     16  C   UNL     1       1.456   9.687  19.141  0.00  0.00    +0.000 A 
BRANCH  11  18
ATOM     17  C   UNL     1       1.603  12.644  19.178  0.00  0.00    +0.000 C 
ATOM     18  S   UNL     1       0.475  11.948  20.357  0.00  0.00    +0.000 S 
ATOM     19  O   UNL     1       0.852  12.429  21.675  0.00  0.00    +0.000 OA
ATOM     20  O   UNL     1      -0.872  12.120  19.855  0.00  0.00    +0.000 OA
ENDBRANCH  11  18
ENDBRANCH   1  14
BRANCH   8  21
ATOM     21  N   UNL     1       5.787   4.450  19.518  0.00  0.00    +0.000 N 
ATOM     22  H   UNL     1       6.396   4.322  20.321  0.00  0.00    +0.000 HD
BRANCH  21  23
ATOM     23  C   UNL     1       6.381   5.164  18.462  0.00  0.00    +0.000 A 
ATOM     24  C   UNL     1       6.943   6.423  18.635  0.00  0.00    +0.000 A 
ATOM     25  C   UNL     1       7.504   7.052  17.539  0.00  0.00    +0.000 A 
ATOM     26  N   UNL     1       7.513   6.530  16.292  0.00  0.00    +0.000 NA
ATOM     27  C   UNL     1       6.944   5.312  16.110  0.00  0.00    +0.000 A 
ATOM     28  C   UNL     1       6.376   4.615  17.177  0.00  0.00    +0.000 A 
BRANCH  27  29
ATOM     29  C   UNL     1       6.896   4.826  14.716  0.00  0.00    +0.000 A 
ATOM     30  C   UNL     1       7.541   5.542  13.689  0.00  0.00    +0.000 A 
ATOM     31  C   UNL     1       7.435   5.142  12.358  0.00  0.00    +0.000 A 
ATOM     32  F   UNL     1       8.039   5.861  11.403  0.00  0.00    +0.000 F 
ATOM     33  C   UNL     1       6.702   4.018  12.003  0.00  0.00    +0.000 A 
ATOM     34  C   UNL     1       6.083   3.272  12.999  0.00  0.00    +0.000 A 
ATOM     35  C   UNL     1       6.189   3.672  14.334  0.00  0.00    +0.000 A 
ATOM     36  F   UNL     1       5.582   2.904  15.254  0.00  0.00    +0.000 F 
ENDBRANCH  27  29
ENDBRANCH  21  23
ENDBRANCH   8  21
TORSDOF 5
ENDMDL
MODEL 6
REMARK VINA RESULT:      -8.8      4.671      8.099
REMARK  Name = 
REMARK  6 active torsions:
REMARK  status: ('A' for Active; 'I' for Inactive)
REMARK    1  A    between atoms: C_1  and  S_2
REMARK    2  A    between atoms: S_2  and  C_5
REMARK    3  A    between atoms: C_8  and  C_9
REMARK    4  A    between atoms: C_16  and  N_17
REMARK    5  A    between atoms: N_17  and  C_18
REMARK    6  A    between atoms: C_22  and  C_23
REMARK                            x       y       z     vdW  Elec       q    Type
REMARK                         _______ _______ _______ _____ _____    ______ ____
ROOT
ATOM      1  C   UNL     1      -1.647  13.683  20.242  0.00  0.00    +0.000 A 
ATOM      2  C   UNL     1      -1.161  14.996  20.283  0.00  0.00    +0.000 A 
ATOM      3  C   UNL     1       0.104  15.319  19.782  0.00  0.00    +0.000 A 
ATOM      4  C   UNL     1       0.934  14.366  19.224  0.00  0.00    +0.000 A 
ATOM      5  N   UNL     1       2.161  14.750  18.842  0.00  0.00    +0.000 NA
ATOM      6  C   UNL     1       2.974  13.821  18.306  0.00  0.00    +0.000 A 
ATOM      7  C   UNL     1       2.602  12.511  18.087  0.00  0.00    +0.000 A 
ATOM      8  C   UNL     1       1.321  12.103  18.463  0.00  0.00    +0.000 A 
ATOM      9  C   UNL     1       0.461  13.043  19.094  0.00  0.00    +0.000 A 
ATOM     10  C   UNL     1      -0.825  12.727  19.618  0.00  0.00    +0.000 A 
ENDROOT
BRANCH   1  14
ATOM     11  C   UNL     1      -5.456  12.713  21.996  0.00  0.00    +0.000 A 
ATOM     12  C   UNL     1      -5.236  12.472  20.643  0.00  0.00    +0.000 A 
ATOM     13  C   UNL     1      -3.987  12.766  20.088  0.00  0.00    +0.000 A 
ATOM     14  C   UNL     1      -2.948  13.327  20.856  0.00  0.00    +0.000 A 
ATOM     15  C   UNL     1      -3.213  13.577  22.218  0.00  0.00    +0.000 A 
ATOM     16  C   UNL     1      -4.456  13.275  22.790  0.00  0.00    +0.000 A 
BRANCH  11  18
ATOM     17  C   UNL     1      -7.917  13.846  22.568  0.00  0.00    +0.000 C 
ATOM     18  S   UNL     1      -7.031  12.316  22.712  0.00  0.00    +0.000 S 
ATOM     19  O   UNL     1      -6.816  12.053  24.125  0.00  0.00    +0.000 OA
ATOM     20  O   UNL     1      -7.670  11.337  21.859  0.00  0.00    +0.000 OA
ENDBRANCH  11  18
ENDBRANCH   1  14
BRANCH   8  21
ATOM     21  N   UNL     1       0.888  10.770  18.259  0.00  0.00    +0.000 N 
ATOM     22  H   UNL     1       0.442  10.637  17.356  0.00  0.00    +0.000 HD
BRANCH  21  23
ATOM     23  C   UNL     1       1.254   9.570  18.894  0.00  0.00    +0.000 A 
ATOM     24  C   UNL     1       0.993   9.327  20.238  0.00  0.00    +0.000 A 
ATOM     25  C   UNL     1       1.390   8.118  20.779  0.00  0.00    +0.000 A 
ATOM     26  N   UNL     1       2.049   7.162  20.088  0.00  0.00    +0.000 NA
ATOM     27  C   UNL     1       2.330   7.402  18.783  0.00  0.00    +0.000 A 
ATOM     28  C   UNL     1       1.942   8.594  18.169  0.00  0.00    +0.000 A 
BRANCH  27  29
ATOM     29  C   UNL     1       3.132   6.368  18.097  0.00  0.00    +0.000 A 
ATOM     30  C   UNL     1       4.370   6.699  17.512  0.00  0.00    +0.000 A 
ATOM     31  C   UNL     1       5.098   5.756  16.790  0.00  0.00    +0.000 A 
ATOM     32  F   UNL     1       6.258   6.110  16.223  0.00  0.00    +0.000 F 
ATOM     33  C   UNL     1       4.634   4.456  16.635  0.00  0.00    +0.000 A 
ATOM     34  C   UNL     1       3.432   4.092  17.230  0.00  0.00    +0.000 A 
ATOM     35  C   UNL     1       2.701   5.037  17.955  0.00  0.00    +0.000 A 
ATOM     36  F   UNL     1       1.555   4.624  18.520  0.00  0.00    +0.000 F 
ENDBRANCH  27  29
ENDBRANCH  21  23
ENDBRANCH   8  21
TORSDOF 5
ENDMDL
MODEL 7
REMARK VINA RESULT:      -8.8      5.250      8.556
REMARK  Name = 
REMARK  6 active torsions:
REMARK  status: ('A' for Active; 'I' for Inactive)
REMARK    1  A    between atoms: C_1  and  S_2
REMARK    2  A    between atoms: S_2  and  C_5
REMARK    3  A    between atoms: C_8  and  C_9
REMARK    4  A    between atoms: C_16  and  N_17
REMARK    5  A    between atoms: N_17  and  C_18
REMARK    6  A    between atoms: C_22  and  C_23
REMARK                            x       y       z     vdW  Elec       q    Type
REMARK                         _______ _______ _______ _____ _____    ______ ____
ROOT
ATOM      1  C   UNL     1       1.045  11.417  18.782  0.00  0.00    +0.000 A 
ATOM      2  C   UNL     1      -0.284  11.809  18.988  0.00  0.00    +0.000 A 
ATOM      3  C   UNL     1      -0.656  13.157  18.968  0.00  0.00    +0.000 A 
ATOM      4  C   UNL     1       0.263  14.165  18.744  0.00  0.00    +0.000 A 
ATOM      5  N   UNL     1      -0.167  15.433  18.821  0.00  0.00    +0.000 NA
ATOM      6  C   UNL     1       0.728  16.416  18.612  0.00  0.00    +0.000 A 
ATOM      7  C   UNL     1       2.048  16.193  18.280  0.00  0.00    +0.000 A 
ATOM      8  C   UNL     1       2.504  14.877  18.179  0.00  0.00    +0.000 A 
ATOM      9  C   UNL     1       1.600  13.817  18.460  0.00  0.00    +0.000 A 
ATOM     10  C   UNL     1       1.966  12.441  18.494  0.00  0.00    +0.000 A 
ENDROOT
BRANCH   1  14
ATOM     11  C   UNL     1       2.288   7.313  19.155  0.00  0.00    +0.000 A 
ATOM     12  C   UNL     1       1.656   7.944  20.222  0.00  0.00    +0.000 A 
ATOM     13  C   UNL     1       1.233   9.269  20.083  0.00  0.00    +0.000 A 
ATOM     14  C   UNL     1       1.452   9.996  18.896  0.00  0.00    +0.000 A 
ATOM     15  C   UNL     1       2.115   9.332  17.844  0.00  0.00    +0.000 A 
ATOM     16  C   UNL     1       2.532   8.001  17.966  0.00  0.00    +0.000 A 
BRANCH  11  18
ATOM     17  C   UNL     1       1.957   5.100  20.785  0.00  0.00    +0.000 C 
ATOM     18  S   UNL     1       2.803   5.622  19.316  0.00  0.00    +0.000 S 
ATOM     19  O   UNL     1       4.229   5.623  19.597  0.00  0.00    +0.000 OA
ATOM     20  O   UNL     1       2.263   4.887  18.193  0.00  0.00    +0.000 OA
ENDBRANCH  11  18
ENDBRANCH   1  14
BRANCH   8  21
ATOM     21  N   UNL     1       3.849  14.593  17.839  0.00  0.00    +0.000 N 
ATOM     22  H   UNL     1       3.992  14.521  16.837  0.00  0.00    +0.000 HD
BRANCH  21  23
ATOM     23  C   UNL     1       5.039  14.733  18.575  0.00  0.00    +0.000 A 
ATOM     24  C   UNL     1       5.065  15.267  19.858  0.00  0.00    +0.000 A 
ATOM     25  C   UNL     1       6.282  15.367  20.507  0.00  0.00    +0.000 A 
ATOM     26  N   UNL     1       7.462  15.005  19.958  0.00  0.00    +0.000 NA
ATOM     27  C   UNL     1       7.449  14.507  18.697  0.00  0.00    +0.000 A 
ATOM     28  C   UNL     1       6.253  14.361  17.991  0.00  0.00    +0.000 A 
BRANCH  27  29
ATOM     29  C   UNL     1       8.770  14.213  18.106  0.00  0.00    +0.000 A 
ATOM     30  C   UNL     1       9.199  12.881  17.947  0.00  0.00    +0.000 A 
ATOM     31  C   UNL     1      10.475  12.589  17.469  0.00  0.00    +0.000 A 
ATOM     32  F   UNL     1      10.862  11.312  17.357  0.00  0.00    +0.000 F 
ATOM     33  C   UNL     1      11.360  13.601  17.120  0.00  0.00    +0.000 A 
ATOM     34  C   UNL     1      10.951  14.925  17.234  0.00  0.00    +0.000 A 
ATOM     35  C   UNL     1       9.671  15.219  17.712  0.00  0.00    +0.000 A 
ATOM     36  F   UNL     1       9.327  16.514  17.786  0.00  0.00    +0.000 F 
ENDBRANCH  27  29
ENDBRANCH  21  23
ENDBRANCH   8  21
TORSDOF 5
ENDMDL
MODEL 8
REMARK VINA RESULT:      -8.7      5.338      8.512
REMARK  Name = 
REMARK  6 active torsions:
REMARK  status: ('A' for Active; 'I' for Inactive)
REMARK    1  A    between atoms: C_1  and  S_2
REMARK    2  A    between atoms: S_2  and  C_5
REMARK    3  A    between atoms: C_8  and  C_9
REMARK    4  A    between atoms: C_16  and  N_17
REMARK    5  A    between atoms: N_17  and  C_18
REMARK    6  A    between atoms: C_22  and  C_23
REMARK                            x       y       z     vdW  Elec       q    Type
REMARK                         _______ _______ _______ _____ _____    ______ ____
ROOT
ATOM      1  C   UNL     1       1.053  11.362  18.772  0.00  0.00    +0.000 A 
ATOM      2  C   UNL     1      -0.277  11.765  18.950  0.00  0.00    +0.000 A 
ATOM      3  C   UNL     1      -0.636  13.115  18.927  0.00  0.00    +0.000 A 
ATOM      4  C   UNL     1       0.296  14.117  18.729  0.00  0.00    +0.000 A 
ATOM      5  N   UNL     1      -0.125  15.388  18.802  0.00  0.00    +0.000 NA
ATOM      6  C   UNL     1       0.782  16.364  18.618  0.00  0.00    +0.000 A 
ATOM      7  C   UNL     1       2.108  16.132  18.314  0.00  0.00    +0.000 A 
ATOM      8  C   UNL     1       2.555  14.812  18.217  0.00  0.00    +0.000 A 
ATOM      9  C   UNL     1       1.636  13.758  18.474  0.00  0.00    +0.000 A 
ATOM     10  C   UNL     1       1.989  12.379  18.510  0.00  0.00    +0.000 A 
ENDROOT
BRANCH   1  14
ATOM     11  C   UNL     1       2.255   7.246  19.151  0.00  0.00    +0.000 A 
ATOM     12  C   UNL     1       1.646   7.891  20.223  0.00  0.00    +0.000 A 
ATOM     13  C   UNL     1       1.235   9.220  20.083  0.00  0.00    +0.000 A 
ATOM     14  C   UNL     1       1.446   9.937  18.889  0.00  0.00    +0.000 A 
ATOM     15  C   UNL     1       2.085   9.260  17.831  0.00  0.00    +0.000 A 
ATOM     16  C   UNL     1       2.488   7.924  17.955  0.00  0.00    +0.000 A 
BRANCH  11  18
ATOM     17  C   UNL     1       1.829   5.013  20.731  0.00  0.00    +0.000 C 
ATOM     18  S   UNL     1       2.752   5.550  19.316  0.00  0.00    +0.000 S 
ATOM     19  O   UNL     1       4.162   5.540  19.669  0.00  0.00    +0.000 OA
ATOM     20  O   UNL     1       2.267   4.833  18.156  0.00  0.00    +0.000 OA
ENDBRANCH  11  18
ENDBRANCH   1  14
BRANCH   8  21
ATOM     21  N   UNL     1       3.905  14.518  17.907  0.00  0.00    +0.000 N 
ATOM     22  H   UNL     1       4.050  14.345  16.917  0.00  0.00    +0.000 HD
BRANCH  21  23
ATOM     23  C   UNL     1       5.092  14.754  18.623  0.00  0.00    +0.000 A 
ATOM     24  C   UNL     1       5.099  15.329  19.888  0.00  0.00    +0.000 A 
ATOM     25  C   UNL     1       6.315  15.524  20.518  0.00  0.00    +0.000 A 
ATOM     26  N   UNL     1       7.509  15.217  19.965  0.00  0.00    +0.000 NA
ATOM     27  C   UNL     1       7.512  14.678  18.720  0.00  0.00    +0.000 A 
ATOM     28  C   UNL     1       6.320  14.438  18.035  0.00  0.00    +0.000 A 
BRANCH  27  29
ATOM     29  C   UNL     1       8.843  14.447  18.122  0.00  0.00    +0.000 A 
ATOM     30  C   UNL     1       9.661  15.535  17.761  0.00  0.00    +0.000 A 
ATOM     31  C   UNL     1      10.882  15.334  17.121  0.00  0.00    +0.000 A 
ATOM     32  F   UNL     1      11.623  16.392  16.766  0.00  0.00    +0.000 F 
ATOM     33  C   UNL     1      11.338  14.055  16.830  0.00  0.00    +0.000 A 
ATOM     34  C   UNL     1      10.568  12.961  17.206  0.00  0.00    +0.000 A 
ATOM     35  C   UNL     1       9.343  13.161  17.849  0.00  0.00    +0.000 A 
ATOM     36  F   UNL     1       8.650  12.066  18.201  0.00  0.00    +0.000 F 
ENDBRANCH  27  29
ENDBRANCH  21  23
ENDBRANCH   8  21
TORSDOF 5
ENDMDL
MODEL 9
REMARK VINA RESULT:      -8.7      6.954     10.707
REMARK  Name = 
REMARK  6 active torsions:
REMARK  status: ('A' for Active; 'I' for Inactive)
REMARK    1  A    between atoms: C_1  and  S_2
REMARK    2  A    between atoms: S_2  and  C_5
REMARK    3  A    between atoms: C_8  and  C_9
REMARK    4  A    between atoms: C_16  and  N_17
REMARK    5  A    between atoms: N_17  and  C_18
REMARK    6  A    between atoms: C_22  and  C_23
REMARK                            x       y       z     vdW  Elec       q    Type
REMARK                         _______ _______ _______ _____ _____    ______ ____
ROOT
ATOM      1  C   UNL     1      -1.696  11.781  21.998  0.00  0.00    +0.000 A 
ATOM      2  C   UNL     1      -0.921  11.080  22.931  0.00  0.00    +0.000 A 
ATOM      3  C   UNL     1       0.057  10.168  22.524  0.00  0.00    +0.000 A 
ATOM      4  C   UNL     1       0.309   9.914  21.189  0.00  0.00    +0.000 A 
ATOM      5  N   UNL     1       1.209   8.966  20.891  0.00  0.00    +0.000 NA
ATOM      6  C   UNL     1       1.449   8.710  19.592  0.00  0.00    +0.000 A 
ATOM      7  C   UNL     1       0.857   9.398  18.553  0.00  0.00    +0.000 A 
ATOM      8  C   UNL     1      -0.069  10.400  18.850  0.00  0.00    +0.000 A 
ATOM      9  C   UNL     1      -0.395  10.647  20.212  0.00  0.00    +0.000 A 
ATOM     10  C   UNL     1      -1.395  11.566  20.641  0.00  0.00    +0.000 A 
ENDROOT
BRANCH   1  14
ATOM     11  C   UNL     1      -4.937  14.331  23.233  0.00  0.00    +0.000 A 
ATOM     12  C   UNL     1      -4.585  13.233  24.012  0.00  0.00    +0.000 A 
ATOM     13  C   UNL     1      -3.514  12.425  23.617  0.00  0.00    +0.000 A 
ATOM     14  C   UNL     1      -2.794  12.677  22.432  0.00  0.00    +0.000 A 
ATOM     15  C   UNL     1      -3.192  13.785  21.657  0.00  0.00    +0.000 A 
ATOM     16  C   UNL     1      -4.254  14.610  22.050  0.00  0.00    +0.000 A 
BRANCH  11  18
ATOM     17  C   UNL     1      -6.803  16.105  22.217  0.00  0.00    +0.000 C 
ATOM     18  S   UNL     1      -6.277  15.376  23.746  0.00  0.00    +0.000 S 
ATOM     19  O   UNL     1      -5.719  16.429  24.577  0.00  0.00    +0.000 OA
ATOM     20  O   UNL     1      -7.340  14.523  24.233  0.00  0.00    +0.000 OA
ENDBRANCH  11  18
ENDBRANCH   1  14
BRANCH   8  21
ATOM     21  N   UNL     1      -0.705  11.137  17.822  0.00  0.00    +0.000 N 
ATOM     22  H   UNL     1      -0.045  11.540  17.164  0.00  0.00    +0.000 HD
BRANCH  21  23
ATOM     23  C   UNL     1      -2.033  11.126  17.360  0.00  0.00    +0.000 A 
ATOM     24  C   UNL     1      -2.380  10.663  16.096  0.00  0.00    +0.000 A 
ATOM     25  C   UNL     1      -3.713  10.690  15.726  0.00  0.00    +0.000 A 
ATOM     26  N   UNL     1      -4.703  11.171  16.509  0.00  0.00    +0.000 NA
ATOM     27  C   UNL     1      -4.370  11.647  17.734  0.00  0.00    +0.000 A 
ATOM     28  C   UNL     1      -3.046  11.633  18.178  0.00  0.00    +0.000 A 
BRANCH  27  29
ATOM     29  C   UNL     1      -5.472  12.246  18.515  0.00  0.00    +0.000 A 
ATOM     30  C   UNL     1      -5.683  11.867  19.855  0.00  0.00    +0.000 A 
ATOM     31  C   UNL     1      -6.768  12.361  20.578  0.00  0.00    +0.000 A 
ATOM     32  F   UNL     1      -6.956  11.959  21.842  0.00  0.00    +0.000 F 
ATOM     33  C   UNL     1      -7.667  13.251  20.006  0.00  0.00    +0.000 A 
ATOM     34  C   UNL     1      -7.463  13.669  18.696  0.00  0.00    +0.000 A 
ATOM     35  C   UNL     1      -6.376  13.176  17.970  0.00  0.00    +0.000 A 
ATOM     36  F   UNL     1      -6.222  13.626  16.714  0.00  0.00    +0.000 F 
ENDBRANCH  27  29
ENDBRANCH  21  23
ENDBRANCH   8  21
TORSDOF 5
ENDMDL
