MODEL 1
REMARK VINA RESULT:      -6.3      0.000      0.000
REMARK  Name = 
REMARK  16 active torsions:
REMARK  status: ('A' for Active; 'I' for Inactive)
REMARK    1  A    between atoms: C_1  and  C_2
REMARK    2  A    between atoms: C_3  and  C_4
REMARK    3  A    between atoms: C_7  and  C_8
REMARK    4  A    between atoms: C_9  and  O_10
REMARK    5  A    between atoms: C_13  and  C_14
REMARK    6  A    between atoms: C_13  and  C_15
REMARK    7  A    between atoms: C_15  and  C_16
REMARK    8  A    between atoms: C_16  and  C_17
REMARK    9  A    between atoms: C_17  and  C_18
REMARK   10  A    between atoms: C_18  and  C_19
REMARK   11  A    between atoms: C_19  and  C_20
REMARK   12  A    between atoms: C_20  and  C_21
REMARK   13  A    between atoms: C_21  and  C_22
REMARK   14  A    between atoms: C_22  and  C_23
REMARK   15  A    between atoms: C_23  and  C_24
REMARK   16  A    between atoms: C_24  and  O_25
REMARK                            x       y       z     vdW  Elec       q    Type
REMARK                         _______ _______ _______ _____ _____    ______ ____
ROOT
ATOM      1  C   UNL     1      -4.745  11.695  17.468  0.00  0.00    +0.000 C 
ATOM      2  C   UNL     1      -3.539  11.622  18.371  0.00  0.00    +0.000 A 
ATOM      3  C   UNL     1      -2.488  10.697  18.211  0.00  0.00    +0.000 A 
ATOM      4  C   UNL     1      -2.451   9.655  17.119  0.00  0.00    +0.000 C 
ATOM      5  C   UNL     1      -1.398  10.739  19.113  0.00  0.00    +0.000 A 
ATOM      6  C   UNL     1      -1.360  11.649  20.190  0.00  0.00    +0.000 A 
ATOM      7  C   UNL     1      -2.393  12.598  20.335  0.00  0.00    +0.000 A 
ATOM      8  C   UNL     1      -2.359  13.639  21.424  0.00  0.00    +0.000 C 
ATOM      9  C   UNL     1      -3.466  12.556  19.426  0.00  0.00    +0.000 A 
ATOM     10  C   UNL     1      -0.203  11.631  21.156  0.00  0.00    +0.000 C 
ATOM     11  C   UNL     1       0.651  10.393  20.989  0.00  0.00    +0.000 C 
ATOM     12  C   UNL     1       0.882  10.086  19.506  0.00  0.00    +0.000 C 
ATOM     13  C   UNL     1       1.608  11.227  18.765  0.00  0.00    +0.000 C 
ATOM     14  O   UNL     1      -0.381   9.839  18.864  0.00  0.00    +0.000 OA
ENDROOT
BRANCH   9  15
ATOM     15  O   UNL     1      -4.513  13.442  19.524  0.00  0.00    +0.000 OA
ATOM     16  H   UNL     1      -5.144  13.294  18.806  0.00  0.00    +0.000 HD
ENDBRANCH   9  15
BRANCH  12  17
ATOM     17  C   UNL     1       1.750   8.805  19.358  0.00  0.00    +0.000 C 
BRANCH  17  18
ATOM     18  C   UNL     1       1.922   8.345  17.909  0.00  0.00    +0.000 C 
BRANCH  18  19
ATOM     19  C   UNL     1       3.288   7.717  17.642  0.00  0.00    +0.000 C 
BRANCH  19  20
ATOM     20  C   UNL     1       3.393   6.407  18.424  0.00  0.00    +0.000 C 
BRANCH  20  21
ATOM     21  C   UNL     1       3.202   5.187  17.532  0.00  0.00    +0.000 C 
BRANCH  21  22
ATOM     22  C   UNL     1       1.826   4.566  17.770  0.00  0.00    +0.000 C 
BRANCH  22  23
ATOM     23  C   UNL     1       1.950   3.228  18.492  0.00  0.00    +0.000 C 
BRANCH  23  24
ATOM     24  C   UNL     1       1.979   3.415  20.008  0.00  0.00    +0.000 C 
BRANCH  24  25
ATOM     25  C   UNL     1       3.114   2.607  20.630  0.00  0.00    +0.000 C 
BRANCH  25  26
ATOM     26  C   UNL     1       4.051   2.046  19.570  0.00  0.00    +0.000 C 
BRANCH  26  27
ATOM     27  O   UNL     1       5.242   2.821  19.525  0.00  0.00    +0.000 OA
ATOM     28  H   UNL     1       5.937   2.313  19.979  0.00  0.00    +0.000 HD
ENDBRANCH  26  27
ENDBRANCH  25  26
ENDBRANCH  24  25
ENDBRANCH  23  24
ENDBRANCH  22  23
ENDBRANCH  21  22
ENDBRANCH  20  21
ENDBRANCH  19  20
ENDBRANCH  18  19
ENDBRANCH  17  18
ENDBRANCH  12  17
TORSDOF 12
ENDMDL
MODEL 2
REMARK VINA RESULT:      -6.3      1.809      2.411
REMARK  Name = 
REMARK  16 active torsions:
REMARK  status: ('A' for Active; 'I' for Inactive)
REMARK    1  A    between atoms: C_1  and  C_2
REMARK    2  A    between atoms: C_3  and  C_4
REMARK    3  A    between atoms: C_7  and  C_8
REMARK    4  A    between atoms: C_9  and  O_10
REMARK    5  A    between atoms: C_13  and  C_14
REMARK    6  A    between atoms: C_13  and  C_15
REMARK    7  A    between atoms: C_15  and  C_16
REMARK    8  A    between atoms: C_16  and  C_17
REMARK    9  A    between atoms: C_17  and  C_18
REMARK   10  A    between atoms: C_18  and  C_19
REMARK   11  A    between atoms: C_19  and  C_20
REMARK   12  A    between atoms: C_20  and  C_21
REMARK   13  A    between atoms: C_21  and  C_22
REMARK   14  A    between atoms: C_22  and  C_23
REMARK   15  A    between atoms: C_23  and  C_24
REMARK   16  A    between atoms: C_24  and  O_25
REMARK                            x       y       z     vdW  Elec       q    Type
REMARK                         _______ _______ _______ _____ _____    ______ ____
ROOT
ATOM      1  C   UNL     1      -4.451  11.757  17.190  0.00  0.00    +0.000 C 
ATOM      2  C   UNL     1      -3.213  11.427  17.986  0.00  0.00    +0.000 A 
ATOM      3  C   UNL     1      -2.214  10.530  17.555  0.00  0.00    +0.000 A 
ATOM      4  C   UNL     1      -2.273   9.780  16.247  0.00  0.00    +0.000 C 
ATOM      5  C   UNL     1      -1.086  10.316  18.384  0.00  0.00    +0.000 A 
ATOM      6  C   UNL     1      -0.960  10.940  19.642  0.00  0.00    +0.000 A 
ATOM      7  C   UNL     1      -1.940  11.862  20.062  0.00  0.00    +0.000 A 
ATOM      8  C   UNL     1      -1.810  12.610  21.364  0.00  0.00    +0.000 C 
ATOM      9  C   UNL     1      -3.052  12.078  19.227  0.00  0.00    +0.000 A 
ATOM     10  C   UNL     1       0.235  10.649  20.514  0.00  0.00    +0.000 C 
ATOM     11  C   UNL     1       1.022   9.457  20.013  0.00  0.00    +0.000 C 
ATOM     12  C   UNL     1       1.174   9.507  18.489  0.00  0.00    +0.000 C 
ATOM     13  C   UNL     1       1.922  10.766  18.004  0.00  0.00    +0.000 C 
ATOM     14  O   UNL     1      -0.125   9.467  17.874  0.00  0.00    +0.000 OA
ENDROOT
BRANCH   9  15
ATOM     15  O   UNL     1      -4.050  12.951  19.588  0.00  0.00    +0.000 OA
ATOM     16  H   UNL     1      -4.903  12.640  19.253  0.00  0.00    +0.000 HD
ENDBRANCH   9  15
BRANCH  12  17
ATOM     17  C   UNL     1       1.974   8.269  17.996  0.00  0.00    +0.000 C 
BRANCH  17  18
ATOM     18  C   UNL     1       2.666   7.497  19.121  0.00  0.00    +0.000 C 
BRANCH  18  19
ATOM     19  C   UNL     1       2.214   6.041  19.210  0.00  0.00    +0.000 C 
BRANCH  19  20
ATOM     20  C   UNL     1       1.932   5.524  17.799  0.00  0.00    +0.000 C 
BRANCH  20  21
ATOM     21  C   UNL     1       2.237   4.037  17.659  0.00  0.00    +0.000 C 
BRANCH  21  22
ATOM     22  C   UNL     1       3.156   3.576  18.789  0.00  0.00    +0.000 C 
BRANCH  22  23
ATOM     23  C   UNL     1       4.616   3.600  18.347  0.00  0.00    +0.000 C 
BRANCH  23  24
ATOM     24  C   UNL     1       4.734   3.726  16.829  0.00  0.00    +0.000 C 
BRANCH  24  25
ATOM     25  C   UNL     1       5.727   4.822  16.454  0.00  0.00    +0.000 C 
BRANCH  25  26
ATOM     26  C   UNL     1       6.723   4.343  15.408  0.00  0.00    +0.000 C 
BRANCH  26  27
ATOM     27  O   UNL     1       7.527   5.433  14.977  0.00  0.00    +0.000 OA
ATOM     28  H   UNL     1       8.090   5.694  15.726  0.00  0.00    +0.000 HD
ENDBRANCH  26  27
ENDBRANCH  25  26
ENDBRANCH  24  25
ENDBRANCH  23  24
ENDBRANCH  22  23
ENDBRANCH  21  22
ENDBRANCH  20  21
ENDBRANCH  19  20
ENDBRANCH  18  19
ENDBRANCH  17  18
ENDBRANCH  12  17
TORSDOF 12
ENDMDL
MODEL 3
REMARK VINA RESULT:      -6.3      1.233      1.494
REMARK  Name = 
REMARK  16 active torsions:
REMARK  status: ('A' for Active; 'I' for Inactive)
REMARK    1  A    between atoms: C_1  and  C_2
REMARK    2  A    between atoms: C_3  and  C_4
REMARK    3  A    between atoms: C_7  and  C_8
REMARK    4  A    between atoms: C_9  and  O_10
REMARK    5  A    between atoms: C_13  and  C_14
REMARK    6  A    between atoms: C_13  and  C_15
REMARK    7  A    between atoms: C_15  and  C_16
REMARK    8  A    between atoms: C_16  and  C_17
REMARK    9  A    between atoms: C_17  and  C_18
REMARK   10  A    between atoms: C_18  and  C_19
REMARK   11  A    between atoms: C_19  and  C_20
REMARK   12  A    between atoms: C_20  and  C_21
REMARK   13  A    between atoms: C_21  and  C_22
REMARK   14  A    between atoms: C_22  and  C_23
REMARK   15  A    between atoms: C_23  and  C_24
REMARK   16  A    between atoms: C_24  and  O_25
REMARK                            x       y       z     vdW  Elec       q    Type
REMARK                         _______ _______ _______ _____ _____    ______ ____
ROOT
ATOM      1  C   UNL     1      -4.875  11.714  17.051  0.00  0.00    +0.000 C 
ATOM      2  C   UNL     1      -3.726  11.591  18.021  0.00  0.00    +0.000 A 
ATOM      3  C   UNL     1      -2.629  10.725  17.839  0.00  0.00    +0.000 A 
ATOM      4  C   UNL     1      -2.481   9.803  16.655  0.00  0.00    +0.000 C 
ATOM      5  C   UNL     1      -1.600  10.714  18.812  0.00  0.00    +0.000 A 
ATOM      6  C   UNL     1      -1.668  11.511  19.974  0.00  0.00    +0.000 A 
ATOM      7  C   UNL     1      -2.747  12.402  20.143  0.00  0.00    +0.000 A 
ATOM      8  C   UNL     1      -2.825  13.328  21.330  0.00  0.00    +0.000 C 
ATOM      9  C   UNL     1      -3.759  12.416  19.166  0.00  0.00    +0.000 A 
ATOM     10  C   UNL     1      -0.574  11.435  21.008  0.00  0.00    +0.000 C 
ATOM     11  C   UNL     1       0.340  10.251  20.776  0.00  0.00    +0.000 C 
ATOM     12  C   UNL     1       0.675  10.105  19.288  0.00  0.00    +0.000 C 
ATOM     13  C   UNL     1       1.398  11.341  18.715  0.00  0.00    +0.000 C 
ATOM     14  O   UNL     1      -0.534   9.881  18.542  0.00  0.00    +0.000 OA
ENDROOT
BRANCH   9  15
ATOM     15  O   UNL     1      -4.846  13.250  19.281  0.00  0.00    +0.000 OA
ATOM     16  H   UNL     1      -5.582  12.782  19.699  0.00  0.00    +0.000 HD
ENDBRANCH   9  15
BRANCH  12  17
ATOM     17  C   UNL     1       1.604   8.877  19.072  0.00  0.00    +0.000 C 
BRANCH  17  18
ATOM     18  C   UNL     1       1.866   8.074  20.348  0.00  0.00    +0.000 C 
BRANCH  18  19
ATOM     19  C   UNL     1       1.950   6.570  20.097  0.00  0.00    +0.000 C 
BRANCH  19  20
ATOM     20  C   UNL     1       3.113   6.292  19.144  0.00  0.00    +0.000 C 
BRANCH  20  21
ATOM     21  C   UNL     1       2.659   5.590  17.870  0.00  0.00    +0.000 C 
BRANCH  21  22
ATOM     22  C   UNL     1       3.079   4.121  17.895  0.00  0.00    +0.000 C 
BRANCH  22  23
ATOM     23  C   UNL     1       1.859   3.206  17.884  0.00  0.00    +0.000 C 
BRANCH  23  24
ATOM     24  C   UNL     1       1.985   2.099  18.929  0.00  0.00    +0.000 C 
BRANCH  24  25
ATOM     25  C   UNL     1       2.542   2.651  20.237  0.00  0.00    +0.000 C 
BRANCH  25  26
ATOM     26  C   UNL     1       1.433   3.140  21.158  0.00  0.00    +0.000 C 
BRANCH  26  27
ATOM     27  O   UNL     1       1.386   2.328  22.323  0.00  0.00    +0.000 OA
ATOM     28  H   UNL     1       0.773   1.594  22.143  0.00  0.00    +0.000 HD
ENDBRANCH  26  27
ENDBRANCH  25  26
ENDBRANCH  24  25
ENDBRANCH  23  24
ENDBRANCH  22  23
ENDBRANCH  21  22
ENDBRANCH  20  21
ENDBRANCH  19  20
ENDBRANCH  18  19
ENDBRANCH  17  18
ENDBRANCH  12  17
TORSDOF 12
ENDMDL
MODEL 4
REMARK VINA RESULT:      -6.2      5.667     10.115
REMARK  Name = 
REMARK  16 active torsions:
REMARK  status: ('A' for Active; 'I' for Inactive)
REMARK    1  A    between atoms: C_1  and  C_2
REMARK    2  A    between atoms: C_3  and  C_4
REMARK    3  A    between atoms: C_7  and  C_8
REMARK    4  A    between atoms: C_9  and  O_10
REMARK    5  A    between atoms: C_13  and  C_14
REMARK    6  A    between atoms: C_13  and  C_15
REMARK    7  A    between atoms: C_15  and  C_16
REMARK    8  A    between atoms: C_16  and  C_17
REMARK    9  A    between atoms: C_17  and  C_18
REMARK   10  A    between atoms: C_18  and  C_19
REMARK   11  A    between atoms: C_19  and  C_20
REMARK   12  A    between atoms: C_20  and  C_21
REMARK   13  A    between atoms: C_21  and  C_22
REMARK   14  A    between atoms: C_22  and  C_23
REMARK   15  A    between atoms: C_23  and  C_24
REMARK   16  A    between atoms: C_24  and  O_25
REMARK                            x       y       z     vdW  Elec       q    Type
REMARK                         _______ _______ _______ _____ _____    ______ ____
ROOT
ATOM      1  C   UNL     1       0.740   5.149  20.138  0.00  0.00    +0.000 C 
ATOM      2  C   UNL     1       1.992   4.877  19.341  0.00  0.00    +0.000 A 
ATOM      3  C   UNL     1       2.921   5.869  18.968  0.00  0.00    +0.000 A 
ATOM      4  C   UNL     1       2.766   7.330  19.312  0.00  0.00    +0.000 C 
ATOM      5  C   UNL     1       4.070   5.486  18.235  0.00  0.00    +0.000 A 
ATOM      6  C   UNL     1       4.283   4.152  17.832  0.00  0.00    +0.000 A 
ATOM      7  C   UNL     1       3.374   3.151  18.230  0.00  0.00    +0.000 A 
ATOM      8  C   UNL     1       3.599   1.701  17.889  0.00  0.00    +0.000 C 
ATOM      9  C   UNL     1       2.240   3.539  18.969  0.00  0.00    +0.000 A 
ATOM     10  C   UNL     1       5.496   3.794  17.012  0.00  0.00    +0.000 C 
ATOM     11  C   UNL     1       6.196   5.024  16.473  0.00  0.00    +0.000 C 
ATOM     12  C   UNL     1       6.286   6.113  17.547  0.00  0.00    +0.000 C 
ATOM     13  C   UNL     1       7.079   5.662  18.791  0.00  0.00    +0.000 C 
ATOM     14  O   UNL     1       4.961   6.501  17.951  0.00  0.00    +0.000 OA
ENDROOT
BRANCH   9  15
ATOM     15  O   UNL     1       1.307   2.614  19.373  0.00  0.00    +0.000 OA
ATOM     16  H   UNL     1       1.746   1.811  19.686  0.00  0.00    +0.000 HD
ENDBRANCH   9  15
BRANCH  12  17
ATOM     17  C   UNL     1       6.996   7.369  16.969  0.00  0.00    +0.000 C 
BRANCH  17  18
ATOM     18  C   UNL     1       8.065   7.950  17.896  0.00  0.00    +0.000 C 
BRANCH  18  19
ATOM     19  C   UNL     1       8.010   9.474  17.986  0.00  0.00    +0.000 C 
BRANCH  19  20
ATOM     20  C   UNL     1       9.255   9.972  18.721  0.00  0.00    +0.000 C 
BRANCH  20  21
ATOM     21  C   UNL     1       9.239  11.482  18.925  0.00  0.00    +0.000 C 
BRANCH  21  22
ATOM     22  C   UNL     1       9.138  12.198  17.579  0.00  0.00    +0.000 C 
BRANCH  22  23
ATOM     23  C   UNL     1       8.691  13.644  17.765  0.00  0.00    +0.000 C 
BRANCH  23  24
ATOM     24  C   UNL     1       9.844  14.525  18.244  0.00  0.00    +0.000 C 
BRANCH  24  25
ATOM     25  C   UNL     1      11.172  14.033  17.675  0.00  0.00    +0.000 C 
BRANCH  25  26
ATOM     26  C   UNL     1      11.886  15.125  16.892  0.00  0.00    +0.000 C 
BRANCH  26  27
ATOM     27  O   UNL     1      10.939  15.870  16.139  0.00  0.00    +0.000 OA
ATOM     28  H   UNL     1      10.307  15.238  15.757  0.00  0.00    +0.000 HD
ENDBRANCH  26  27
ENDBRANCH  25  26
ENDBRANCH  24  25
ENDBRANCH  23  24
ENDBRANCH  22  23
ENDBRANCH  21  22
ENDBRANCH  20  21
ENDBRANCH  19  20
ENDBRANCH  18  19
ENDBRANCH  17  18
ENDBRANCH  12  17
TORSDOF 12
ENDMDL
MODEL 5
REMARK VINA RESULT:      -6.1      5.404     10.104
REMARK  Name = 
REMARK  16 active torsions:
REMARK  status: ('A' for Active; 'I' for Inactive)
REMARK    1  A    between atoms: C_1  and  C_2
REMARK    2  A    between atoms: C_3  and  C_4
REMARK    3  A    between atoms: C_7  and  C_8
REMARK    4  A    between atoms: C_9  and  O_10
REMARK    5  A    between atoms: C_13  and  C_14
REMARK    6  A    between atoms: C_13  and  C_15
REMARK    7  A    between atoms: C_15  and  C_16
REMARK    8  A    between atoms: C_16  and  C_17
REMARK    9  A    between atoms: C_17  and  C_18
REMARK   10  A    between atoms: C_18  and  C_19
REMARK   11  A    between atoms: C_19  and  C_20
REMARK   12  A    between atoms: C_20  and  C_21
REMARK   13  A    between atoms: C_21  and  C_22
REMARK   14  A    between atoms: C_22  and  C_23
REMARK   15  A    between atoms: C_23  and  C_24
REMARK   16  A    between atoms: C_24  and  O_25
REMARK                            x       y       z     vdW  Elec       q    Type
REMARK                         _______ _______ _______ _____ _____    ______ ____
ROOT
ATOM      1  C   UNL     1       0.659   4.835  20.441  0.00  0.00    +0.000 C 
ATOM      2  C   UNL     1       1.904   4.646  19.609  0.00  0.00    +0.000 A 
ATOM      3  C   UNL     1       2.763   5.695  19.225  0.00  0.00    +0.000 A 
ATOM      4  C   UNL     1       2.532   7.140  19.591  0.00  0.00    +0.000 C 
ATOM      5  C   UNL     1       3.913   5.388  18.458  0.00  0.00    +0.000 A 
ATOM      6  C   UNL     1       4.193   4.073  18.033  0.00  0.00    +0.000 A 
ATOM      7  C   UNL     1       3.354   3.016  18.442  0.00  0.00    +0.000 A 
ATOM      8  C   UNL     1       3.654   1.585  18.077  0.00  0.00    +0.000 C 
ATOM      9  C   UNL     1       2.220   3.329  19.214  0.00  0.00    +0.000 A 
ATOM     10  C   UNL     1       5.403   3.796  17.178  0.00  0.00    +0.000 C 
ATOM     11  C   UNL     1       6.015   5.070  16.637  0.00  0.00    +0.000 C 
ATOM     12  C   UNL     1       6.070   6.151  17.722  0.00  0.00    +0.000 C 
ATOM     13  C   UNL     1       6.920   5.734  18.939  0.00  0.00    +0.000 C 
ATOM     14  O   UNL     1       4.736   6.456  18.164  0.00  0.00    +0.000 OA
ENDROOT
BRANCH   9  15
ATOM     15  O   UNL     1       1.353   2.346  19.630  0.00  0.00    +0.000 OA
ATOM     16  H   UNL     1       1.526   1.524  19.151  0.00  0.00    +0.000 HD
ENDBRANCH   9  15
BRANCH  12  17
ATOM     17  C   UNL     1       6.690   7.453  17.142  0.00  0.00    +0.000 C 
BRANCH  17  18
ATOM     18  C   UNL     1       8.010   7.852  17.804  0.00  0.00    +0.000 C 
BRANCH  18  19
ATOM     19  C   UNL     1       8.244   9.361  17.804  0.00  0.00    +0.000 C 
BRANCH  19  20
ATOM     20  C   UNL     1       9.060   9.736  19.041  0.00  0.00    +0.000 C 
BRANCH  20  21
ATOM     21  C   UNL     1       9.897  10.990  18.821  0.00  0.00    +0.000 C 
BRANCH  21  22
ATOM     22  C   UNL     1       9.009  12.147  18.366  0.00  0.00    +0.000 C 
BRANCH  22  23
ATOM     23  C   UNL     1       8.937  13.231  19.436  0.00  0.00    +0.000 C 
BRANCH  23  24
ATOM     24  C   UNL     1       9.432  14.574  18.902  0.00  0.00    +0.000 C 
BRANCH  24  25
ATOM     25  C   UNL     1       8.436  15.684  19.222  0.00  0.00    +0.000 C 
BRANCH  25  26
ATOM     26  C   UNL     1       8.240  16.621  18.039  0.00  0.00    +0.000 C 
BRANCH  26  27
ATOM     27  O   UNL     1       7.610  17.818  18.476  0.00  0.00    +0.000 OA
ATOM     28  H   UNL     1       8.118  18.564  18.113  0.00  0.00    +0.000 HD
ENDBRANCH  26  27
ENDBRANCH  25  26
ENDBRANCH  24  25
ENDBRANCH  23  24
ENDBRANCH  22  23
ENDBRANCH  21  22
ENDBRANCH  20  21
ENDBRANCH  19  20
ENDBRANCH  18  19
ENDBRANCH  17  18
ENDBRANCH  12  17
TORSDOF 12
ENDMDL
MODEL 6
REMARK VINA RESULT:      -6.1      5.681     10.067
REMARK  Name = 
REMARK  16 active torsions:
REMARK  status: ('A' for Active; 'I' for Inactive)
REMARK    1  A    between atoms: C_1  and  C_2
REMARK    2  A    between atoms: C_3  and  C_4
REMARK    3  A    between atoms: C_7  and  C_8
REMARK    4  A    between atoms: C_9  and  O_10
REMARK    5  A    between atoms: C_13  and  C_14
REMARK    6  A    between atoms: C_13  and  C_15
REMARK    7  A    between atoms: C_15  and  C_16
REMARK    8  A    between atoms: C_16  and  C_17
REMARK    9  A    between atoms: C_17  and  C_18
REMARK   10  A    between atoms: C_18  and  C_19
REMARK   11  A    between atoms: C_19  and  C_20
REMARK   12  A    between atoms: C_20  and  C_21
REMARK   13  A    between atoms: C_21  and  C_22
REMARK   14  A    between atoms: C_22  and  C_23
REMARK   15  A    between atoms: C_23  and  C_24
REMARK   16  A    between atoms: C_24  and  O_25
REMARK                            x       y       z     vdW  Elec       q    Type
REMARK                         _______ _______ _______ _____ _____    ______ ____
ROOT
ATOM      1  C   UNL     1       0.964   4.732  20.443  0.00  0.00    +0.000 C 
ATOM      2  C   UNL     1       2.164   4.466  19.567  0.00  0.00    +0.000 A 
ATOM      3  C   UNL     1       3.050   5.465  19.118  0.00  0.00    +0.000 A 
ATOM      4  C   UNL     1       2.896   6.929  19.450  0.00  0.00    +0.000 C 
ATOM      5  C   UNL     1       4.153   5.088  18.315  0.00  0.00    +0.000 A 
ATOM      6  C   UNL     1       4.360   3.751  17.917  0.00  0.00    +0.000 A 
ATOM      7  C   UNL     1       3.494   2.744  18.391  0.00  0.00    +0.000 A 
ATOM      8  C   UNL     1       3.718   1.291  18.056  0.00  0.00    +0.000 C 
ATOM      9  C   UNL     1       2.407   3.126  19.199  0.00  0.00    +0.000 A 
ATOM     10  C   UNL     1       5.520   3.398  17.023  0.00  0.00    +0.000 C 
ATOM     11  C   UNL     1       6.163   4.629  16.421  0.00  0.00    +0.000 C 
ATOM     12  C   UNL     1       6.308   5.736  17.470  0.00  0.00    +0.000 C 
ATOM     13  C   UNL     1       7.189   5.317  18.664  0.00  0.00    +0.000 C 
ATOM     14  O   UNL     1       5.007   6.111  17.957  0.00  0.00    +0.000 OA
ENDROOT
BRANCH   9  15
ATOM     15  O   UNL     1       1.518   2.194  19.678  0.00  0.00    +0.000 OA
ATOM     16  H   UNL     1       1.719   1.322  19.312  0.00  0.00    +0.000 HD
ENDBRANCH   9  15
BRANCH  12  17
ATOM     17  C   UNL     1       6.958   6.994  16.828  0.00  0.00    +0.000 C 
BRANCH  17  18
ATOM     18  C   UNL     1       6.895   8.238  17.716  0.00  0.00    +0.000 C 
BRANCH  18  19
ATOM     19  C   UNL     1       8.105   9.153  17.543  0.00  0.00    +0.000 C 
BRANCH  19  20
ATOM     20  C   UNL     1       8.850   9.247  18.875  0.00  0.00    +0.000 C 
BRANCH  20  21
ATOM     21  C   UNL     1       9.409  10.642  19.126  0.00  0.00    +0.000 C 
BRANCH  21  22
ATOM     22  C   UNL     1      10.223  11.112  17.921  0.00  0.00    +0.000 C 
BRANCH  22  23
ATOM     23  C   UNL     1      11.488  11.838  18.369  0.00  0.00    +0.000 C 
BRANCH  23  24
ATOM     24  C   UNL     1      11.453  12.143  19.866  0.00  0.00    +0.000 C 
BRANCH  24  25
ATOM     25  C   UNL     1      11.374  13.647  20.108  0.00  0.00    +0.000 C 
BRANCH  25  26
ATOM     26  C   UNL     1      11.311  14.424  18.801  0.00  0.00    +0.000 C 
BRANCH  26  27
ATOM     27  O   UNL     1      10.016  14.987  18.640  0.00  0.00    +0.000 OA
ATOM     28  H   UNL     1       9.405  14.476  19.199  0.00  0.00    +0.000 HD
ENDBRANCH  26  27
ENDBRANCH  25  26
ENDBRANCH  24  25
ENDBRANCH  23  24
ENDBRANCH  22  23
ENDBRANCH  21  22
ENDBRANCH  20  21
ENDBRANCH  19  20
ENDBRANCH  18  19
ENDBRANCH  17  18
ENDBRANCH  12  17
TORSDOF 12
ENDMDL
MODEL 7
REMARK VINA RESULT:      -6.0      1.755      2.346
REMARK  Name = 
REMARK  16 active torsions:
REMARK  status: ('A' for Active; 'I' for Inactive)
REMARK    1  A    between atoms: C_1  and  C_2
REMARK    2  A    between atoms: C_3  and  C_4
REMARK    3  A    between atoms: C_7  and  C_8
REMARK    4  A    between atoms: C_9  and  O_10
REMARK    5  A    between atoms: C_13  and  C_14
REMARK    6  A    between atoms: C_13  and  C_15
REMARK    7  A    between atoms: C_15  and  C_16
REMARK    8  A    between atoms: C_16  and  C_17
REMARK    9  A    between atoms: C_17  and  C_18
REMARK   10  A    between atoms: C_18  and  C_19
REMARK   11  A    between atoms: C_19  and  C_20
REMARK   12  A    between atoms: C_20  and  C_21
REMARK   13  A    between atoms: C_21  and  C_22
REMARK   14  A    between atoms: C_22  and  C_23
REMARK   15  A    between atoms: C_23  and  C_24
REMARK   16  A    between atoms: C_24  and  O_25
REMARK                            x       y       z     vdW  Elec       q    Type
REMARK                         _______ _______ _______ _____ _____    ______ ____
ROOT
ATOM      1  C   UNL     1      -5.121  11.679  17.120  0.00  0.00    +0.000 C 
ATOM      2  C   UNL     1      -3.985  11.659  18.112  0.00  0.00    +0.000 A 
ATOM      3  C   UNL     1      -2.843  10.842  17.988  0.00  0.00    +0.000 A 
ATOM      4  C   UNL     1      -2.627   9.876  16.849  0.00  0.00    +0.000 C 
ATOM      5  C   UNL     1      -1.833  10.927  18.977  0.00  0.00    +0.000 A 
ATOM      6  C   UNL     1      -1.961  11.770  20.100  0.00  0.00    +0.000 A 
ATOM      7  C   UNL     1      -3.086  12.612  20.211  0.00  0.00    +0.000 A 
ATOM      8  C   UNL     1      -3.232  13.585  21.353  0.00  0.00    +0.000 C 
ATOM      9  C   UNL     1      -4.080  12.530  19.218  0.00  0.00    +0.000 A 
ATOM     10  C   UNL     1      -0.884  11.796  21.153  0.00  0.00    +0.000 C 
ATOM     11  C   UNL     1       0.092  10.651  20.990  0.00  0.00    +0.000 C 
ATOM     12  C   UNL     1       0.461  10.456  19.516  0.00  0.00    +0.000 C 
ATOM     13  C   UNL     1       1.132  11.700  18.898  0.00  0.00    +0.000 C 
ATOM     14  O   UNL     1      -0.721  10.137  18.762  0.00  0.00    +0.000 OA
ENDROOT
BRANCH   9  15
ATOM     15  O   UNL     1      -5.209  13.312  19.278  0.00  0.00    +0.000 OA
ATOM     16  H   UNL     1      -6.001  12.758  19.237  0.00  0.00    +0.000 HD
ENDBRANCH   9  15
BRANCH  12  17
ATOM     17  C   UNL     1       1.454   9.269  19.371  0.00  0.00    +0.000 C 
BRANCH  17  18
ATOM     18  C   UNL     1       1.742   8.884  17.918  0.00  0.00    +0.000 C 
BRANCH  18  19
ATOM     19  C   UNL     1       2.930   7.935  17.778  0.00  0.00    +0.000 C 
BRANCH  19  20
ATOM     20  C   UNL     1       2.431   6.495  17.898  0.00  0.00    +0.000 C 
BRANCH  20  21
ATOM     21  C   UNL     1       3.347   5.637  18.762  0.00  0.00    +0.000 C 
BRANCH  21  22
ATOM     22  C   UNL     1       3.312   4.184  18.291  0.00  0.00    +0.000 C 
BRANCH  22  23
ATOM     23  C   UNL     1       4.653   3.772  17.693  0.00  0.00    +0.000 C 
BRANCH  23  24
ATOM     24  C   UNL     1       4.753   4.176  16.223  0.00  0.00    +0.000 C 
BRANCH  24  25
ATOM     25  C   UNL     1       6.120   3.810  15.653  0.00  0.00    +0.000 C 
BRANCH  25  26
ATOM     26  C   UNL     1       6.751   4.979  14.911  0.00  0.00    +0.000 C 
BRANCH  26  27
ATOM     27  O   UNL     1       7.396   5.842  15.837  0.00  0.00    +0.000 OA
ATOM     28  H   UNL     1       7.914   5.285  16.444  0.00  0.00    +0.000 HD
ENDBRANCH  26  27
ENDBRANCH  25  26
ENDBRANCH  24  25
ENDBRANCH  23  24
ENDBRANCH  22  23
ENDBRANCH  21  22
ENDBRANCH  20  21
ENDBRANCH  19  20
ENDBRANCH  18  19
ENDBRANCH  17  18
ENDBRANCH  12  17
TORSDOF 12
ENDMDL
MODEL 8
REMARK VINA RESULT:      -6.0      2.547      3.301
REMARK  Name = 
REMARK  16 active torsions:
REMARK  status: ('A' for Active; 'I' for Inactive)
REMARK    1  A    between atoms: C_1  and  C_2
REMARK    2  A    between atoms: C_3  and  C_4
REMARK    3  A    between atoms: C_7  and  C_8
REMARK    4  A    between atoms: C_9  and  O_10
REMARK    5  A    between atoms: C_13  and  C_14
REMARK    6  A    between atoms: C_13  and  C_15
REMARK    7  A    between atoms: C_15  and  C_16
REMARK    8  A    between atoms: C_16  and  C_17
REMARK    9  A    between atoms: C_17  and  C_18
REMARK   10  A    between atoms: C_18  and  C_19
REMARK   11  A    between atoms: C_19  and  C_20
REMARK   12  A    between atoms: C_20  and  C_21
REMARK   13  A    between atoms: C_21  and  C_22
REMARK   14  A    between atoms: C_22  and  C_23
REMARK   15  A    between atoms: C_23  and  C_24
REMARK   16  A    between atoms: C_24  and  O_25
REMARK                            x       y       z     vdW  Elec       q    Type
REMARK                         _______ _______ _______ _____ _____    ______ ____
ROOT
ATOM      1  C   UNL     1      -1.195  10.437  23.358  0.00  0.00    +0.000 C 
ATOM      2  C   UNL     1      -0.458  10.677  22.064  0.00  0.00    +0.000 A 
ATOM      3  C   UNL     1       0.251   9.681  21.363  0.00  0.00    +0.000 A 
ATOM      4  C   UNL     1       0.369   8.253  21.834  0.00  0.00    +0.000 C 
ATOM      5  C   UNL     1       0.888  10.026  20.146  0.00  0.00    +0.000 A 
ATOM      6  C   UNL     1       0.868  11.343  19.644  0.00  0.00    +0.000 A 
ATOM      7  C   UNL     1       0.133  12.335  20.325  0.00  0.00    +0.000 A 
ATOM      8  C   UNL     1       0.020  13.739  19.788  0.00  0.00    +0.000 C 
ATOM      9  C   UNL     1      -0.506  11.982  21.528  0.00  0.00    +0.000 A 
ATOM     10  C   UNL     1       1.598  11.678  18.369  0.00  0.00    +0.000 C 
ATOM     11  C   UNL     1       2.526  10.562  17.941  0.00  0.00    +0.000 C 
ATOM     12  C   UNL     1       1.849   9.197  18.105  0.00  0.00    +0.000 C 
ATOM     13  C   UNL     1       0.569   9.059  17.255  0.00  0.00    +0.000 C 
ATOM     14  O   UNL     1       1.518   8.988  19.489  0.00  0.00    +0.000 OA
ENDROOT
BRANCH   9  15
ATOM     15  O   UNL     1      -1.224  12.907  22.248  0.00  0.00    +0.000 OA
ATOM     16  H   UNL     1      -0.717  13.197  23.018  0.00  0.00    +0.000 HD
ENDBRANCH   9  15
BRANCH  12  17
ATOM     17  C   UNL     1       2.823   8.066  17.672  0.00  0.00    +0.000 C 
BRANCH  17  18
ATOM     18  C   UNL     1       2.472   6.697  18.257  0.00  0.00    +0.000 C 
BRANCH  18  19
ATOM     19  C   UNL     1       3.607   6.095  19.084  0.00  0.00    +0.000 C 
BRANCH  19  20
ATOM     20  C   UNL     1       4.541   5.321  18.154  0.00  0.00    +0.000 C 
BRANCH  20  21
ATOM     21  C   UNL     1       3.777   4.458  17.157  0.00  0.00    +0.000 C 
BRANCH  21  22
ATOM     22  C   UNL     1       3.439   3.103  17.779  0.00  0.00    +0.000 C 
BRANCH  22  23
ATOM     23  C   UNL     1       1.929   2.918  17.889  0.00  0.00    +0.000 C 
BRANCH  23  24
ATOM     24  C   UNL     1       1.540   2.325  19.243  0.00  0.00    +0.000 C 
BRANCH  24  25
ATOM     25  C   UNL     1       0.955   3.399  20.155  0.00  0.00    +0.000 C 
BRANCH  25  26
ATOM     26  C   UNL     1       1.787   3.578  21.416  0.00  0.00    +0.000 C 
BRANCH  26  27
ATOM     27  O   UNL     1       1.609   2.455  22.269  0.00  0.00    +0.000 OA
ATOM     28  H   UNL     1       2.485   2.207  22.612  0.00  0.00    +0.000 HD
ENDBRANCH  26  27
ENDBRANCH  25  26
ENDBRANCH  24  25
ENDBRANCH  23  24
ENDBRANCH  22  23
ENDBRANCH  21  22
ENDBRANCH  20  21
ENDBRANCH  19  20
ENDBRANCH  18  19
ENDBRANCH  17  18
ENDBRANCH  12  17
TORSDOF 12
ENDMDL
MODEL 9
REMARK VINA RESULT:      -5.8      1.913      3.886
REMARK  Name = 
REMARK  16 active torsions:
REMARK  status: ('A' for Active; 'I' for Inactive)
REMARK    1  A    between atoms: C_1  and  C_2
REMARK    2  A    between atoms: C_3  and  C_4
REMARK    3  A    between atoms: C_7  and  C_8
REMARK    4  A    between atoms: C_9  and  O_10
REMARK    5  A    between atoms: C_13  and  C_14
REMARK    6  A    between atoms: C_13  and  C_15
REMARK    7  A    between atoms: C_15  and  C_16
REMARK    8  A    between atoms: C_16  and  C_17
REMARK    9  A    between atoms: C_17  and  C_18
REMARK   10  A    between atoms: C_18  and  C_19
REMARK   11  A    between atoms: C_19  and  C_20
REMARK   12  A    between atoms: C_20  and  C_21
REMARK   13  A    between atoms: C_21  and  C_22
REMARK   14  A    between atoms: C_22  and  C_23
REMARK   15  A    between atoms: C_23  and  C_24
REMARK   16  A    between atoms: C_24  and  O_25
REMARK                            x       y       z     vdW  Elec       q    Type
REMARK                         _______ _______ _______ _____ _____    ______ ____
ROOT
ATOM      1  C   UNL     1      -2.660   9.835  15.595  0.00  0.00    +0.000 C 
ATOM      2  C   UNL     1      -2.967  10.574  16.875  0.00  0.00    +0.000 A 
ATOM      3  C   UNL     1      -2.086  10.653  17.971  0.00  0.00    +0.000 A 
ATOM      4  C   UNL     1      -0.729   9.993  18.001  0.00  0.00    +0.000 C 
ATOM      5  C   UNL     1      -2.480  11.394  19.111  0.00  0.00    +0.000 A 
ATOM      6  C   UNL     1      -3.744  12.014  19.194  0.00  0.00    +0.000 A 
ATOM      7  C   UNL     1      -4.616  11.965  18.087  0.00  0.00    +0.000 A 
ATOM      8  C   UNL     1      -5.945  12.674  18.099  0.00  0.00    +0.000 C 
ATOM      9  C   UNL     1      -4.211  11.236  16.953  0.00  0.00    +0.000 A 
ATOM     10  C   UNL     1      -4.144  12.754  20.445  0.00  0.00    +0.000 C 
ATOM     11  C   UNL     1      -3.198  12.472  21.593  0.00  0.00    +0.000 C 
ATOM     12  C   UNL     1      -1.742  12.494  21.117  0.00  0.00    +0.000 C 
ATOM     13  C   UNL     1      -1.326  13.856  20.526  0.00  0.00    +0.000 C 
ATOM     14  O   UNL     1      -1.545  11.472  20.124  0.00  0.00    +0.000 OA
ENDROOT
BRANCH   9  15
ATOM     15  O   UNL     1      -5.023  11.136  15.848  0.00  0.00    +0.000 OA
ATOM     16  H   UNL     1      -5.791  11.714  15.945  0.00  0.00    +0.000 HD
ENDBRANCH   9  15
BRANCH  12  17
ATOM     17  C   UNL     1      -0.791  12.190  22.308  0.00  0.00    +0.000 C 
BRANCH  17  18
ATOM     18  C   UNL     1       0.184  11.042  22.038  0.00  0.00    +0.000 C 
BRANCH  18  19
ATOM     19  C   UNL     1      -0.235   9.736  22.710  0.00  0.00    +0.000 C 
BRANCH  19  20
ATOM     20  C   UNL     1      -0.217   8.616  21.670  0.00  0.00    +0.000 C 
BRANCH  20  21
ATOM     21  C   UNL     1       1.105   8.552  20.914  0.00  0.00    +0.000 C 
BRANCH  21  22
ATOM     22  C   UNL     1       1.591   7.107  20.817  0.00  0.00    +0.000 C 
BRANCH  22  23
ATOM     23  C   UNL     1       2.339   6.871  19.509  0.00  0.00    +0.000 C 
BRANCH  23  24
ATOM     24  C   UNL     1       3.328   5.713  19.634  0.00  0.00    +0.000 C 
BRANCH  24  25
ATOM     25  C   UNL     1       2.674   4.397  19.225  0.00  0.00    +0.000 C 
BRANCH  25  26
ATOM     26  C   UNL     1       1.724   4.585  18.050  0.00  0.00    +0.000 C 
BRANCH  26  27
ATOM     27  O   UNL     1       1.942   3.559  17.091  0.00  0.00    +0.000 OA
ATOM     28  H   UNL     1       1.210   3.598  16.451  0.00  0.00    +0.000 HD
ENDBRANCH  26  27
ENDBRANCH  25  26
ENDBRANCH  24  25
ENDBRANCH  23  24
ENDBRANCH  22  23
ENDBRANCH  21  22
ENDBRANCH  20  21
ENDBRANCH  19  20
ENDBRANCH  18  19
ENDBRANCH  17  18
ENDBRANCH  12  17
TORSDOF 12
ENDMDL
