MODEL 1
REMARK VINA RESULT:      -8.3      0.000      0.000
REMARK  Name = 
REMARK  7 active torsions:
REMARK  status: ('A' for Active; 'I' for Inactive)
REMARK    1  A    between atoms: C_1  and  C_2
REMARK    2  A    between atoms: C_2  and  C_3
REMARK    3  A    between atoms: C_2  and  S_4
REMARK    4  A    between atoms: S_4  and  C_6
REMARK    5  A    between atoms: C_8  and  C_9
REMARK    6  A    between atoms: C_16  and  C_17
REMARK    7  A    between atoms: N_22  and  C_23
REMARK                            x       y       z     vdW  Elec       q    Type
REMARK                         _______ _______ _______ _____ _____    ______ ____
ROOT
ATOM      1  C   UNL     1       4.861   6.066  17.114  0.00  0.00    +0.000 A 
ATOM      2  N   UNL     1       4.452   4.992  17.746  0.00  0.00    +0.000 NA
ATOM      3  C   UNL     1       3.423   5.414  18.567  0.00  0.00    +0.000 A 
ATOM      4  C   UNL     1       3.149   6.765  18.377  0.00  0.00    +0.000 A 
ATOM      5  N   UNL     1       4.099   7.149  17.454  0.00  0.00    +0.000 N 
ATOM      6  H   UNL     1       4.245   8.076  17.075  0.00  0.00    +0.000 HD
ENDROOT
BRANCH   4   7
ATOM      7  C   UNL     1       2.172   7.711  18.934  0.00  0.00    +0.000 A 
ATOM      8  C   UNL     1       2.015   7.904  20.302  0.00  0.00    +0.000 A 
ATOM      9  C   UNL     1       1.095   8.854  20.735  0.00  0.00    +0.000 A 
ATOM     10  N   UNL     1       0.318   9.593  19.909  0.00  0.00    +0.000 NA
ATOM     11  C   UNL     1       0.439   9.388  18.587  0.00  0.00    +0.000 A 
ATOM     12  N   UNL     1      -0.325  10.080  17.644  0.00  0.00    +0.000 N 
ATOM     13  C   UNL     1       1.360   8.469  18.080  0.00  0.00    +0.000 A 
ATOM     14  H   UNL     1      -0.793   9.396  17.054  0.00  0.00    +0.000 HD
BRANCH  12  15
ATOM     15  C   UNL     1      -1.237  11.145  18.076  0.00  0.00    +0.000 C 
ATOM     16  C   UNL     1      -1.744  11.947  16.870  0.00  0.00    +0.000 C 
ATOM     17  C   UNL     1      -2.566  11.099  15.895  0.00  0.00    +0.000 C 
ATOM     18  C   UNL     1      -3.694  10.319  16.567  0.00  0.00    +0.000 C 
ATOM     19  C   UNL     1      -3.281   9.616  17.857  0.00  0.00    +0.000 C 
ATOM     20  C   UNL     1      -2.448  10.503  18.784  0.00  0.00    +0.000 C 
ENDBRANCH  12  15
ENDBRANCH   4   7
BRANCH   3  21
ATOM     21  C   UNL     1       2.761   4.497  19.486  0.00  0.00    +0.000 A 
ATOM     22  C   UNL     1       3.486   3.713  20.395  0.00  0.00    +0.000 A 
ATOM     23  C   UNL     1       2.821   2.906  21.321  0.00  0.00    +0.000 A 
ATOM     24  C   UNL     1       1.434   2.853  21.310  0.00  0.00    +0.000 A 
ATOM     25  F   UNL     1       0.795   2.097  22.212  0.00  0.00    +0.000 F 
ATOM     26  C   UNL     1       0.698   3.571  20.375  0.00  0.00    +0.000 A 
ATOM     27  C   UNL     1       1.364   4.391  19.458  0.00  0.00    +0.000 A 
ENDBRANCH   3  21
BRANCH   1  28
ATOM     28  S   UNL     1       6.272   6.201  16.109  0.00  0.00    +0.000 S 
ATOM     29  O   UNL     1       6.531   4.739  15.579  0.00  0.00    +0.000 OA
BRANCH  28  31
ATOM     30  C   UNL     1       7.573   8.132  17.542  0.00  0.00    +0.000 C 
ATOM     31  C   UNL     1       7.560   6.612  17.343  0.00  0.00    +0.000 C 
ATOM     32  C   UNL     1       7.313   5.942  18.690  0.00  0.00    +0.000 C 
ENDBRANCH  28  31
ENDBRANCH   1  28
TORSDOF 5
ENDMDL
MODEL 2
REMARK VINA RESULT:      -8.3      1.869      2.647
REMARK  Name = 
REMARK  7 active torsions:
REMARK  status: ('A' for Active; 'I' for Inactive)
REMARK    1  A    between atoms: C_1  and  C_2
REMARK    2  A    between atoms: C_2  and  C_3
REMARK    3  A    between atoms: C_2  and  S_4
REMARK    4  A    between atoms: S_4  and  C_6
REMARK    5  A    between atoms: C_8  and  C_9
REMARK    6  A    between atoms: C_16  and  C_17
REMARK    7  A    between atoms: N_22  and  C_23
REMARK                            x       y       z     vdW  Elec       q    Type
REMARK                         _______ _______ _______ _____ _____    ______ ____
ROOT
ATOM      1  C   UNL     1       4.405   6.036  16.896  0.00  0.00    +0.000 A 
ATOM      2  N   UNL     1       4.009   4.963  17.539  0.00  0.00    +0.000 NA
ATOM      3  C   UNL     1       3.148   5.416  18.521  0.00  0.00    +0.000 A 
ATOM      4  C   UNL     1       2.956   6.791  18.429  0.00  0.00    +0.000 A 
ATOM      5  N   UNL     1       3.788   7.153  17.390  0.00  0.00    +0.000 N 
ATOM      6  H   UNL     1       3.950   8.085  17.030  0.00  0.00    +0.000 HD
ENDROOT
BRANCH   4   7
ATOM      7  C   UNL     1       2.150   7.775  19.164  0.00  0.00    +0.000 A 
ATOM      8  C   UNL     1       1.669   7.539  20.447  0.00  0.00    +0.000 A 
ATOM      9  C   UNL     1       0.951   8.548  21.080  0.00  0.00    +0.000 A 
ATOM     10  N   UNL     1       0.665   9.747  20.520  0.00  0.00    +0.000 NA
ATOM     11  C   UNL     1       1.096   9.969  19.267  0.00  0.00    +0.000 A 
ATOM     12  N   UNL     1       0.842  11.161  18.583  0.00  0.00    +0.000 N 
ATOM     13  C   UNL     1       1.844   9.012  18.580  0.00  0.00    +0.000 A 
ATOM     14  H   UNL     1       0.396  10.929  17.699  0.00  0.00    +0.000 HD
BRANCH  12  15
ATOM     15  C   UNL     1       0.162  12.269  19.265  0.00  0.00    +0.000 C 
ATOM     16  C   UNL     1       0.850  12.587  20.600  0.00  0.00    +0.000 C 
ATOM     17  C   UNL     1       2.295  13.062  20.424  0.00  0.00    +0.000 C 
ATOM     18  C   UNL     1       2.443  14.209  19.427  0.00  0.00    +0.000 C 
ATOM     19  C   UNL     1       1.659  14.012  18.132  0.00  0.00    +0.000 C 
ATOM     20  C   UNL     1       0.229  13.520  18.365  0.00  0.00    +0.000 C 
ENDBRANCH  12  15
ENDBRANCH   4   7
BRANCH   3  21
ATOM     21  C   UNL     1       2.559   4.503  19.492  0.00  0.00    +0.000 A 
ATOM     22  C   UNL     1       3.206   4.188  20.695  0.00  0.00    +0.000 A 
ATOM     23  C   UNL     1       2.580   3.376  21.644  0.00  0.00    +0.000 A 
ATOM     24  C   UNL     1       1.325   2.849  21.372  0.00  0.00    +0.000 A 
ATOM     25  F   UNL     1       0.714   2.089  22.290  0.00  0.00    +0.000 F 
ATOM     26  C   UNL     1       0.693   3.095  20.158  0.00  0.00    +0.000 A 
ATOM     27  C   UNL     1       1.315   3.920  19.215  0.00  0.00    +0.000 A 
ENDBRANCH   3  21
BRANCH   1  28
ATOM     28  S   UNL     1       5.658   6.121  15.696  0.00  0.00    +0.000 S 
ATOM     29  O   UNL     1       5.488   4.807  14.842  0.00  0.00    +0.000 OA
BRANCH  28  31
ATOM     30  C   UNL     1       7.306   7.221  17.581  0.00  0.00    +0.000 C 
ATOM     31  C   UNL     1       7.162   5.955  16.729  0.00  0.00    +0.000 C 
ATOM     32  C   UNL     1       7.105   4.744  17.654  0.00  0.00    +0.000 C 
ENDBRANCH  28  31
ENDBRANCH   1  28
TORSDOF 5
ENDMDL
MODEL 3
REMARK VINA RESULT:      -8.2      4.633      7.481
REMARK  Name = 
REMARK  7 active torsions:
REMARK  status: ('A' for Active; 'I' for Inactive)
REMARK    1  A    between atoms: C_1  and  C_2
REMARK    2  A    between atoms: C_2  and  C_3
REMARK    3  A    between atoms: C_2  and  S_4
REMARK    4  A    between atoms: S_4  and  C_6
REMARK    5  A    between atoms: C_8  and  C_9
REMARK    6  A    between atoms: C_16  and  C_17
REMARK    7  A    between atoms: N_22  and  C_23
REMARK                            x       y       z     vdW  Elec       q    Type
REMARK                         _______ _______ _______ _____ _____    ______ ____
ROOT
ATOM      1  C   UNL     1       6.605   4.591  14.080  0.00  0.00    +0.000 A 
ATOM      2  N   UNL     1       5.408   4.433  14.592  0.00  0.00    +0.000 NA
ATOM      3  C   UNL     1       5.479   4.954  15.870  0.00  0.00    +0.000 A 
ATOM      4  C   UNL     1       6.731   5.510  16.120  0.00  0.00    +0.000 A 
ATOM      5  N   UNL     1       7.426   5.243  14.959  0.00  0.00    +0.000 N 
ATOM      6  H   UNL     1       8.392   5.470  14.758  0.00  0.00    +0.000 HD
ENDROOT
BRANCH   4   7
ATOM      7  C   UNL     1       7.345   6.208  17.257  0.00  0.00    +0.000 A 
ATOM      8  C   UNL     1       7.662   5.563  18.447  0.00  0.00    +0.000 A 
ATOM      9  C   UNL     1       8.281   6.299  19.453  0.00  0.00    +0.000 A 
ATOM     10  N   UNL     1       8.579   7.616  19.361  0.00  0.00    +0.000 NA
ATOM     11  C   UNL     1       8.243   8.255  18.227  0.00  0.00    +0.000 A 
ATOM     12  N   UNL     1       8.484   9.617  18.029  0.00  0.00    +0.000 N 
ATOM     13  C   UNL     1       7.643   7.575  17.166  0.00  0.00    +0.000 A 
ATOM     14  H   UNL     1       7.604  10.059  17.776  0.00  0.00    +0.000 HD
BRANCH  12  15
ATOM     15  C   UNL     1       9.214  10.388  19.043  0.00  0.00    +0.000 C 
ATOM     16  C   UNL     1      10.648  10.675  18.576  0.00  0.00    +0.000 C 
ATOM     17  C   UNL     1      10.700  11.539  17.312  0.00  0.00    +0.000 C 
ATOM     18  C   UNL     1       9.874  12.819  17.415  0.00  0.00    +0.000 C 
ATOM     19  C   UNL     1       8.483  12.617  18.010  0.00  0.00    +0.000 C 
ATOM     20  C   UNL     1       8.488  11.732  19.259  0.00  0.00    +0.000 C 
ENDBRANCH  12  15
ENDBRANCH   4   7
BRANCH   3  21
ATOM     21  C   UNL     1       4.343   4.888  16.780  0.00  0.00    +0.000 A 
ATOM     22  C   UNL     1       3.685   3.680  17.052  0.00  0.00    +0.000 A 
ATOM     23  C   UNL     1       2.653   3.634  17.993  0.00  0.00    +0.000 A 
ATOM     24  C   UNL     1       2.253   4.801  18.629  0.00  0.00    +0.000 A 
ATOM     25  F   UNL     1       1.279   4.753  19.547  0.00  0.00    +0.000 F 
ATOM     26  C   UNL     1       2.847   6.020  18.326  0.00  0.00    +0.000 A 
ATOM     27  C   UNL     1       3.891   6.063  17.395  0.00  0.00    +0.000 A 
ENDBRANCH   3  21
BRANCH   1  28
ATOM     28  S   UNL     1       7.184   3.937  12.579  0.00  0.00    +0.000 S 
ATOM     29  O   UNL     1       7.126   5.143  11.565  0.00  0.00    +0.000 OA
BRANCH  28  31
ATOM     30  C   UNL     1       4.729   3.525  11.447  0.00  0.00    +0.000 C 
ATOM     31  C   UNL     1       5.850   2.756  12.157  0.00  0.00    +0.000 C 
ATOM     32  C   UNL     1       6.330   1.633  11.245  0.00  0.00    +0.000 C 
ENDBRANCH  28  31
ENDBRANCH   1  28
TORSDOF 5
ENDMDL
MODEL 4
REMARK VINA RESULT:      -8.0      2.140      2.994
REMARK  Name = 
REMARK  7 active torsions:
REMARK  status: ('A' for Active; 'I' for Inactive)
REMARK    1  A    between atoms: C_1  and  C_2
REMARK    2  A    between atoms: C_2  and  C_3
REMARK    3  A    between atoms: C_2  and  S_4
REMARK    4  A    between atoms: S_4  and  C_6
REMARK    5  A    between atoms: C_8  and  C_9
REMARK    6  A    between atoms: C_16  and  C_17
REMARK    7  A    between atoms: N_22  and  C_23
REMARK                            x       y       z     vdW  Elec       q    Type
REMARK                         _______ _______ _______ _____ _____    ______ ____
ROOT
ATOM      1  C   UNL     1       4.364   6.389  17.340  0.00  0.00    +0.000 A 
ATOM      2  N   UNL     1       3.958   5.280  17.912  0.00  0.00    +0.000 NA
ATOM      3  C   UNL     1       3.017   5.668  18.847  0.00  0.00    +0.000 A 
ATOM      4  C   UNL     1       2.789   7.040  18.794  0.00  0.00    +0.000 A 
ATOM      5  N   UNL     1       3.680   7.467  17.831  0.00  0.00    +0.000 N 
ATOM      6  H   UNL     1       3.837   8.417  17.520  0.00  0.00    +0.000 HD
ENDROOT
BRANCH   4   7
ATOM      7  C   UNL     1       1.903   7.970  19.508  0.00  0.00    +0.000 A 
ATOM      8  C   UNL     1       1.295   7.645  20.715  0.00  0.00    +0.000 A 
ATOM      9  C   UNL     1       0.507   8.609  21.338  0.00  0.00    +0.000 A 
ATOM     10  N   UNL     1       0.271   9.842  20.835  0.00  0.00    +0.000 NA
ATOM     11  C   UNL     1       0.826  10.151  19.651  0.00  0.00    +0.000 A 
ATOM     12  N   UNL     1       0.635  11.387  19.028  0.00  0.00    +0.000 N 
ATOM     13  C   UNL     1       1.649   9.244  18.981  0.00  0.00    +0.000 A 
ATOM     14  H   UNL     1       0.284  11.216  18.089  0.00  0.00    +0.000 HD
BRANCH  12  15
ATOM     15  C   UNL     1      -0.121  12.444  19.710  0.00  0.00    +0.000 C 
ATOM     16  C   UNL     1       0.605  12.891  20.987  0.00  0.00    +0.000 C 
ATOM     17  C   UNL     1       1.977  13.509  20.705  0.00  0.00    +0.000 C 
ATOM     18  C   UNL     1       1.941  14.621  19.659  0.00  0.00    +0.000 C 
ATOM     19  C   UNL     1       1.110  14.287  18.423  0.00  0.00    +0.000 C 
ATOM     20  C   UNL     1      -0.242  13.656  18.763  0.00  0.00    +0.000 C 
ENDBRANCH  12  15
ENDBRANCH   4   7
BRANCH   3  21
ATOM     21  C   UNL     1       2.390   4.701  19.738  0.00  0.00    +0.000 A 
ATOM     22  C   UNL     1       1.286   3.935  19.335  0.00  0.00    +0.000 A 
ATOM     23  C   UNL     1       0.758   2.956  20.181  0.00  0.00    +0.000 A 
ATOM     24  C   UNL     1       1.309   2.771  21.442  0.00  0.00    +0.000 A 
ATOM     25  F   UNL     1       0.818   1.818  22.244  0.00  0.00    +0.000 F 
ATOM     26  C   UNL     1       2.361   3.563  21.886  0.00  0.00    +0.000 A 
ATOM     27  C   UNL     1       2.898   4.534  21.033  0.00  0.00    +0.000 A 
ENDBRANCH   3  21
BRANCH   1  28
ATOM     28  S   UNL     1       5.695   6.558  16.237  0.00  0.00    +0.000 S 
ATOM     29  O   UNL     1       5.030   6.931  14.857  0.00  0.00    +0.000 OA
BRANCH  28  31
ATOM     30  C   UNL     1       6.817   4.580  14.718  0.00  0.00    +0.000 C 
ATOM     31  C   UNL     1       6.309   4.835  16.141  0.00  0.00    +0.000 C 
ATOM     32  C   UNL     1       7.444   4.565  17.123  0.00  0.00    +0.000 C 
ENDBRANCH  28  31
ENDBRANCH   1  28
TORSDOF 5
ENDMDL
MODEL 5
REMARK VINA RESULT:      -7.9      0.488      1.014
REMARK  Name = 
REMARK  7 active torsions:
REMARK  status: ('A' for Active; 'I' for Inactive)
REMARK    1  A    between atoms: C_1  and  C_2
REMARK    2  A    between atoms: C_2  and  C_3
REMARK    3  A    between atoms: C_2  and  S_4
REMARK    4  A    between atoms: S_4  and  C_6
REMARK    5  A    between atoms: C_8  and  C_9
REMARK    6  A    between atoms: C_16  and  C_17
REMARK    7  A    between atoms: N_22  and  C_23
REMARK                            x       y       z     vdW  Elec       q    Type
REMARK                         _______ _______ _______ _____ _____    ______ ____
ROOT
ATOM      1  C   UNL     1       4.645   5.947  16.787  0.00  0.00    +0.000 A 
ATOM      2  N   UNL     1       4.298   4.908  17.508  0.00  0.00    +0.000 NA
ATOM      3  C   UNL     1       3.352   5.374  18.401  0.00  0.00    +0.000 A 
ATOM      4  C   UNL     1       3.061   6.716  18.171  0.00  0.00    +0.000 A 
ATOM      5  N   UNL     1       3.918   7.049  17.144  0.00  0.00    +0.000 N 
ATOM      6  H   UNL     1       4.027   7.956  16.707  0.00  0.00    +0.000 HD
ENDROOT
BRANCH   4   7
ATOM      7  C   UNL     1       2.142   7.692  18.772  0.00  0.00    +0.000 A 
ATOM      8  C   UNL     1       2.086   7.922  20.142  0.00  0.00    +0.000 A 
ATOM      9  C   UNL     1       1.214   8.899  20.614  0.00  0.00    +0.000 A 
ATOM     10  N   UNL     1       0.392   9.631  19.827  0.00  0.00    +0.000 NA
ATOM     11  C   UNL     1       0.414   9.390  18.505  0.00  0.00    +0.000 A 
ATOM     12  N   UNL     1      -0.404  10.071  17.601  0.00  0.00    +0.000 N 
ATOM     13  C   UNL     1       1.282   8.443  17.958  0.00  0.00    +0.000 A 
ATOM     14  H   UNL     1      -0.924   9.381  17.064  0.00  0.00    +0.000 HD
BRANCH  12  15
ATOM     15  C   UNL     1      -1.266  11.163  18.069  0.00  0.00    +0.000 C 
ATOM     16  C   UNL     1      -1.773  11.998  16.885  0.00  0.00    +0.000 C 
ATOM     17  C   UNL     1      -2.649  11.193  15.922  0.00  0.00    +0.000 C 
ATOM     18  C   UNL     1      -3.788  10.445  16.613  0.00  0.00    +0.000 C 
ATOM     19  C   UNL     1      -3.369   9.711  17.883  0.00  0.00    +0.000 C 
ATOM     20  C   UNL     1      -2.481  10.556  18.800  0.00  0.00    +0.000 C 
ENDBRANCH  12  15
ENDBRANCH   4   7
BRANCH   3  21
ATOM     21  C   UNL     1       2.782   4.507  19.424  0.00  0.00    +0.000 A 
ATOM     22  C   UNL     1       1.401   4.459  19.663  0.00  0.00    +0.000 A 
ATOM     23  C   UNL     1       0.875   3.558  20.591  0.00  0.00    +0.000 A 
ATOM     24  C   UNL     1       1.733   2.733  21.307  0.00  0.00    +0.000 A 
ATOM     25  F   UNL     1       1.228   1.853  22.181  0.00  0.00    +0.000 F 
ATOM     26  C   UNL     1       3.110   2.810  21.132  0.00  0.00    +0.000 A 
ATOM     27  C   UNL     1       3.634   3.703  20.192  0.00  0.00    +0.000 A 
ENDBRANCH   3  21
BRANCH   1  28
ATOM     28  S   UNL     1       5.953   6.026  15.646  0.00  0.00    +0.000 S 
ATOM     29  O   UNL     1       5.853   4.684  14.825  0.00  0.00    +0.000 OA
BRANCH  28  31
ATOM     30  C   UNL     1       7.342   7.092  17.746  0.00  0.00    +0.000 C 
ATOM     31  C   UNL     1       7.408   5.927  16.753  0.00  0.00    +0.000 C 
ATOM     32  C   UNL     1       7.459   4.618  17.535  0.00  0.00    +0.000 C 
ENDBRANCH  28  31
ENDBRANCH   1  28
TORSDOF 5
ENDMDL
MODEL 6
REMARK VINA RESULT:      -7.9      4.649      9.031
REMARK  Name = 
REMARK  7 active torsions:
REMARK  status: ('A' for Active; 'I' for Inactive)
REMARK    1  A    between atoms: C_1  and  C_2
REMARK    2  A    between atoms: C_2  and  C_3
REMARK    3  A    between atoms: C_2  and  S_4
REMARK    4  A    between atoms: S_4  and  C_6
REMARK    5  A    between atoms: C_8  and  C_9
REMARK    6  A    between atoms: C_16  and  C_17
REMARK    7  A    between atoms: N_22  and  C_23
REMARK                            x       y       z     vdW  Elec       q    Type
REMARK                         _______ _______ _______ _____ _____    ______ ____
ROOT
ATOM      1  C   UNL     1      -1.274  12.503  21.050  0.00  0.00    +0.000 A 
ATOM      2  N   UNL     1      -2.167  12.307  20.109  0.00  0.00    +0.000 NA
ATOM      3  C   UNL     1      -1.610  11.374  19.256  0.00  0.00    +0.000 A 
ATOM      4  C   UNL     1      -0.375  10.935  19.727  0.00  0.00    +0.000 A 
ATOM      5  N   UNL     1      -0.189  11.691  20.865  0.00  0.00    +0.000 N 
ATOM      6  H   UNL     1       0.613  11.681  21.482  0.00  0.00    +0.000 HD
ENDROOT
BRANCH   4   7
ATOM      7  C   UNL     1       0.621   9.959  19.263  0.00  0.00    +0.000 A 
ATOM      8  C   UNL     1       1.431  10.186  18.156  0.00  0.00    +0.000 A 
ATOM      9  C   UNL     1       2.376   9.222  17.820  0.00  0.00    +0.000 A 
ATOM     10  N   UNL     1       2.548   8.057  18.488  0.00  0.00    +0.000 NA
ATOM     11  C   UNL     1       1.745   7.815  19.538  0.00  0.00    +0.000 A 
ATOM     12  N   UNL     1       1.820   6.638  20.287  0.00  0.00    +0.000 N 
ATOM     13  C   UNL     1       0.791   8.748  19.948  0.00  0.00    +0.000 A 
ATOM     14  H   UNL     1       0.895   6.216  20.305  0.00  0.00    +0.000 HD
BRANCH  12  15
ATOM     15  C   UNL     1       2.867   5.650  20.001  0.00  0.00    +0.000 C 
ATOM     16  C   UNL     1       2.737   4.438  20.934  0.00  0.00    +0.000 C 
ATOM     17  C   UNL     1       1.420   3.681  20.745  0.00  0.00    +0.000 C 
ATOM     18  C   UNL     1       1.136   3.306  19.292  0.00  0.00    +0.000 C 
ATOM     19  C   UNL     1       1.388   4.435  18.297  0.00  0.00    +0.000 C 
ATOM     20  C   UNL     1       2.708   5.169  18.544  0.00  0.00    +0.000 C 
ENDBRANCH  12  15
ENDBRANCH   4   7
BRANCH   3  21
ATOM     21  C   UNL     1      -2.292  10.957  18.038  0.00  0.00    +0.000 A 
ATOM     22  C   UNL     1      -3.516  11.520  17.649  0.00  0.00    +0.000 A 
ATOM     23  C   UNL     1      -4.104  11.161  16.434  0.00  0.00    +0.000 A 
ATOM     24  C   UNL     1      -3.491  10.210  15.630  0.00  0.00    +0.000 A 
ATOM     25  F   UNL     1      -4.043   9.882  14.455  0.00  0.00    +0.000 F 
ATOM     26  C   UNL     1      -2.311   9.592  16.028  0.00  0.00    +0.000 A 
ATOM     27  C   UNL     1      -1.715   9.962  17.237  0.00  0.00    +0.000 A 
ENDBRANCH   3  21
BRANCH   1  28
ATOM     28  S   UNL     1      -1.320  13.725  22.284  0.00  0.00    +0.000 S 
ATOM     29  O   UNL     1      -0.468  13.132  23.470  0.00  0.00    +0.000 OA
BRANCH  28  31
ATOM     30  C   UNL     1      -3.337  12.438  23.608  0.00  0.00    +0.000 C 
ATOM     31  C   UNL     1      -3.087  13.692  22.762  0.00  0.00    +0.000 C 
ATOM     32  C   UNL     1      -3.496  14.919  23.571  0.00  0.00    +0.000 C 
ENDBRANCH  28  31
ENDBRANCH   1  28
TORSDOF 5
ENDMDL
MODEL 7
REMARK VINA RESULT:      -7.9      4.101      8.151
REMARK  Name = 
REMARK  7 active torsions:
REMARK  status: ('A' for Active; 'I' for Inactive)
REMARK    1  A    between atoms: C_1  and  C_2
REMARK    2  A    between atoms: C_2  and  C_3
REMARK    3  A    between atoms: C_2  and  S_4
REMARK    4  A    between atoms: S_4  and  C_6
REMARK    5  A    between atoms: C_8  and  C_9
REMARK    6  A    between atoms: C_16  and  C_17
REMARK    7  A    between atoms: N_22  and  C_23
REMARK                            x       y       z     vdW  Elec       q    Type
REMARK                         _______ _______ _______ _____ _____    ______ ____
ROOT
ATOM      1  C   UNL     1       1.346  13.378  18.580  0.00  0.00    +0.000 A 
ATOM      2  N   UNL     1       0.070  13.304  18.283  0.00  0.00    +0.000 NA
ATOM      3  C   UNL     1      -0.339  12.055  18.713  0.00  0.00    +0.000 A 
ATOM      4  C   UNL     1       0.696  11.379  19.354  0.00  0.00    +0.000 A 
ATOM      5  N   UNL     1       1.758  12.250  19.234  0.00  0.00    +0.000 N 
ATOM      6  H   UNL     1       2.707  12.107  19.556  0.00  0.00    +0.000 HD
ENDROOT
BRANCH   4   7
ATOM      7  C   UNL     1       0.824  10.075  20.018  0.00  0.00    +0.000 A 
ATOM      8  C   UNL     1       0.176   9.776  21.211  0.00  0.00    +0.000 A 
ATOM      9  C   UNL     1       0.324   8.498  21.741  0.00  0.00    +0.000 A 
ATOM     10  N   UNL     1       1.079   7.523  21.183  0.00  0.00    +0.000 NA
ATOM     11  C   UNL     1       1.737   7.816  20.048  0.00  0.00    +0.000 A 
ATOM     12  N   UNL     1       2.561   6.895  19.396  0.00  0.00    +0.000 N 
ATOM     13  C   UNL     1       1.616   9.069  19.446  0.00  0.00    +0.000 A 
ATOM     14  H   UNL     1       3.476   7.321  19.274  0.00  0.00    +0.000 HD
BRANCH  12  15
ATOM     15  C   UNL     1       2.659   5.517  19.892  0.00  0.00    +0.000 C 
ATOM     16  C   UNL     1       1.579   4.633  19.254  0.00  0.00    +0.000 C 
ATOM     17  C   UNL     1       1.729   4.515  17.735  0.00  0.00    +0.000 C 
ATOM     18  C   UNL     1       3.130   4.100  17.291  0.00  0.00    +0.000 C 
ATOM     19  C   UNL     1       4.255   4.849  18.001  0.00  0.00    +0.000 C 
ATOM     20  C   UNL     1       4.044   4.953  19.513  0.00  0.00    +0.000 C 
ENDBRANCH  12  15
ENDBRANCH   4   7
BRANCH   3  21
ATOM     21  C   UNL     1      -1.698  11.582  18.485  0.00  0.00    +0.000 A 
ATOM     22  C   UNL     1      -2.796  12.142  19.154  0.00  0.00    +0.000 A 
ATOM     23  C   UNL     1      -4.095  11.726  18.853  0.00  0.00    +0.000 A 
ATOM     24  C   UNL     1      -4.292  10.723  17.913  0.00  0.00    +0.000 A 
ATOM     25  F   UNL     1      -5.538  10.339  17.608  0.00  0.00    +0.000 F 
ATOM     26  C   UNL     1      -3.214  10.109  17.286  0.00  0.00    +0.000 A 
ATOM     27  C   UNL     1      -1.914  10.536  17.578  0.00  0.00    +0.000 A 
ENDBRANCH   3  21
BRANCH   1  28
ATOM     28  S   UNL     1       2.452  14.625  18.089  0.00  0.00    +0.000 S 
ATOM     29  O   UNL     1       3.866  14.119  18.566  0.00  0.00    +0.000 OA
BRANCH  28  31
ATOM     30  C   UNL     1       0.684  16.658  18.558  0.00  0.00    +0.000 C 
ATOM     31  C   UNL     1       1.935  16.014  19.165  0.00  0.00    +0.000 C 
ATOM     32  C   UNL     1       1.615  15.563  20.587  0.00  0.00    +0.000 C 
ENDBRANCH  28  31
ENDBRANCH   1  28
TORSDOF 5
ENDMDL
MODEL 8
REMARK VINA RESULT:      -7.8      4.186      8.147
REMARK  Name = 
REMARK  7 active torsions:
REMARK  status: ('A' for Active; 'I' for Inactive)
REMARK    1  A    between atoms: C_1  and  C_2
REMARK    2  A    between atoms: C_2  and  C_3
REMARK    3  A    between atoms: C_2  and  S_4
REMARK    4  A    between atoms: S_4  and  C_6
REMARK    5  A    between atoms: C_8  and  C_9
REMARK    6  A    between atoms: C_16  and  C_17
REMARK    7  A    between atoms: N_22  and  C_23
REMARK                            x       y       z     vdW  Elec       q    Type
REMARK                         _______ _______ _______ _____ _____    ______ ____
ROOT
ATOM      1  C   UNL     1       1.402  13.384  18.582  0.00  0.00    +0.000 A 
ATOM      2  N   UNL     1       0.131  13.317  18.263  0.00  0.00    +0.000 NA
ATOM      3  C   UNL     1      -0.289  12.066  18.673  0.00  0.00    +0.000 A 
ATOM      4  C   UNL     1       0.732  11.380  19.325  0.00  0.00    +0.000 A 
ATOM      5  N   UNL     1       1.800  12.248  19.232  0.00  0.00    +0.000 N 
ATOM      6  H   UNL     1       2.742  12.098  19.568  0.00  0.00    +0.000 HD
ENDROOT
BRANCH   4   7
ATOM      7  C   UNL     1       0.845  10.068  19.977  0.00  0.00    +0.000 A 
ATOM      8  C   UNL     1       0.166   9.755  21.149  0.00  0.00    +0.000 A 
ATOM      9  C   UNL     1       0.302   8.471  21.668  0.00  0.00    +0.000 A 
ATOM     10  N   UNL     1       1.074   7.504  21.120  0.00  0.00    +0.000 NA
ATOM     11  C   UNL     1       1.761   7.810  20.006  0.00  0.00    +0.000 A 
ATOM     12  N   UNL     1       2.604   6.898  19.366  0.00  0.00    +0.000 N 
ATOM     13  C   UNL     1       1.654   9.070  19.415  0.00  0.00    +0.000 A 
ATOM     14  H   UNL     1       3.521   7.327  19.274  0.00  0.00    +0.000 HD
BRANCH  12  15
ATOM     15  C   UNL     1       2.691   5.515  19.849  0.00  0.00    +0.000 C 
ATOM     16  C   UNL     1       1.602   4.646  19.206  0.00  0.00    +0.000 C 
ATOM     17  C   UNL     1       1.746   4.541  17.685  0.00  0.00    +0.000 C 
ATOM     18  C   UNL     1       3.143   4.118  17.234  0.00  0.00    +0.000 C 
ATOM     19  C   UNL     1       4.276   4.850  17.948  0.00  0.00    +0.000 C 
ATOM     20  C   UNL     1       4.070   4.942  19.461  0.00  0.00    +0.000 C 
ENDBRANCH  12  15
ENDBRANCH   4   7
BRANCH   3  21
ATOM     21  C   UNL     1      -1.645  11.599  18.417  0.00  0.00    +0.000 A 
ATOM     22  C   UNL     1      -1.907  10.549  17.525  0.00  0.00    +0.000 A 
ATOM     23  C   UNL     1      -3.208  10.068  17.362  0.00  0.00    +0.000 A 
ATOM     24  C   UNL     1      -4.251  10.662  18.061  0.00  0.00    +0.000 A 
ATOM     25  F   UNL     1      -5.495  10.187  17.923  0.00  0.00    +0.000 F 
ATOM     26  C   UNL     1      -4.022  11.747  18.900  0.00  0.00    +0.000 A 
ATOM     27  C   UNL     1      -2.717  12.219  19.073  0.00  0.00    +0.000 A 
ENDBRANCH   3  21
BRANCH   1  28
ATOM     28  S   UNL     1       2.520  14.632  18.124  0.00  0.00    +0.000 S 
ATOM     29  O   UNL     1       3.896  14.191  18.752  0.00  0.00    +0.000 OA
BRANCH  28  31
ATOM     30  C   UNL     1       3.045  16.702  19.832  0.00  0.00    +0.000 C 
ATOM     31  C   UNL     1       1.878  16.062  19.071  0.00  0.00    +0.000 C 
ATOM     32  C   UNL     1       1.239  17.117  18.174  0.00  0.00    +0.000 C 
ENDBRANCH  28  31
ENDBRANCH   1  28
TORSDOF 5
ENDMDL
MODEL 9
REMARK VINA RESULT:      -7.8      1.080      1.443
REMARK  Name = 
REMARK  7 active torsions:
REMARK  status: ('A' for Active; 'I' for Inactive)
REMARK    1  A    between atoms: C_1  and  C_2
REMARK    2  A    between atoms: C_2  and  C_3
REMARK    3  A    between atoms: C_2  and  S_4
REMARK    4  A    between atoms: S_4  and  C_6
REMARK    5  A    between atoms: C_8  and  C_9
REMARK    6  A    between atoms: C_16  and  C_17
REMARK    7  A    between atoms: N_22  and  C_23
REMARK                            x       y       z     vdW  Elec       q    Type
REMARK                         _______ _______ _______ _____ _____    ______ ____
ROOT
ATOM      1  C   UNL     1       4.593   6.288  17.208  0.00  0.00    +0.000 A 
ATOM      2  N   UNL     1       4.178   5.231  17.865  0.00  0.00    +0.000 NA
ATOM      3  C   UNL     1       3.130   5.671  18.651  0.00  0.00    +0.000 A 
ATOM      4  C   UNL     1       2.851   7.014  18.413  0.00  0.00    +0.000 A 
ATOM      5  N   UNL     1       3.817   7.376  17.498  0.00  0.00    +0.000 N 
ATOM      6  H   UNL     1       3.965   8.292  17.094  0.00  0.00    +0.000 HD
ENDROOT
BRANCH   4   7
ATOM      7  C   UNL     1       1.857   7.969  18.922  0.00  0.00    +0.000 A 
ATOM      8  C   UNL     1       1.691   8.225  20.278  0.00  0.00    +0.000 A 
ATOM      9  C   UNL     1       0.754   9.180  20.661  0.00  0.00    +0.000 A 
ATOM     10  N   UNL     1      -0.032   9.866  19.798  0.00  0.00    +0.000 NA
ATOM     11  C   UNL     1       0.097   9.598  18.488  0.00  0.00    +0.000 A 
ATOM     12  N   UNL     1      -0.675  10.231  17.510  0.00  0.00    +0.000 N 
ATOM     13  C   UNL     1       1.035   8.671  18.029  0.00  0.00    +0.000 A 
ATOM     14  H   UNL     1      -1.129   9.511  16.953  0.00  0.00    +0.000 HD
BRANCH  12  15
ATOM     15  C   UNL     1      -1.606  11.300  17.887  0.00  0.00    +0.000 C 
ATOM     16  C   UNL     1      -2.111  12.043  16.643  0.00  0.00    +0.000 C 
ATOM     17  C   UNL     1      -2.910  11.142  15.697  0.00  0.00    +0.000 C 
ATOM     18  C   UNL     1      -4.035  10.376  16.391  0.00  0.00    +0.000 C 
ATOM     19  C   UNL     1      -3.626   9.734  17.714  0.00  0.00    +0.000 C 
ATOM     20  C   UNL     1      -2.815  10.672  18.610  0.00  0.00    +0.000 C 
ENDBRANCH  12  15
ENDBRANCH   4   7
BRANCH   3  21
ATOM     21  C   UNL     1       2.456   4.778  19.585  0.00  0.00    +0.000 A 
ATOM     22  C   UNL     1       1.390   3.961  19.184  0.00  0.00    +0.000 A 
ATOM     23  C   UNL     1       0.818   3.054  20.080  0.00  0.00    +0.000 A 
ATOM     24  C   UNL     1       1.286   2.995  21.385  0.00  0.00    +0.000 A 
ATOM     25  F   UNL     1       0.754   2.110  22.238  0.00  0.00    +0.000 F 
ATOM     26  C   UNL     1       2.298   3.842  21.822  0.00  0.00    +0.000 A 
ATOM     27  C   UNL     1       2.880   4.739  20.920  0.00  0.00    +0.000 A 
ENDBRANCH   3  21
BRANCH   1  28
ATOM     28  S   UNL     1       6.023   6.403  16.227  0.00  0.00    +0.000 S 
ATOM     29  O   UNL     1       5.494   6.739  14.781  0.00  0.00    +0.000 OA
BRANCH  28  31
ATOM     30  C   UNL     1       7.100   4.311  14.834  0.00  0.00    +0.000 C 
ATOM     31  C   UNL     1       6.615   4.670  16.243  0.00  0.00    +0.000 C 
ATOM     32  C   UNL     1       7.760   4.453  17.227  0.00  0.00    +0.000 C 
ENDBRANCH  28  31
ENDBRANCH   1  28
TORSDOF 5
ENDMDL
