MODEL 1
REMARK VINA RESULT:      -5.0      0.000      0.000
REMARK  Name = 
REMARK  0 active torsions:
REMARK  status: ('A' for Active; 'I' for Inactive)
REMARK                            x       y       z     vdW  Elec       q    Type
REMARK                         _______ _______ _______ _____ _____    ______ ____
ROOT
ATOM      1 CL   UNL     1       7.914   5.508  20.056  0.00  0.00    +0.000 Cl
ATOM      2  C   UNL     1       6.765   5.523  18.824  0.00  0.00    +0.000 A 
ATOM      3  C   UNL     1       5.645   4.573  18.734  0.00  0.00    +0.000 A 
ATOM      4  N   UNL     1       5.312   3.596  19.503  0.00  0.00    +0.000 NA
ATOM      5  S   UNL     1       3.922   2.799  18.951  0.00  0.00    +0.000 S 
ATOM      6  S   UNL     1       3.547   3.929  17.262  0.00  0.00    +0.000 S 
ATOM      7  C   UNL     1       4.877   4.909  17.537  0.00  0.00    +0.000 A 
ATOM      8  C   UNL     1       5.479   5.951  16.975  0.00  0.00    +0.000 A 
ATOM      9 CL   UNL     1       4.984   6.738  15.550  0.00  0.00    +0.000 Cl
ATOM     10  C   UNL     1       6.634   6.325  17.762  0.00  0.00    +0.000 A 
ATOM     11 CL   UNL     1       7.668   7.621  17.366  0.00  0.00    +0.000 Cl
ENDROOT
TORSDOF 0
ENDMDL
MODEL 2
REMARK VINA RESULT:      -5.0      3.539      4.220
REMARK  Name = 
REMARK  0 active torsions:
REMARK  status: ('A' for Active; 'I' for Inactive)
REMARK                            x       y       z     vdW  Elec       q    Type
REMARK                         _______ _______ _______ _____ _____    ______ ____
ROOT
ATOM      1 CL   UNL     1       4.883   1.767  20.612  0.00  0.00    +0.000 Cl
ATOM      2  C   UNL     1       4.184   2.898  19.577  0.00  0.00    +0.000 A 
ATOM      3  C   UNL     1       4.915   4.025  18.977  0.00  0.00    +0.000 A 
ATOM      4  N   UNL     1       6.147   4.380  19.093  0.00  0.00    +0.000 NA
ATOM      5  S   UNL     1       6.495   5.769  18.186  0.00  0.00    +0.000 S 
ATOM      6  S   UNL     1       4.626   6.104  17.371  0.00  0.00    +0.000 S 
ATOM      7  C   UNL     1       3.972   4.771  18.147  0.00  0.00    +0.000 A 
ATOM      8  C   UNL     1       2.802   4.151  18.244  0.00  0.00    +0.000 A 
ATOM      9 CL   UNL     1       1.361   4.615  17.468  0.00  0.00    +0.000 Cl
ATOM     10  C   UNL     1       2.932   3.007  19.120  0.00  0.00    +0.000 A 
ATOM     11 CL   UNL     1       1.646   1.954  19.496  0.00  0.00    +0.000 Cl
ENDROOT
TORSDOF 0
ENDMDL
MODEL 3
REMARK VINA RESULT:      -4.9      3.776      4.618
REMARK  Name = 
REMARK  0 active torsions:
REMARK  status: ('A' for Active; 'I' for Inactive)
REMARK                            x       y       z     vdW  Elec       q    Type
REMARK                         _______ _______ _______ _____ _____    ______ ____
ROOT
ATOM      1 CL   UNL     1       2.180   7.184  19.778  0.00  0.00    +0.000 Cl
ATOM      2  C   UNL     1       2.645   5.808  18.925  0.00  0.00    +0.000 A 
ATOM      3  C   UNL     1       3.712   5.791  17.911  0.00  0.00    +0.000 A 
ATOM      4  N   UNL     1       4.468   6.737  17.477  0.00  0.00    +0.000 NA
ATOM      5  S   UNL     1       5.550   6.192  16.291  0.00  0.00    +0.000 S 
ATOM      6  S   UNL     1       4.990   4.204  16.230  0.00  0.00    +0.000 S 
ATOM      7  C   UNL     1       3.816   4.425  17.404  0.00  0.00    +0.000 A 
ATOM      8  C   UNL     1       2.906   3.705  18.049  0.00  0.00    +0.000 A 
ATOM      9 CL   UNL     1       2.612   2.044  17.832  0.00  0.00    +0.000 Cl
ATOM     10  C   UNL     1       2.190   4.552  18.978  0.00  0.00    +0.000 A 
ATOM     11 CL   UNL     1       0.941   3.994  19.995  0.00  0.00    +0.000 Cl
ENDROOT
TORSDOF 0
ENDMDL
MODEL 4
REMARK VINA RESULT:      -4.9      4.081      4.814
REMARK  Name = 
REMARK  0 active torsions:
REMARK  status: ('A' for Active; 'I' for Inactive)
REMARK                            x       y       z     vdW  Elec       q    Type
REMARK                         _______ _______ _______ _____ _____    ______ ____
ROOT
ATOM      1 CL   UNL     1       1.717   6.092  20.625  0.00  0.00    +0.000 Cl
ATOM      2  C   UNL     1       2.503   4.947  19.671  0.00  0.00    +0.000 A 
ATOM      3  C   UNL     1       3.411   5.283  18.563  0.00  0.00    +0.000 A 
ATOM      4  N   UNL     1       3.783   6.426  18.104  0.00  0.00    +0.000 NA
ATOM      5  S   UNL     1       4.854   6.269  16.800  0.00  0.00    +0.000 S 
ATOM      6  S   UNL     1       4.946   4.207  16.701  0.00  0.00    +0.000 S 
ATOM      7  C   UNL     1       3.888   4.028  17.988  0.00  0.00    +0.000 A 
ATOM      8  C   UNL     1       3.322   3.048  18.682  0.00  0.00    +0.000 A 
ATOM      9 CL   UNL     1       3.545   1.382  18.418  0.00  0.00    +0.000 Cl
ATOM     10  C   UNL     1       2.474   3.610  19.710  0.00  0.00    +0.000 A 
ATOM     11 CL   UNL     1       1.575   2.671  20.812  0.00  0.00    +0.000 Cl
ENDROOT
TORSDOF 0
ENDMDL
MODEL 5
REMARK VINA RESULT:      -4.9      3.624      4.282
REMARK  Name = 
REMARK  0 active torsions:
REMARK  status: ('A' for Active; 'I' for Inactive)
REMARK                            x       y       z     vdW  Elec       q    Type
REMARK                         _______ _______ _______ _____ _____    ______ ____
ROOT
ATOM      1 CL   UNL     1       3.365   1.703  17.940  0.00  0.00    +0.000 Cl
ATOM      2  C   UNL     1       3.455   3.381  17.817  0.00  0.00    +0.000 A 
ATOM      3  C   UNL     1       4.465   4.094  17.019  0.00  0.00    +0.000 A 
ATOM      4  N   UNL     1       5.430   3.644  16.297  0.00  0.00    +0.000 NA
ATOM      5  S   UNL     1       6.318   4.894  15.574  0.00  0.00    +0.000 S 
ATOM      6  S   UNL     1       5.270   6.511  16.320  0.00  0.00    +0.000 S 
ATOM      7  C   UNL     1       4.212   5.525  17.165  0.00  0.00    +0.000 A 
ATOM      8  C   UNL     1       3.161   5.650  17.966  0.00  0.00    +0.000 A 
ATOM      9 CL   UNL     1       2.451   7.115  18.460  0.00  0.00    +0.000 Cl
ATOM     10  C   UNL     1       2.699   4.338  18.365  0.00  0.00    +0.000 A 
ATOM     11 CL   UNL     1       1.365   4.078  19.394  0.00  0.00    +0.000 Cl
ENDROOT
TORSDOF 0
ENDMDL
MODEL 6
REMARK VINA RESULT:      -4.9      2.592      3.170
REMARK  Name = 
REMARK  0 active torsions:
REMARK  status: ('A' for Active; 'I' for Inactive)
REMARK                            x       y       z     vdW  Elec       q    Type
REMARK                         _______ _______ _______ _____ _____    ______ ____
ROOT
ATOM      1 CL   UNL     1       2.526   7.265  18.391  0.00  0.00    +0.000 Cl
ATOM      2  C   UNL     1       3.260   5.831  17.898  0.00  0.00    +0.000 A 
ATOM      3  C   UNL     1       2.844   4.496  18.354  0.00  0.00    +0.000 A 
ATOM      4  N   UNL     1       1.907   4.142  19.163  0.00  0.00    +0.000 NA
ATOM      5  S   UNL     1       1.838   2.460  19.357  0.00  0.00    +0.000 S 
ATOM      6  S   UNL     1       3.392   1.923  18.105  0.00  0.00    +0.000 S 
ATOM      7  C   UNL     1       3.716   3.518  17.708  0.00  0.00    +0.000 A 
ATOM      8  C   UNL     1       4.563   4.201  16.947  0.00  0.00    +0.000 A 
ATOM      9 CL   UNL     1       5.792   3.536  15.978  0.00  0.00    +0.000 Cl
ATOM     10  C   UNL     1       4.284   5.616  17.065  0.00  0.00    +0.000 A 
ATOM     11 CL   UNL     1       5.158   6.823  16.238  0.00  0.00    +0.000 Cl
ENDROOT
TORSDOF 0
ENDMDL
MODEL 7
REMARK VINA RESULT:      -4.9      3.310      3.835
REMARK  Name = 
REMARK  0 active torsions:
REMARK  status: ('A' for Active; 'I' for Inactive)
REMARK                            x       y       z     vdW  Elec       q    Type
REMARK                         _______ _______ _______ _____ _____    ______ ____
ROOT
ATOM      1 CL   UNL     1       4.101   2.513  20.250  0.00  0.00    +0.000 Cl
ATOM      2  C   UNL     1       4.014   3.990  19.445  0.00  0.00    +0.000 A 
ATOM      3  C   UNL     1       5.126   4.578  18.683  0.00  0.00    +0.000 A 
ATOM      4  N   UNL     1       6.318   4.141  18.472  0.00  0.00    +0.000 NA
ATOM      5  S   UNL     1       7.225   5.208  17.516  0.00  0.00    +0.000 S 
ATOM      6  S   UNL     1       5.801   6.677  17.227  0.00  0.00    +0.000 S 
ATOM      7  C   UNL     1       4.663   5.851  18.138  0.00  0.00    +0.000 A 
ATOM      8  C   UNL     1       3.406   6.005  18.536  0.00  0.00    +0.000 A 
ATOM      9 CL   UNL     1       2.399   7.327  18.172  0.00  0.00    +0.000 Cl
ATOM     10  C   UNL     1       3.010   4.867  19.336  0.00  0.00    +0.000 A 
ATOM     11 CL   UNL     1       1.463   4.692  20.031  0.00  0.00    +0.000 Cl
ENDROOT
TORSDOF 0
ENDMDL
MODEL 8
REMARK VINA RESULT:      -4.8      3.153      3.720
REMARK  Name = 
REMARK  0 active torsions:
REMARK  status: ('A' for Active; 'I' for Inactive)
REMARK                            x       y       z     vdW  Elec       q    Type
REMARK                         _______ _______ _______ _____ _____    ______ ____
ROOT
ATOM      1 CL   UNL     1       1.820   7.656  20.430  0.00  0.00    +0.000 Cl
ATOM      2  C   UNL     1       2.536   6.352  19.638  0.00  0.00    +0.000 A 
ATOM      3  C   UNL     1       2.542   4.977  20.159  0.00  0.00    +0.000 A 
ATOM      4  N   UNL     1       2.048   4.491  21.244  0.00  0.00    +0.000 NA
ATOM      5  S   UNL     1       2.329   2.825  21.379  0.00  0.00    +0.000 S 
ATOM      6  S   UNL     1       3.362   2.525  19.615  0.00  0.00    +0.000 S 
ATOM      7  C   UNL     1       3.252   4.142  19.193  0.00  0.00    +0.000 A 
ATOM      8  C   UNL     1       3.629   4.940  18.201  0.00  0.00    +0.000 A 
ATOM      9 CL   UNL     1       4.493   4.466  16.814  0.00  0.00    +0.000 Cl
ATOM     10  C   UNL     1       3.191   6.291  18.474  0.00  0.00    +0.000 A 
ATOM     11 CL   UNL     1       3.484   7.608  17.432  0.00  0.00    +0.000 Cl
ENDROOT
TORSDOF 0
ENDMDL
MODEL 9
REMARK VINA RESULT:      -4.8      2.577      3.008
REMARK  Name = 
REMARK  0 active torsions:
REMARK  status: ('A' for Active; 'I' for Inactive)
REMARK                            x       y       z     vdW  Elec       q    Type
REMARK                         _______ _______ _______ _____ _____    ______ ____
ROOT
ATOM      1 CL   UNL     1       5.796   3.527  15.863  0.00  0.00    +0.000 Cl
ATOM      2  C   UNL     1       4.639   4.304  16.809  0.00  0.00    +0.000 A 
ATOM      3  C   UNL     1       3.649   3.599  17.639  0.00  0.00    +0.000 A 
ATOM      4  N   UNL     1       3.451   2.341  17.818  0.00  0.00    +0.000 NA
ATOM      5  S   UNL     1       2.167   2.045  18.884  0.00  0.00    +0.000 S 
ATOM      6  S   UNL     1       1.635   3.998  19.303  0.00  0.00    +0.000 S 
ATOM      7  C   UNL     1       2.831   4.612  18.303  0.00  0.00    +0.000 A 
ATOM      8  C   UNL     1       3.288   5.794  17.909  0.00  0.00    +0.000 A 
ATOM      9 CL   UNL     1       2.682   7.308  18.392  0.00  0.00    +0.000 Cl
ATOM     10  C   UNL     1       4.393   5.605  16.995  0.00  0.00    +0.000 A 
ATOM     11 CL   UNL     1       5.250   6.888  16.270  0.00  0.00    +0.000 Cl
ENDROOT
TORSDOF 0
ENDMDL
