MODEL 1
REMARK VINA RESULT:      -8.6      0.000      0.000
REMARK  Name = 
REMARK  5 active torsions:
REMARK  status: ('A' for Active; 'I' for Inactive)
REMARK    1  A    between atoms: C_1  and  O_2
REMARK    2  A    between atoms: O_2  and  C_3
REMARK    3  A    between atoms: C_8  and  C_9
REMARK    4  A    between atoms: C_16  and  C_17
REMARK    5  A    between atoms: N_22  and  C_23
REMARK                            x       y       z     vdW  Elec       q    Type
REMARK                         _______ _______ _______ _____ _____    ______ ____
ROOT
ATOM      1  C   UNL     1       3.764   3.643  18.009  0.00  0.00    +0.000 A 
ATOM      2  C   UNL     1       4.326   2.590  17.298  0.00  0.00    +0.000 A 
ATOM      3  N   UNL     1       5.068   3.102  16.277  0.00  0.00    +0.000 N 
ATOM      4  C   UNL     1       5.018   4.463  16.308  0.00  0.00    +0.000 A 
ATOM      5  N   UNL     1       5.676   5.228  15.426  0.00  0.00    +0.000 NA
ATOM      6  C   UNL     1       5.461   6.528  15.642  0.00  0.00    +0.000 A 
ATOM      7  N   UNL     1       4.663   7.083  16.569  0.00  0.00    +0.000 NA
ATOM      8  C   UNL     1       3.978   6.273  17.433  0.00  0.00    +0.000 A 
ATOM      9  C   UNL     1       4.181   4.870  17.348  0.00  0.00    +0.000 A 
ATOM     10  H   UNL     1       5.585   2.576  15.586  0.00  0.00    +0.000 HD
ENDROOT
BRANCH   8  11
ATOM     11  C   UNL     1       3.051   6.963  18.344  0.00  0.00    +0.000 A 
ATOM     12  C   UNL     1       2.797   6.415  19.653  0.00  0.00    +0.000 A 
ATOM     13  C   UNL     1       2.027   7.021  20.665  0.00  0.00    +0.000 A 
ATOM     14  C   UNL     1       1.444   8.183  20.201  0.00  0.00    +0.000 A 
ATOM     15  C   UNL     1       0.622   8.986  20.937  0.00  0.00    +0.000 A 
ATOM     16  N   UNL     1       0.240   9.965  20.068  0.00  0.00    +0.000 N 
ATOM     17  C   UNL     1      -0.705  11.019  20.355  0.00  0.00    +0.000 C 
ATOM     18  N   UNL     1       0.802   9.876  18.841  0.00  0.00    +0.000 NA
ATOM     19  C   UNL     1       1.565   8.765  18.892  0.00  0.00    +0.000 A 
ATOM     20  C   UNL     1       2.386   8.158  17.921  0.00  0.00    +0.000 A 
ENDBRANCH   8  11
BRANCH   1  26
ATOM     21  C   UNL     1       3.373   2.880  20.398  0.00  0.00    +0.000 A 
ATOM     22  C   UNL     1       2.472   2.707  21.463  0.00  0.00    +0.000 A 
ATOM     23  C   UNL     1       1.104   2.931  21.293  0.00  0.00    +0.000 A 
ATOM     24  C   UNL     1       0.617   3.337  20.060  0.00  0.00    +0.000 A 
ATOM     25  C   UNL     1       1.505   3.559  19.008  0.00  0.00    +0.000 A 
ATOM     26  C   UNL     1       2.893   3.353  19.160  0.00  0.00    +0.000 A 
BRANCH  21  28
ATOM     27  C   UNL     1       5.161   1.341  20.809  0.00  0.00    +0.000 C 
ATOM     28  O   UNL     1       4.722   2.656  20.498  0.00  0.00    +0.000 OA
ENDBRANCH  21  28
ENDBRANCH   1  26
TORSDOF 3
ENDMDL
MODEL 2
REMARK VINA RESULT:      -8.2      2.355      4.339
REMARK  Name = 
REMARK  5 active torsions:
REMARK  status: ('A' for Active; 'I' for Inactive)
REMARK    1  A    between atoms: C_1  and  O_2
REMARK    2  A    between atoms: O_2  and  C_3
REMARK    3  A    between atoms: C_8  and  C_9
REMARK    4  A    between atoms: C_16  and  C_17
REMARK    5  A    between atoms: N_22  and  C_23
REMARK                            x       y       z     vdW  Elec       q    Type
REMARK                         _______ _______ _______ _____ _____    ______ ____
ROOT
ATOM      1  C   UNL     1       4.448   3.976  18.922  0.00  0.00    +0.000 A 
ATOM      2  C   UNL     1       5.050   2.748  19.166  0.00  0.00    +0.000 A 
ATOM      3  N   UNL     1       4.258   2.035  20.014  0.00  0.00    +0.000 N 
ATOM      4  C   UNL     1       3.146   2.758  20.322  0.00  0.00    +0.000 A 
ATOM      5  N   UNL     1       2.181   2.289  21.126  0.00  0.00    +0.000 NA
ATOM      6  C   UNL     1       1.203   3.182  21.298  0.00  0.00    +0.000 A 
ATOM      7  N   UNL     1       1.137   4.430  20.806  0.00  0.00    +0.000 NA
ATOM      8  C   UNL     1       2.155   4.892  20.016  0.00  0.00    +0.000 A 
ATOM      9  C   UNL     1       3.221   4.007  19.702  0.00  0.00    +0.000 A 
ATOM     10  H   UNL     1       4.443   1.110  20.376  0.00  0.00    +0.000 HD
ENDROOT
BRANCH   8  11
ATOM     11  C   UNL     1       2.048   6.302  19.609  0.00  0.00    +0.000 A 
ATOM     12  C   UNL     1       2.445   6.693  18.279  0.00  0.00    +0.000 A 
ATOM     13  C   UNL     1       2.294   7.975  17.718  0.00  0.00    +0.000 A 
ATOM     14  C   UNL     1       1.804   8.861  18.656  0.00  0.00    +0.000 A 
ATOM     15  C   UNL     1       1.570  10.185  18.426  0.00  0.00    +0.000 A 
ATOM     16  N   UNL     1       1.159  10.672  19.631  0.00  0.00    +0.000 N 
ATOM     17  C   UNL     1       0.868  12.055  19.923  0.00  0.00    +0.000 C 
ATOM     18  N   UNL     1       1.063   9.740  20.607  0.00  0.00    +0.000 NA
ATOM     19  C   UNL     1       1.462   8.590  20.026  0.00  0.00    +0.000 A 
ATOM     20  C   UNL     1       1.577   7.282  20.538  0.00  0.00    +0.000 A 
ENDBRANCH   8  11
BRANCH   1  26
ATOM     21  C   UNL     1       6.245   5.702  18.438  0.00  0.00    +0.000 A 
ATOM     22  C   UNL     1       6.866   6.547  17.502  0.00  0.00    +0.000 A 
ATOM     23  C   UNL     1       6.347   6.702  16.214  0.00  0.00    +0.000 A 
ATOM     24  C   UNL     1       5.205   6.010  15.841  0.00  0.00    +0.000 A 
ATOM     25  C   UNL     1       4.607   5.130  16.743  0.00  0.00    +0.000 A 
ATOM     26  C   UNL     1       5.121   4.948  18.045  0.00  0.00    +0.000 A 
BRANCH  21  28
ATOM     27  C   UNL     1       8.098   5.542  19.946  0.00  0.00    +0.000 C 
ATOM     28  O   UNL     1       6.695   5.526  19.721  0.00  0.00    +0.000 OA
ENDBRANCH  21  28
ENDBRANCH   1  26
TORSDOF 3
ENDMDL
MODEL 3
REMARK VINA RESULT:      -7.9      2.444      4.548
REMARK  Name = 
REMARK  5 active torsions:
REMARK  status: ('A' for Active; 'I' for Inactive)
REMARK    1  A    between atoms: C_1  and  O_2
REMARK    2  A    between atoms: O_2  and  C_3
REMARK    3  A    between atoms: C_8  and  C_9
REMARK    4  A    between atoms: C_16  and  C_17
REMARK    5  A    between atoms: N_22  and  C_23
REMARK                            x       y       z     vdW  Elec       q    Type
REMARK                         _______ _______ _______ _____ _____    ______ ____
ROOT
ATOM      1  C   UNL     1       4.762   3.892  19.286  0.00  0.00    +0.000 A 
ATOM      2  C   UNL     1       5.282   2.673  19.705  0.00  0.00    +0.000 A 
ATOM      3  N   UNL     1       4.313   1.996  20.381  0.00  0.00    +0.000 N 
ATOM      4  C   UNL     1       3.168   2.732  20.405  0.00  0.00    +0.000 A 
ATOM      5  N   UNL     1       2.043   2.297  20.991  0.00  0.00    +0.000 NA
ATOM      6  C   UNL     1       1.061   3.198  20.906  0.00  0.00    +0.000 A 
ATOM      7  N   UNL     1       1.119   4.425  20.365  0.00  0.00    +0.000 NA
ATOM      8  C   UNL     1       2.292   4.854  19.804  0.00  0.00    +0.000 A 
ATOM      9  C   UNL     1       3.392   3.955  19.771  0.00  0.00    +0.000 A 
ATOM     10  H   UNL     1       4.403   1.085  20.811  0.00  0.00    +0.000 HD
ENDROOT
BRANCH   8  11
ATOM     11  C   UNL     1       2.293   6.247  19.330  0.00  0.00    +0.000 A 
ATOM     12  C   UNL     1       2.946   6.577  18.088  0.00  0.00    +0.000 A 
ATOM     13  C   UNL     1       2.931   7.837  17.459  0.00  0.00    +0.000 A 
ATOM     14  C   UNL     1       2.288   8.767  18.250  0.00  0.00    +0.000 A 
ATOM     15  C   UNL     1       2.129  10.083  17.928  0.00  0.00    +0.000 A 
ATOM     16  N   UNL     1       1.504  10.624  19.012  0.00  0.00    +0.000 N 
ATOM     17  C   UNL     1       1.189  12.022  19.188  0.00  0.00    +0.000 C 
ATOM     18  N   UNL     1       1.203   9.735  19.987  0.00  0.00    +0.000 NA
ATOM     19  C   UNL     1       1.683   8.557  19.538  0.00  0.00    +0.000 A 
ATOM     20  C   UNL     1       1.672   7.270  20.113  0.00  0.00    +0.000 A 
ENDBRANCH   8  11
BRANCH   1  26
ATOM     21  C   UNL     1       5.606   4.952  17.140  0.00  0.00    +0.000 A 
ATOM     22  C   UNL     1       6.410   5.929  16.529  0.00  0.00    +0.000 A 
ATOM     23  C   UNL     1       7.272   6.729  17.282  0.00  0.00    +0.000 A 
ATOM     24  C   UNL     1       7.340   6.568  18.658  0.00  0.00    +0.000 A 
ATOM     25  C   UNL     1       6.513   5.636  19.284  0.00  0.00    +0.000 A 
ATOM     26  C   UNL     1       5.623   4.827  18.544  0.00  0.00    +0.000 A 
BRANCH  21  28
ATOM     27  C   UNL     1       5.038   3.866  15.083  0.00  0.00    +0.000 C 
ATOM     28  O   UNL     1       4.757   4.125  16.452  0.00  0.00    +0.000 OA
ENDBRANCH  21  28
ENDBRANCH   1  26
TORSDOF 3
ENDMDL
MODEL 4
REMARK VINA RESULT:      -7.8      0.922      1.468
REMARK  Name = 
REMARK  5 active torsions:
REMARK  status: ('A' for Active; 'I' for Inactive)
REMARK    1  A    between atoms: C_1  and  O_2
REMARK    2  A    between atoms: O_2  and  C_3
REMARK    3  A    between atoms: C_8  and  C_9
REMARK    4  A    between atoms: C_16  and  C_17
REMARK    5  A    between atoms: N_22  and  C_23
REMARK                            x       y       z     vdW  Elec       q    Type
REMARK                         _______ _______ _______ _____ _____    ______ ____
ROOT
ATOM      1  C   UNL     1       3.867   3.632  17.911  0.00  0.00    +0.000 A 
ATOM      2  C   UNL     1       4.386   2.484  17.325  0.00  0.00    +0.000 A 
ATOM      3  N   UNL     1       5.190   2.850  16.288  0.00  0.00    +0.000 N 
ATOM      4  C   UNL     1       5.223   4.208  16.188  0.00  0.00    +0.000 A 
ATOM      5  N   UNL     1       5.954   4.845  15.263  0.00  0.00    +0.000 NA
ATOM      6  C   UNL     1       5.812   6.170  15.346  0.00  0.00    +0.000 A 
ATOM      7  N   UNL     1       5.021   6.858  16.185  0.00  0.00    +0.000 NA
ATOM      8  C   UNL     1       4.260   6.177  17.096  0.00  0.00    +0.000 A 
ATOM      9  C   UNL     1       4.380   4.762  17.153  0.00  0.00    +0.000 A 
ATOM     10  H   UNL     1       5.696   2.231  15.670  0.00  0.00    +0.000 HD
ENDROOT
BRANCH   8  11
ATOM     11  C   UNL     1       3.348   7.005  17.902  0.00  0.00    +0.000 A 
ATOM     12  C   UNL     1       2.772   8.196  17.330  0.00  0.00    +0.000 A 
ATOM     13  C   UNL     1       1.804   9.017  17.938  0.00  0.00    +0.000 A 
ATOM     14  C   UNL     1       1.546   8.591  19.225  0.00  0.00    +0.000 A 
ATOM     15  C   UNL     1       0.671   9.193  20.082  0.00  0.00    +0.000 A 
ATOM     16  N   UNL     1       0.786   8.482  21.239  0.00  0.00    +0.000 N 
ATOM     17  C   UNL     1       0.115   8.786  22.481  0.00  0.00    +0.000 C 
ATOM     18  N   UNL     1       1.635   7.431  21.169  0.00  0.00    +0.000 NA
ATOM     19  C   UNL     1       2.130   7.472  19.915  0.00  0.00    +0.000 A 
ATOM     20  C   UNL     1       3.057   6.641  19.255  0.00  0.00    +0.000 A 
ENDBRANCH   8  11
BRANCH   1  26
ATOM     21  C   UNL     1       3.348   3.085  20.335  0.00  0.00    +0.000 A 
ATOM     22  C   UNL     1       2.407   3.071  21.379  0.00  0.00    +0.000 A 
ATOM     23  C   UNL     1       1.070   3.402  21.150  0.00  0.00    +0.000 A 
ATOM     24  C   UNL     1       0.654   3.757  19.875  0.00  0.00    +0.000 A 
ATOM     25  C   UNL     1       1.585   3.822  18.840  0.00  0.00    +0.000 A 
ATOM     26  C   UNL     1       2.945   3.505  19.051  0.00  0.00    +0.000 A 
BRANCH  21  28
ATOM     27  C   UNL     1       4.983   1.402  20.813  0.00  0.00    +0.000 C 
ATOM     28  O   UNL     1       4.668   2.751  20.494  0.00  0.00    +0.000 OA
ENDBRANCH  21  28
ENDBRANCH   1  26
TORSDOF 3
ENDMDL
MODEL 5
REMARK VINA RESULT:      -7.7      1.075      1.811
REMARK  Name = 
REMARK  5 active torsions:
REMARK  status: ('A' for Active; 'I' for Inactive)
REMARK    1  A    between atoms: C_1  and  O_2
REMARK    2  A    between atoms: O_2  and  C_3
REMARK    3  A    between atoms: C_8  and  C_9
REMARK    4  A    between atoms: C_16  and  C_17
REMARK    5  A    between atoms: N_22  and  C_23
REMARK                            x       y       z     vdW  Elec       q    Type
REMARK                         _______ _______ _______ _____ _____    ______ ____
ROOT
ATOM      1  C   UNL     1       3.880   3.680  18.135  0.00  0.00    +0.000 A 
ATOM      2  C   UNL     1       4.491   2.606  17.500  0.00  0.00    +0.000 A 
ATOM      3  N   UNL     1       5.324   3.087  16.535  0.00  0.00    +0.000 N 
ATOM      4  C   UNL     1       5.284   4.449  16.531  0.00  0.00    +0.000 A 
ATOM      5  N   UNL     1       6.023   5.189  15.692  0.00  0.00    +0.000 NA
ATOM      6  C   UNL     1       5.802   6.495  15.858  0.00  0.00    +0.000 A 
ATOM      7  N   UNL     1       4.932   7.078  16.699  0.00  0.00    +0.000 NA
ATOM      8  C   UNL     1       4.167   6.294  17.520  0.00  0.00    +0.000 A 
ATOM      9  C   UNL     1       4.364   4.887  17.485  0.00  0.00    +0.000 A 
ATOM     10  H   UNL     1       5.894   2.542  15.904  0.00  0.00    +0.000 HD
ENDROOT
BRANCH   8  11
ATOM     11  C   UNL     1       3.171   7.012  18.331  0.00  0.00    +0.000 A 
ATOM     12  C   UNL     1       2.825   6.515  19.639  0.00  0.00    +0.000 A 
ATOM     13  C   UNL     1       1.979   7.155  20.566  0.00  0.00    +0.000 A 
ATOM     14  C   UNL     1       1.425   8.291  20.012  0.00  0.00    +0.000 A 
ATOM     15  C   UNL     1       0.546   9.116  20.652  0.00  0.00    +0.000 A 
ATOM     16  N   UNL     1       0.222  10.055  19.717  0.00  0.00    +0.000 N 
ATOM     17  C   UNL     1      -0.748  11.111  19.889  0.00  0.00    +0.000 C 
ATOM     18  N   UNL     1       0.874   9.921  18.539  0.00  0.00    +0.000 NA
ATOM     19  C   UNL     1       1.638   8.820  18.692  0.00  0.00    +0.000 A 
ATOM     20  C   UNL     1       2.532   8.181  17.810  0.00  0.00    +0.000 A 
ENDBRANCH   8  11
BRANCH   1  26
ATOM     21  C   UNL     1       1.531   3.234  18.988  0.00  0.00    +0.000 A 
ATOM     22  C   UNL     1       0.697   2.917  20.073  0.00  0.00    +0.000 A 
ATOM     23  C   UNL     1       1.199   2.852  21.375  0.00  0.00    +0.000 A 
ATOM     24  C   UNL     1       2.544   3.097  21.611  0.00  0.00    +0.000 A 
ATOM     25  C   UNL     1       3.393   3.366  20.538  0.00  0.00    +0.000 A 
ATOM     26  C   UNL     1       2.910   3.423  19.212  0.00  0.00    +0.000 A 
BRANCH  21  28
ATOM     27  C   UNL     1       0.858   4.631  17.163  0.00  0.00    +0.000 C 
ATOM     28  O   UNL     1       1.092   3.333  17.693  0.00  0.00    +0.000 OA
ENDBRANCH  21  28
ENDBRANCH   1  26
TORSDOF 3
ENDMDL
MODEL 6
REMARK VINA RESULT:      -7.3      9.842     12.027
REMARK  Name = 
REMARK  5 active torsions:
REMARK  status: ('A' for Active; 'I' for Inactive)
REMARK    1  A    between atoms: C_1  and  O_2
REMARK    2  A    between atoms: O_2  and  C_3
REMARK    3  A    between atoms: C_8  and  C_9
REMARK    4  A    between atoms: C_16  and  C_17
REMARK    5  A    between atoms: N_22  and  C_23
REMARK                            x       y       z     vdW  Elec       q    Type
REMARK                         _______ _______ _______ _____ _____    ______ ____
ROOT
ATOM      1  C   UNL     1       9.777  15.772  18.046  0.00  0.00    +0.000 A 
ATOM      2  C   UNL     1      10.256  16.316  16.861  0.00  0.00    +0.000 A 
ATOM      3  N   UNL     1      11.203  15.481  16.350  0.00  0.00    +0.000 N 
ATOM      4  C   UNL     1      11.346  14.396  17.161  0.00  0.00    +0.000 A 
ATOM      5  N   UNL     1      12.200  13.400  16.888  0.00  0.00    +0.000 NA
ATOM      6  C   UNL     1      12.182  12.459  17.836  0.00  0.00    +0.000 A 
ATOM      7  N   UNL     1      11.467  12.455  18.972  0.00  0.00    +0.000 NA
ATOM      8  C   UNL     1      10.629  13.504  19.239  0.00  0.00    +0.000 A 
ATOM      9  C   UNL     1      10.509  14.535  18.269  0.00  0.00    +0.000 A 
ATOM     10  H   UNL     1      11.734  15.619  15.501  0.00  0.00    +0.000 HD
ENDROOT
BRANCH   8  11
ATOM     11  C   UNL     1       9.967  13.465  20.553  0.00  0.00    +0.000 A 
ATOM     12  C   UNL     1      10.078  14.595  21.441  0.00  0.00    +0.000 A 
ATOM     13  C   UNL     1       9.410  14.744  22.672  0.00  0.00    +0.000 A 
ATOM     14  C   UNL     1       8.703  13.600  22.982  0.00  0.00    +0.000 A 
ATOM     15  C   UNL     1       7.970  13.424  24.119  0.00  0.00    +0.000 A 
ATOM     16  N   UNL     1       7.508  12.145  24.030  0.00  0.00    +0.000 N 
ATOM     17  C   UNL     1       6.743  11.456  25.043  0.00  0.00    +0.000 C 
ATOM     18  N   UNL     1       7.849  11.504  22.888  0.00  0.00    +0.000 NA
ATOM     19  C   UNL     1       8.601  12.393  22.207  0.00  0.00    +0.000 A 
ATOM     20  C   UNL     1       9.241  12.300  20.955  0.00  0.00    +0.000 A 
ENDBRANCH   8  11
BRANCH   1  26
ATOM     21  C   UNL     1       7.370  16.244  18.697  0.00  0.00    +0.000 A 
ATOM     22  C   UNL     1       6.473  16.938  19.527  0.00  0.00    +0.000 A 
ATOM     23  C   UNL     1       6.922  17.921  20.412  0.00  0.00    +0.000 A 
ATOM     24  C   UNL     1       8.274  18.221  20.485  0.00  0.00    +0.000 A 
ATOM     25  C   UNL     1       9.181  17.507  19.702  0.00  0.00    +0.000 A 
ATOM     26  C   UNL     1       8.751  16.500  18.811  0.00  0.00    +0.000 A 
BRANCH  21  28
ATOM     27  C   UNL     1       5.696  14.707  17.941  0.00  0.00    +0.000 C 
ATOM     28  O   UNL     1       6.987  15.285  17.795  0.00  0.00    +0.000 OA
ENDBRANCH  21  28
ENDBRANCH   1  26
TORSDOF 3
ENDMDL
MODEL 7
REMARK VINA RESULT:      -7.2      2.628      6.553
REMARK  Name = 
REMARK  5 active torsions:
REMARK  status: ('A' for Active; 'I' for Inactive)
REMARK    1  A    between atoms: C_1  and  O_2
REMARK    2  A    between atoms: O_2  and  C_3
REMARK    3  A    between atoms: C_8  and  C_9
REMARK    4  A    between atoms: C_16  and  C_17
REMARK    5  A    between atoms: N_22  and  C_23
REMARK                            x       y       z     vdW  Elec       q    Type
REMARK                         _______ _______ _______ _____ _____    ______ ____
ROOT
ATOM      1  C   UNL     1       2.422   5.127  20.050  0.00  0.00    +0.000 A 
ATOM      2  C   UNL     1       1.354   4.882  20.904  0.00  0.00    +0.000 A 
ATOM      3  N   UNL     1       1.556   3.685  21.521  0.00  0.00    +0.000 N 
ATOM      4  C   UNL     1       2.736   3.146  21.106  0.00  0.00    +0.000 A 
ATOM      5  N   UNL     1       3.196   1.975  21.568  0.00  0.00    +0.000 NA
ATOM      6  C   UNL     1       4.358   1.641  21.001  0.00  0.00    +0.000 A 
ATOM      7  N   UNL     1       5.025   2.309  20.046  0.00  0.00    +0.000 NA
ATOM      8  C   UNL     1       4.512   3.485  19.570  0.00  0.00    +0.000 A 
ATOM      9  C   UNL     1       3.313   3.981  20.148  0.00  0.00    +0.000 A 
ATOM     10  H   UNL     1       0.942   3.240  22.190  0.00  0.00    +0.000 HD
ENDROOT
BRANCH   8  11
ATOM     11  C   UNL     1       5.256   4.093  18.455  0.00  0.00    +0.000 A 
ATOM     12  C   UNL     1       6.110   5.227  18.701  0.00  0.00    +0.000 A 
ATOM     13  C   UNL     1       6.962   5.837  17.760  0.00  0.00    +0.000 A 
ATOM     14  C   UNL     1       6.795   5.268  16.515  0.00  0.00    +0.000 A 
ATOM     15  C   UNL     1       7.462   5.654  15.389  0.00  0.00    +0.000 A 
ATOM     16  N   UNL     1       6.942   4.872  14.401  0.00  0.00    +0.000 N 
ATOM     17  C   UNL     1       7.270   4.962  12.998  0.00  0.00    +0.000 C 
ATOM     18  N   UNL     1       6.024   3.972  14.825  0.00  0.00    +0.000 NA
ATOM     19  C   UNL     1       5.910   4.195  16.150  0.00  0.00    +0.000 A 
ATOM     20  C   UNL     1       5.110   3.574  17.130  0.00  0.00    +0.000 A 
ENDBRANCH   8  11
BRANCH   1  26
ATOM     21  C   UNL     1       1.972   7.603  19.719  0.00  0.00    +0.000 A 
ATOM     22  C   UNL     1       2.096   8.739  18.901  0.00  0.00    +0.000 A 
ATOM     23  C   UNL     1       2.604   8.641  17.604  0.00  0.00    +0.000 A 
ATOM     24  C   UNL     1       3.002   7.409  17.108  0.00  0.00    +0.000 A 
ATOM     25  C   UNL     1       2.931   6.282  17.925  0.00  0.00    +0.000 A 
ATOM     26  C   UNL     1       2.433   6.358  19.244  0.00  0.00    +0.000 A 
BRANCH  21  28
ATOM     27  C   UNL     1       1.087   8.892  21.533  0.00  0.00    +0.000 C 
ATOM     28  O   UNL     1       1.462   7.633  20.992  0.00  0.00    +0.000 OA
ENDBRANCH  21  28
ENDBRANCH   1  26
TORSDOF 3
ENDMDL
MODEL 8
REMARK VINA RESULT:      -7.1      1.389      2.312
REMARK  Name = 
REMARK  5 active torsions:
REMARK  status: ('A' for Active; 'I' for Inactive)
REMARK    1  A    between atoms: C_1  and  O_2
REMARK    2  A    between atoms: O_2  and  C_3
REMARK    3  A    between atoms: C_8  and  C_9
REMARK    4  A    between atoms: C_16  and  C_17
REMARK    5  A    between atoms: N_22  and  C_23
REMARK                            x       y       z     vdW  Elec       q    Type
REMARK                         _______ _______ _______ _____ _____    ______ ____
ROOT
ATOM      1  C   UNL     1       3.860   3.673  18.116  0.00  0.00    +0.000 A 
ATOM      2  C   UNL     1       4.416   2.524  17.567  0.00  0.00    +0.000 A 
ATOM      3  N   UNL     1       5.274   2.888  16.573  0.00  0.00    +0.000 N 
ATOM      4  C   UNL     1       5.306   4.246  16.467  0.00  0.00    +0.000 A 
ATOM      5  N   UNL     1       6.084   4.881  15.579  0.00  0.00    +0.000 NA
ATOM      6  C   UNL     1       5.931   6.206  15.646  0.00  0.00    +0.000 A 
ATOM      7  N   UNL     1       5.091   6.895  16.436  0.00  0.00    +0.000 NA
ATOM      8  C   UNL     1       4.285   6.215  17.308  0.00  0.00    +0.000 A 
ATOM      9  C   UNL     1       4.408   4.801  17.380  0.00  0.00    +0.000 A 
ATOM     10  H   UNL     1       5.816   2.268  15.988  0.00  0.00    +0.000 HD
ENDROOT
BRANCH   8  11
ATOM     11  C   UNL     1       3.326   7.043  18.058  0.00  0.00    +0.000 A 
ATOM     12  C   UNL     1       2.757   8.213  17.437  0.00  0.00    +0.000 A 
ATOM     13  C   UNL     1       1.750   9.030  17.987  0.00  0.00    +0.000 A 
ATOM     14  C   UNL     1       1.443   8.624  19.270  0.00  0.00    +0.000 A 
ATOM     15  C   UNL     1       0.523   9.229  20.076  0.00  0.00    +0.000 A 
ATOM     16  N   UNL     1       0.599   8.542  21.251  0.00  0.00    +0.000 N 
ATOM     17  C   UNL     1      -0.130   8.858  22.457  0.00  0.00    +0.000 C 
ATOM     18  N   UNL     1       1.467   7.504  21.238  0.00  0.00    +0.000 NA
ATOM     19  C   UNL     1       2.014   7.529  20.006  0.00  0.00    +0.000 A 
ATOM     20  C   UNL     1       2.983   6.700  19.403  0.00  0.00    +0.000 A 
ENDBRANCH   8  11
BRANCH   1  26
ATOM     21  C   UNL     1       1.489   3.421  18.987  0.00  0.00    +0.000 A 
ATOM     22  C   UNL     1       0.637   3.229  20.088  0.00  0.00    +0.000 A 
ATOM     23  C   UNL     1       1.134   3.231  21.393  0.00  0.00    +0.000 A 
ATOM     24  C   UNL     1       2.489   3.418  21.618  0.00  0.00    +0.000 A 
ATOM     25  C   UNL     1       3.354   3.561  20.533  0.00  0.00    +0.000 A 
ATOM     26  C   UNL     1       2.876   3.549  19.204  0.00  0.00    +0.000 A 
BRANCH  21  28
ATOM     27  C   UNL     1       0.862   4.718  17.074  0.00  0.00    +0.000 C 
ATOM     28  O   UNL     1       1.058   3.450  17.686  0.00  0.00    +0.000 OA
ENDBRANCH  21  28
ENDBRANCH   1  26
TORSDOF 3
ENDMDL
MODEL 9
REMARK VINA RESULT:      -7.1      5.716      9.174
REMARK  Name = 
REMARK  5 active torsions:
REMARK  status: ('A' for Active; 'I' for Inactive)
REMARK    1  A    between atoms: C_1  and  O_2
REMARK    2  A    between atoms: O_2  and  C_3
REMARK    3  A    between atoms: C_8  and  C_9
REMARK    4  A    between atoms: C_16  and  C_17
REMARK    5  A    between atoms: N_22  and  C_23
REMARK                            x       y       z     vdW  Elec       q    Type
REMARK                         _______ _______ _______ _____ _____    ______ ____
ROOT
ATOM      1  C   UNL     1       1.379  13.424  18.943  0.00  0.00    +0.000 A 
ATOM      2  C   UNL     1       2.462  13.610  18.094  0.00  0.00    +0.000 A 
ATOM      3  N   UNL     1       2.841  12.399  17.600  0.00  0.00    +0.000 N 
ATOM      4  C   UNL     1       2.026  11.425  18.092  0.00  0.00    +0.000 A 
ATOM      5  N   UNL     1       2.160  10.135  17.756  0.00  0.00    +0.000 NA
ATOM      6  C   UNL     1       1.263   9.365  18.378  0.00  0.00    +0.000 A 
ATOM      7  N   UNL     1       0.342   9.746  19.278  0.00  0.00    +0.000 NA
ATOM      8  C   UNL     1       0.253  11.066  19.627  0.00  0.00    +0.000 A 
ATOM      9  C   UNL     1       1.109  11.995  18.977  0.00  0.00    +0.000 A 
ATOM     10  H   UNL     1       3.607  12.220  16.964  0.00  0.00    +0.000 HD
ENDROOT
BRANCH   8  11
ATOM     11  C   UNL     1      -0.712  11.374  20.694  0.00  0.00    +0.000 A 
ATOM     12  C   UNL     1      -0.518  10.822  22.012  0.00  0.00    +0.000 A 
ATOM     13  C   UNL     1      -1.291  11.118  23.151  0.00  0.00    +0.000 A 
ATOM     14  C   UNL     1      -2.349  11.939  22.819  0.00  0.00    +0.000 A 
ATOM     15  C   UNL     1      -3.292  12.385  23.700  0.00  0.00    +0.000 A 
ATOM     16  N   UNL     1      -4.162  13.100  22.931  0.00  0.00    +0.000 N 
ATOM     17  C   UNL     1      -5.386  13.710  23.395  0.00  0.00    +0.000 C 
ATOM     18  N   UNL     1      -3.814  13.189  21.627  0.00  0.00    +0.000 NA
ATOM     19  C   UNL     1      -2.678  12.470  21.524  0.00  0.00    +0.000 A 
ATOM     20  C   UNL     1      -1.851  12.194  20.416  0.00  0.00    +0.000 A 
ENDBRANCH   8  11
BRANCH   1  26
ATOM     21  C   UNL     1       1.127  14.970  20.940  0.00  0.00    +0.000 A 
ATOM     22  C   UNL     1       0.569  16.142  21.479  0.00  0.00    +0.000 A 
ATOM     23  C   UNL     1      -0.362  16.893  20.759  0.00  0.00    +0.000 A 
ATOM     24  C   UNL     1      -0.745  16.489  19.489  0.00  0.00    +0.000 A 
ATOM     25  C   UNL     1      -0.163  15.355  18.923  0.00  0.00    +0.000 A 
ATOM     26  C   UNL     1       0.790  14.587  19.626  0.00  0.00    +0.000 A 
BRANCH  21  28
ATOM     27  C   UNL     1       3.354  14.668  21.769  0.00  0.00    +0.000 C 
ATOM     28  O   UNL     1       2.029  14.180  21.606  0.00  0.00    +0.000 OA
ENDBRANCH  21  28
ENDBRANCH   1  26
TORSDOF 3
ENDMDL
