MODEL 1
REMARK VINA RESULT:      -8.5      0.000      0.000
REMARK  Name = 
REMARK  7 active torsions:
REMARK  status: ('A' for Active; 'I' for Inactive)
REMARK    1  A    between atoms: C_1  and  O_2
REMARK    2  A    between atoms: O_2  and  C_3
REMARK    3  A    between atoms: C_8  and  N_9
REMARK    4  A    between atoms: C_10  and  C_12
REMARK    5  A    between atoms: C_12  and  N_13
REMARK    6  A    between atoms: C_14  and  C_15
REMARK    7  A    between atoms: C_17  and  C_18
REMARK                            x       y       z     vdW  Elec       q    Type
REMARK                         _______ _______ _______ _____ _____    ______ ____
ROOT
ATOM      1  N   UNL     1       0.225  10.722  20.891  0.00  0.00    +0.000 N 
ATOM      2  C   UNL     1       0.652   9.399  21.092  0.00  0.00    +0.000 A 
ATOM      3  C   UNL     1       0.398   8.784  22.264  0.00  0.00    +0.000 A 
ATOM      4  C   UNL     1      -0.267   9.479  23.336  0.00  0.00    +0.000 A 
ATOM      5  C   UNL     1      -0.732  10.717  23.149  0.00  0.00    +0.000 A 
ATOM      6  C   UNL     1      -0.546  11.391  21.840  0.00  0.00    +0.000 A 
ATOM      7  O   UNL     1      -1.052  12.494  21.655  0.00  0.00    +0.000 OA
ENDROOT
BRANCH   2   8
ATOM      8  C   UNL     1       1.360   8.657  20.085  0.00  0.00    +0.000 A 
ATOM      9  N   UNL     1       1.901   7.458  20.210  0.00  0.00    +0.000 NA
ATOM     10  C   UNL     1       2.423   7.175  18.968  0.00  0.00    +0.000 A 
ATOM     11  N   UNL     1       2.247   8.168  18.088  0.00  0.00    +0.000 NA
ATOM     12  O   UNL     1       1.564   9.137  18.803  0.00  0.00    +0.000 OA
BRANCH  10  13
ATOM     13  C   UNL     1       3.090   5.913  18.685  0.00  0.00    +0.000 A 
ATOM     14  C   UNL     1       4.385   5.676  19.179  0.00  0.00    +0.000 A 
ATOM     15  C   UNL     1       5.050   4.474  18.914  0.00  0.00    +0.000 A 
ATOM     16  C   UNL     1       4.431   3.489  18.149  0.00  0.00    +0.000 A 
ATOM     17  C   UNL     1       3.149   3.706  17.657  0.00  0.00    +0.000 A 
ATOM     18  C   UNL     1       2.485   4.905  17.929  0.00  0.00    +0.000 A 
ATOM     19  F   UNL     1       1.250   5.055  17.427  0.00  0.00    +0.000 F 
ENDBRANCH  10  13
ENDBRANCH   2   8
BRANCH   1  20
ATOM     20  C   UNL     1       0.650  11.508  19.727  0.00  0.00    +0.000 C 
BRANCH  20  22
ATOM     21  N   UNL     1      -1.300  10.683  18.453  0.00  0.00    +0.000 N 
ATOM     22  C   UNL     1      -0.376  11.704  18.609  0.00  0.00    +0.000 C 
ATOM     23  O   UNL     1      -0.466  12.795  18.041  0.00  0.00    +0.000 OA
ATOM     24  H   UNL     1      -1.523  10.150  19.293  0.00  0.00    +0.000 HD
BRANCH  21  30
ATOM     25  C   UNL     1      -3.539  11.398  17.791  0.00  0.00    +0.000 A 
ATOM     26  C   UNL     1      -4.517  11.539  16.798  0.00  0.00    +0.000 A 
ATOM     27  C   UNL     1      -4.336  10.965  15.537  0.00  0.00    +0.000 A 
ATOM     28  C   UNL     1      -3.171  10.262  15.255  0.00  0.00    +0.000 A 
ATOM     29  C   UNL     1      -2.164  10.170  16.217  0.00  0.00    +0.000 A 
ATOM     30  C   UNL     1      -2.331  10.753  17.480  0.00  0.00    +0.000 A 
BRANCH  25  32
ATOM     31  C   UNL     1      -4.954  12.380  19.407  0.00  0.00    +0.000 C 
ATOM     32  O   UNL     1      -3.651  11.926  19.054  0.00  0.00    +0.000 OA
ENDBRANCH  25  32
ENDBRANCH  21  30
ENDBRANCH  20  22
ENDBRANCH   1  20
TORSDOF 6
ENDMDL
MODEL 2
REMARK VINA RESULT:      -8.5      1.009      1.245
REMARK  Name = 
REMARK  7 active torsions:
REMARK  status: ('A' for Active; 'I' for Inactive)
REMARK    1  A    between atoms: C_1  and  O_2
REMARK    2  A    between atoms: O_2  and  C_3
REMARK    3  A    between atoms: C_8  and  N_9
REMARK    4  A    between atoms: C_10  and  C_12
REMARK    5  A    between atoms: C_12  and  N_13
REMARK    6  A    between atoms: C_14  and  C_15
REMARK    7  A    between atoms: C_17  and  C_18
REMARK                            x       y       z     vdW  Elec       q    Type
REMARK                         _______ _______ _______ _____ _____    ______ ____
ROOT
ATOM      1  N   UNL     1       0.263  10.839  20.843  0.00  0.00    +0.000 N 
ATOM      2  C   UNL     1       0.743   9.520  20.896  0.00  0.00    +0.000 A 
ATOM      3  C   UNL     1       0.576   8.791  22.017  0.00  0.00    +0.000 A 
ATOM      4  C   UNL     1      -0.049   9.359  23.184  0.00  0.00    +0.000 A 
ATOM      5  C   UNL     1      -0.563  10.591  23.140  0.00  0.00    +0.000 A 
ATOM      6  C   UNL     1      -0.474  11.389  21.892  0.00  0.00    +0.000 A 
ATOM      7  O   UNL     1      -1.025  12.485  21.838  0.00  0.00    +0.000 OA
ENDROOT
BRANCH   2   8
ATOM      8  C   UNL     1       1.416   8.900  19.787  0.00  0.00    +0.000 A 
ATOM      9  N   UNL     1       1.883   7.666  19.726  0.00  0.00    +0.000 NA
ATOM     10  C   UNL     1       2.399   7.548  18.456  0.00  0.00    +0.000 A 
ATOM     11  N   UNL     1       2.292   8.673  17.739  0.00  0.00    +0.000 NA
ATOM     12  O   UNL     1       1.661   9.559  18.595  0.00  0.00    +0.000 OA
BRANCH  10  13
ATOM     13  C   UNL     1       2.993   6.306  17.982  0.00  0.00    +0.000 A 
ATOM     14  C   UNL     1       2.248   5.114  18.008  0.00  0.00    +0.000 A 
ATOM     15  C   UNL     1       2.799   3.907  17.565  0.00  0.00    +0.000 A 
ATOM     16  C   UNL     1       4.107   3.872  17.090  0.00  0.00    +0.000 A 
ATOM     17  C   UNL     1       4.857   5.042  17.053  0.00  0.00    +0.000 A 
ATOM     18  C   UNL     1       4.300   6.247  17.490  0.00  0.00    +0.000 A 
ATOM     19  F   UNL     1       5.073   7.342  17.429  0.00  0.00    +0.000 F 
ENDBRANCH  10  13
ENDBRANCH   2   8
BRANCH   1  20
ATOM     20  C   UNL     1       0.595  11.744  19.737  0.00  0.00    +0.000 C 
BRANCH  20  22
ATOM     21  N   UNL     1      -1.344  10.873  18.477  0.00  0.00    +0.000 N 
ATOM     22  C   UNL     1      -0.465  11.930  18.649  0.00  0.00    +0.000 C 
ATOM     23  O   UNL     1      -0.619  13.035  18.124  0.00  0.00    +0.000 OA
ATOM     24  H   UNL     1      -1.522  10.300  19.302  0.00  0.00    +0.000 HD
BRANCH  21  30
ATOM     25  C   UNL     1      -3.637  11.482  17.897  0.00  0.00    +0.000 A 
ATOM     26  C   UNL     1      -4.644  11.613  16.933  0.00  0.00    +0.000 A 
ATOM     27  C   UNL     1      -4.458  11.114  15.641  0.00  0.00    +0.000 A 
ATOM     28  C   UNL     1      -3.260  10.497  15.300  0.00  0.00    +0.000 A 
ATOM     29  C   UNL     1      -2.227  10.420  16.236  0.00  0.00    +0.000 A 
ATOM     30  C   UNL     1      -2.399  10.928  17.529  0.00  0.00    +0.000 A 
BRANCH  25  32
ATOM     31  C   UNL     1      -4.989  12.569  19.500  0.00  0.00    +0.000 C 
ATOM     32  O   UNL     1      -3.750  11.940  19.188  0.00  0.00    +0.000 OA
ENDBRANCH  25  32
ENDBRANCH  21  30
ENDBRANCH  20  22
ENDBRANCH   1  20
TORSDOF 6
ENDMDL
MODEL 3
REMARK VINA RESULT:      -8.4      3.754      6.482
REMARK  Name = 
REMARK  7 active torsions:
REMARK  status: ('A' for Active; 'I' for Inactive)
REMARK    1  A    between atoms: C_1  and  O_2
REMARK    2  A    between atoms: O_2  and  C_3
REMARK    3  A    between atoms: C_8  and  N_9
REMARK    4  A    between atoms: C_10  and  C_12
REMARK    5  A    between atoms: C_12  and  N_13
REMARK    6  A    between atoms: C_14  and  C_15
REMARK    7  A    between atoms: C_17  and  C_18
REMARK                            x       y       z     vdW  Elec       q    Type
REMARK                         _______ _______ _______ _____ _____    ______ ____
ROOT
ATOM      1  N   UNL     1       2.703   4.411  19.264  0.00  0.00    +0.000 N 
ATOM      2  C   UNL     1       3.260   3.483  18.369  0.00  0.00    +0.000 A 
ATOM      3  C   UNL     1       2.710   2.258  18.246  0.00  0.00    +0.000 A 
ATOM      4  C   UNL     1       1.584   1.867  19.054  0.00  0.00    +0.000 A 
ATOM      5  C   UNL     1       1.003   2.750  19.871  0.00  0.00    +0.000 A 
ATOM      6  C   UNL     1       1.529   4.134  19.964  0.00  0.00    +0.000 A 
ATOM      7  O   UNL     1       0.934   4.958  20.652  0.00  0.00    +0.000 OA
ENDROOT
BRANCH   2   8
ATOM      8  C   UNL     1       4.410   3.785  17.562  0.00  0.00    +0.000 A 
ATOM      9  N   UNL     1       4.500   3.723  16.246  0.00  0.00    +0.000 NA
ATOM     10  C   UNL     1       5.781   4.141  15.960  0.00  0.00    +0.000 A 
ATOM     11  N   UNL     1       6.493   4.432  17.054  0.00  0.00    +0.000 NA
ATOM     12  O   UNL     1       5.616   4.199  18.100  0.00  0.00    +0.000 OA
BRANCH  10  13
ATOM     13  C   UNL     1       6.268   4.239  14.592  0.00  0.00    +0.000 A 
ATOM     14  C   UNL     1       5.704   3.437  13.584  0.00  0.00    +0.000 A 
ATOM     15  C   UNL     1       6.161   3.508  12.264  0.00  0.00    +0.000 A 
ATOM     16  C   UNL     1       7.191   4.383  11.930  0.00  0.00    +0.000 A 
ATOM     17  C   UNL     1       7.757   5.186  12.913  0.00  0.00    +0.000 A 
ATOM     18  C   UNL     1       7.294   5.117  14.229  0.00  0.00    +0.000 A 
ATOM     19  F   UNL     1       7.879   5.918  15.133  0.00  0.00    +0.000 F 
ENDBRANCH  10  13
ENDBRANCH   2   8
BRANCH   1  20
ATOM     20  C   UNL     1       3.374   5.673  19.592  0.00  0.00    +0.000 C 
BRANCH  20  22
ATOM     21  N   UNL     1       2.004   7.656  20.141  0.00  0.00    +0.000 N 
ATOM     22  C   UNL     1       2.682   6.964  19.149  0.00  0.00    +0.000 C 
ATOM     23  O   UNL     1       2.903   7.428  18.027  0.00  0.00    +0.000 OA
ATOM     24  H   UNL     1       2.360   7.539  21.089  0.00  0.00    +0.000 HD
BRANCH  21  30
ATOM     25  C   UNL     1       0.474   9.428  20.833  0.00  0.00    +0.000 A 
ATOM     26  C   UNL     1      -0.099  10.686  20.604  0.00  0.00    +0.000 A 
ATOM     27  C   UNL     1       0.122  11.358  19.400  0.00  0.00    +0.000 A 
ATOM     28  C   UNL     1       0.931  10.786  18.423  0.00  0.00    +0.000 A 
ATOM     29  C   UNL     1       1.557   9.563  18.668  0.00  0.00    +0.000 A 
ATOM     30  C   UNL     1       1.351   8.887  19.877  0.00  0.00    +0.000 A 
BRANCH  25  32
ATOM     31  C   UNL     1       0.040   9.481  23.154  0.00  0.00    +0.000 C 
ATOM     32  O   UNL     1       0.295   8.705  21.987  0.00  0.00    +0.000 OA
ENDBRANCH  25  32
ENDBRANCH  21  30
ENDBRANCH  20  22
ENDBRANCH   1  20
TORSDOF 6
ENDMDL
MODEL 4
REMARK VINA RESULT:      -8.3      4.022      8.778
REMARK  Name = 
REMARK  7 active torsions:
REMARK  status: ('A' for Active; 'I' for Inactive)
REMARK    1  A    between atoms: C_1  and  O_2
REMARK    2  A    between atoms: O_2  and  C_3
REMARK    3  A    between atoms: C_8  and  N_9
REMARK    4  A    between atoms: C_10  and  C_12
REMARK    5  A    between atoms: C_12  and  N_13
REMARK    6  A    between atoms: C_14  and  C_15
REMARK    7  A    between atoms: C_17  and  C_18
REMARK                            x       y       z     vdW  Elec       q    Type
REMARK                         _______ _______ _______ _____ _____    ______ ____
ROOT
ATOM      1  N   UNL     1       3.326   4.074  20.087  0.00  0.00    +0.000 N 
ATOM      2  C   UNL     1       2.055   4.665  20.008  0.00  0.00    +0.000 A 
ATOM      3  C   UNL     1       0.959   3.885  19.924  0.00  0.00    +0.000 A 
ATOM      4  C   UNL     1       1.072   2.451  19.867  0.00  0.00    +0.000 A 
ATOM      5  C   UNL     1       2.266   1.864  19.996  0.00  0.00    +0.000 A 
ATOM      6  C   UNL     1       3.484   2.691  20.179  0.00  0.00    +0.000 A 
ATOM      7  O   UNL     1       4.561   2.138  20.382  0.00  0.00    +0.000 OA
ENDROOT
BRANCH   2   8
ATOM      8  C   UNL     1       1.866   6.089  20.015  0.00  0.00    +0.000 A 
ATOM      9  N   UNL     1       1.127   6.792  20.854  0.00  0.00    +0.000 NA
ATOM     10  C   UNL     1       1.303   8.102  20.468  0.00  0.00    +0.000 A 
ATOM     11  N   UNL     1       2.103   8.230  19.402  0.00  0.00    +0.000 NA
ATOM     12  O   UNL     1       2.469   6.931  19.096  0.00  0.00    +0.000 OA
BRANCH  10  13
ATOM     13  C   UNL     1       0.665   9.203  21.174  0.00  0.00    +0.000 A 
ATOM     14  C   UNL     1       0.059   8.981  22.423  0.00  0.00    +0.000 A 
ATOM     15  C   UNL     1      -0.568  10.021  23.117  0.00  0.00    +0.000 A 
ATOM     16  C   UNL     1      -0.598  11.302  22.573  0.00  0.00    +0.000 A 
ATOM     17  C   UNL     1       0.000  11.540  21.341  0.00  0.00    +0.000 A 
ATOM     18  C   UNL     1       0.631  10.500  20.653  0.00  0.00    +0.000 A 
ATOM     19  F   UNL     1       1.191  10.792  19.470  0.00  0.00    +0.000 F 
ENDBRANCH  10  13
ENDBRANCH   2   8
BRANCH   1  20
ATOM     20  C   UNL     1       4.558   4.862  19.972  0.00  0.00    +0.000 C 
BRANCH  20  22
ATOM     21  N   UNL     1       4.833   5.036  17.522  0.00  0.00    +0.000 N 
ATOM     22  C   UNL     1       5.410   4.643  18.719  0.00  0.00    +0.000 C 
ATOM     23  O   UNL     1       6.596   4.324  18.829  0.00  0.00    +0.000 OA
ATOM     24  H   UNL     1       4.155   5.797  17.581  0.00  0.00    +0.000 HD
BRANCH  21  30
ATOM     25  C   UNL     1       6.319   5.995  15.839  0.00  0.00    +0.000 A 
ATOM     26  C   UNL     1       7.069   5.846  14.665  0.00  0.00    +0.000 A 
ATOM     27  C   UNL     1       6.960   4.684  13.896  0.00  0.00    +0.000 A 
ATOM     28  C   UNL     1       6.116   3.658  14.304  0.00  0.00    +0.000 A 
ATOM     29  C   UNL     1       5.414   3.771  15.505  0.00  0.00    +0.000 A 
ATOM     30  C   UNL     1       5.525   4.927  16.288  0.00  0.00    +0.000 A 
BRANCH  25  32
ATOM     31  C   UNL     1       7.594   7.301  17.337  0.00  0.00    +0.000 C 
ATOM     32  O   UNL     1       6.367   7.110  16.640  0.00  0.00    +0.000 OA
ENDBRANCH  25  32
ENDBRANCH  21  30
ENDBRANCH  20  22
ENDBRANCH   1  20
TORSDOF 6
ENDMDL
MODEL 5
REMARK VINA RESULT:      -8.3      1.287      2.118
REMARK  Name = 
REMARK  7 active torsions:
REMARK  status: ('A' for Active; 'I' for Inactive)
REMARK    1  A    between atoms: C_1  and  O_2
REMARK    2  A    between atoms: O_2  and  C_3
REMARK    3  A    between atoms: C_8  and  N_9
REMARK    4  A    between atoms: C_10  and  C_12
REMARK    5  A    between atoms: C_12  and  N_13
REMARK    6  A    between atoms: C_14  and  C_15
REMARK    7  A    between atoms: C_17  and  C_18
REMARK                            x       y       z     vdW  Elec       q    Type
REMARK                         _______ _______ _______ _____ _____    ______ ____
ROOT
ATOM      1  N   UNL     1       0.164  10.711  20.708  0.00  0.00    +0.000 N 
ATOM      2  C   UNL     1       0.780   9.453  20.796  0.00  0.00    +0.000 A 
ATOM      3  C   UNL     1       0.757   8.777  21.962  0.00  0.00    +0.000 A 
ATOM      4  C   UNL     1       0.149   9.346  23.136  0.00  0.00    +0.000 A 
ATOM      5  C   UNL     1      -0.491  10.516  23.063  0.00  0.00    +0.000 A 
ATOM      6  C   UNL     1      -0.561  11.245  21.773  0.00  0.00    +0.000 A 
ATOM      7  O   UNL     1      -1.224  12.275  21.700  0.00  0.00    +0.000 OA
ENDROOT
BRANCH   2   8
ATOM      8  C   UNL     1       1.445   8.840  19.679  0.00  0.00    +0.000 A 
ATOM      9  N   UNL     1       1.959   7.625  19.625  0.00  0.00    +0.000 NA
ATOM     10  C   UNL     1       2.443   7.503  18.341  0.00  0.00    +0.000 A 
ATOM     11  N   UNL     1       2.270   8.610  17.610  0.00  0.00    +0.000 NA
ATOM     12  O   UNL     1       1.629   9.486  18.469  0.00  0.00    +0.000 OA
BRANCH  10  13
ATOM     13  C   UNL     1       3.072   6.278  17.871  0.00  0.00    +0.000 A 
ATOM     14  C   UNL     1       2.357   5.067  17.891  0.00  0.00    +0.000 A 
ATOM     15  C   UNL     1       2.942   3.875  17.452  0.00  0.00    +0.000 A 
ATOM     16  C   UNL     1       4.254   3.874  16.986  0.00  0.00    +0.000 A 
ATOM     17  C   UNL     1       4.974   5.063  16.956  0.00  0.00    +0.000 A 
ATOM     18  C   UNL     1       4.384   6.253  17.389  0.00  0.00    +0.000 A 
ATOM     19  F   UNL     1       5.129   7.368  17.335  0.00  0.00    +0.000 F 
ENDBRANCH  10  13
ENDBRANCH   2   8
BRANCH   1  20
ATOM     20  C   UNL     1       0.333  11.579  19.537  0.00  0.00    +0.000 C 
BRANCH  20  22
ATOM     21  N   UNL     1      -2.036  11.220  18.932  0.00  0.00    +0.000 N 
ATOM     22  C   UNL     1      -0.940  12.064  18.841  0.00  0.00    +0.000 C 
ATOM     23  O   UNL     1      -1.006  13.219  18.412  0.00  0.00    +0.000 OA
ATOM     24  H   UNL     1      -2.073  10.626  19.760  0.00  0.00    +0.000 HD
BRANCH  21  30
ATOM     25  C   UNL     1      -3.536  11.301  17.008  0.00  0.00    +0.000 A 
ATOM     26  C   UNL     1      -4.806  11.562  16.477  0.00  0.00    +0.000 A 
ATOM     27  C   UNL     1      -5.794  12.162  17.262  0.00  0.00    +0.000 A 
ATOM     28  C   UNL     1      -5.525  12.490  18.586  0.00  0.00    +0.000 A 
ATOM     29  C   UNL     1      -4.283  12.176  19.142  0.00  0.00    +0.000 A 
ATOM     30  C   UNL     1      -3.291  11.563  18.366  0.00  0.00    +0.000 A 
BRANCH  25  32
ATOM     31  C   UNL     1      -2.867  10.265  14.994  0.00  0.00    +0.000 C 
ATOM     32  O   UNL     1      -2.515  10.722  16.295  0.00  0.00    +0.000 OA
ENDBRANCH  25  32
ENDBRANCH  21  30
ENDBRANCH  20  22
ENDBRANCH   1  20
TORSDOF 6
ENDMDL
MODEL 6
REMARK VINA RESULT:      -8.2      2.365      3.477
REMARK  Name = 
REMARK  7 active torsions:
REMARK  status: ('A' for Active; 'I' for Inactive)
REMARK    1  A    between atoms: C_1  and  O_2
REMARK    2  A    between atoms: O_2  and  C_3
REMARK    3  A    between atoms: C_8  and  N_9
REMARK    4  A    between atoms: C_10  and  C_12
REMARK    5  A    between atoms: C_12  and  N_13
REMARK    6  A    between atoms: C_14  and  C_15
REMARK    7  A    between atoms: C_17  and  C_18
REMARK                            x       y       z     vdW  Elec       q    Type
REMARK                         _______ _______ _______ _____ _____    ______ ____
ROOT
ATOM      1  N   UNL     1      -2.201  13.099  21.553  0.00  0.00    +0.000 N 
ATOM      2  C   UNL     1      -1.890  11.996  22.365  0.00  0.00    +0.000 A 
ATOM      3  C   UNL     1      -2.629  11.744  23.463  0.00  0.00    +0.000 A 
ATOM      4  C   UNL     1      -3.709  12.616  23.846  0.00  0.00    +0.000 A 
ATOM      5  C   UNL     1      -4.059  13.639  23.061  0.00  0.00    +0.000 A 
ATOM      6  C   UNL     1      -3.322  13.892  21.798  0.00  0.00    +0.000 A 
ATOM      7  O   UNL     1      -3.709  14.780  21.045  0.00  0.00    +0.000 OA
ENDROOT
BRANCH   2   8
ATOM      8  C   UNL     1      -0.799  11.107  22.072  0.00  0.00    +0.000 A 
ATOM      9  N   UNL     1      -0.533  10.526  20.916  0.00  0.00    +0.000 NA
ATOM     10  C   UNL     1       0.622   9.811  21.140  0.00  0.00    +0.000 A 
ATOM     11  N   UNL     1       1.063   9.908  22.399  0.00  0.00    +0.000 NA
ATOM     12  O   UNL     1       0.145  10.742  23.015  0.00  0.00    +0.000 OA
BRANCH  10  13
ATOM     13  C   UNL     1       1.265   9.041  20.084  0.00  0.00    +0.000 A 
ATOM     14  C   UNL     1       1.443   9.606  18.810  0.00  0.00    +0.000 A 
ATOM     15  C   UNL     1       2.050   8.883  17.777  0.00  0.00    +0.000 A 
ATOM     16  C   UNL     1       2.488   7.581  18.003  0.00  0.00    +0.000 A 
ATOM     17  C   UNL     1       2.323   7.009  19.259  0.00  0.00    +0.000 A 
ATOM     18  C   UNL     1       1.723   7.736  20.290  0.00  0.00    +0.000 A 
ATOM     19  F   UNL     1       1.592   7.130  21.480  0.00  0.00    +0.000 F 
ENDBRANCH  10  13
ENDBRANCH   2   8
BRANCH   1  20
ATOM     20  C   UNL     1      -1.316  13.543  20.471  0.00  0.00    +0.000 C 
BRANCH  20  22
ATOM     21  N   UNL     1      -2.502  11.927  19.024  0.00  0.00    +0.000 N 
ATOM     22  C   UNL     1      -1.463  12.839  19.120  0.00  0.00    +0.000 C 
ATOM     23  O   UNL     1      -0.811  13.230  18.148  0.00  0.00    +0.000 OA
ATOM     24  H   UNL     1      -3.308  12.104  19.625  0.00  0.00    +0.000 HD
BRANCH  21  30
ATOM     25  C   UNL     1      -3.983  11.470  17.137  0.00  0.00    +0.000 A 
ATOM     26  C   UNL     1      -4.208  10.847  15.903  0.00  0.00    +0.000 A 
ATOM     27  C   UNL     1      -3.288   9.927  15.394  0.00  0.00    +0.000 A 
ATOM     28  C   UNL     1      -2.129   9.637  16.106  0.00  0.00    +0.000 A 
ATOM     29  C   UNL     1      -1.866  10.301  17.305  0.00  0.00    +0.000 A 
ATOM     30  C   UNL     1      -2.777  11.233  17.818  0.00  0.00    +0.000 A 
BRANCH  25  32
ATOM     31  C   UNL     1      -6.196  11.940  17.814  0.00  0.00    +0.000 C 
ATOM     32  O   UNL     1      -4.845  12.376  17.704  0.00  0.00    +0.000 OA
ENDBRANCH  25  32
ENDBRANCH  21  30
ENDBRANCH  20  22
ENDBRANCH   1  20
TORSDOF 6
ENDMDL
MODEL 7
REMARK VINA RESULT:      -8.2      4.064      9.118
REMARK  Name = 
REMARK  7 active torsions:
REMARK  status: ('A' for Active; 'I' for Inactive)
REMARK    1  A    between atoms: C_1  and  O_2
REMARK    2  A    between atoms: O_2  and  C_3
REMARK    3  A    between atoms: C_8  and  N_9
REMARK    4  A    between atoms: C_10  and  C_12
REMARK    5  A    between atoms: C_12  and  N_13
REMARK    6  A    between atoms: C_14  and  C_15
REMARK    7  A    between atoms: C_17  and  C_18
REMARK                            x       y       z     vdW  Elec       q    Type
REMARK                         _______ _______ _______ _____ _____    ______ ____
ROOT
ATOM      1  N   UNL     1       4.864   5.729  18.367  0.00  0.00    +0.000 N 
ATOM      2  C   UNL     1       3.547   5.973  18.791  0.00  0.00    +0.000 A 
ATOM      3  C   UNL     1       2.878   5.025  19.476  0.00  0.00    +0.000 A 
ATOM      4  C   UNL     1       3.475   3.742  19.742  0.00  0.00    +0.000 A 
ATOM      5  C   UNL     1       4.744   3.506  19.399  0.00  0.00    +0.000 A 
ATOM      6  C   UNL     1       5.539   4.561  18.722  0.00  0.00    +0.000 A 
ATOM      7  O   UNL     1       6.727   4.361  18.489  0.00  0.00    +0.000 OA
ENDROOT
BRANCH   2   8
ATOM      8  C   UNL     1       2.870   7.212  18.524  0.00  0.00    +0.000 A 
ATOM      9  N   UNL     1       1.945   7.793  19.268  0.00  0.00    +0.000 NA
ATOM     10  C   UNL     1       1.644   8.962  18.606  0.00  0.00    +0.000 A 
ATOM     11  N   UNL     1       2.329   9.111  17.467  0.00  0.00    +0.000 NA
ATOM     12  O   UNL     1       3.123   7.979  17.400  0.00  0.00    +0.000 OA
BRANCH  10  13
ATOM     13  C   UNL     1       0.671   9.910  19.129  0.00  0.00    +0.000 A 
ATOM     14  C   UNL     1       0.910  10.561  20.353  0.00  0.00    +0.000 A 
ATOM     15  C   UNL     1      -0.013  11.470  20.880  0.00  0.00    +0.000 A 
ATOM     16  C   UNL     1      -1.192  11.744  20.191  0.00  0.00    +0.000 A 
ATOM     17  C   UNL     1      -1.441  11.112  18.978  0.00  0.00    +0.000 A 
ATOM     18  C   UNL     1      -0.514  10.210  18.452  0.00  0.00    +0.000 A 
ATOM     19  F   UNL     1      -0.811   9.633  17.277  0.00  0.00    +0.000 F 
ENDBRANCH  10  13
ENDBRANCH   2   8
BRANCH   1  20
ATOM     20  C   UNL     1       5.565   6.631  17.448  0.00  0.00    +0.000 C 
BRANCH  20  22
ATOM     21  N   UNL     1       6.048   4.995  15.660  0.00  0.00    +0.000 N 
ATOM     22  C   UNL     1       5.559   6.255  15.964  0.00  0.00    +0.000 C 
ATOM     23  O   UNL     1       4.966   6.969  15.151  0.00  0.00    +0.000 OA
ATOM     24  H   UNL     1       5.950   4.289  16.390  0.00  0.00    +0.000 HD
BRANCH  21  30
ATOM     25  C   UNL     1       7.164   4.779  13.498  0.00  0.00    +0.000 A 
ATOM     26  C   UNL     1       7.213   4.217  12.216  0.00  0.00    +0.000 A 
ATOM     27  C   UNL     1       6.140   3.466  11.729  0.00  0.00    +0.000 A 
ATOM     28  C   UNL     1       5.020   3.256  12.526  0.00  0.00    +0.000 A 
ATOM     29  C   UNL     1       4.989   3.758  13.828  0.00  0.00    +0.000 A 
ATOM     30  C   UNL     1       6.064   4.503  14.329  0.00  0.00    +0.000 A 
BRANCH  25  32
ATOM     31  C   UNL     1       9.100   6.071  13.101  0.00  0.00    +0.000 C 
ATOM     32  O   UNL     1       8.174   5.535  14.041  0.00  0.00    +0.000 OA
ENDBRANCH  25  32
ENDBRANCH  21  30
ENDBRANCH  20  22
ENDBRANCH   1  20
TORSDOF 6
ENDMDL
MODEL 8
REMARK VINA RESULT:      -8.1      3.047      4.191
REMARK  Name = 
REMARK  7 active torsions:
REMARK  status: ('A' for Active; 'I' for Inactive)
REMARK    1  A    between atoms: C_1  and  O_2
REMARK    2  A    between atoms: O_2  and  C_3
REMARK    3  A    between atoms: C_8  and  N_9
REMARK    4  A    between atoms: C_10  and  C_12
REMARK    5  A    between atoms: C_12  and  N_13
REMARK    6  A    between atoms: C_14  and  C_15
REMARK    7  A    between atoms: C_17  and  C_18
REMARK                            x       y       z     vdW  Elec       q    Type
REMARK                         _______ _______ _______ _____ _____    ______ ____
ROOT
ATOM      1  N   UNL     1       0.686  11.090  20.975  0.00  0.00    +0.000 N 
ATOM      2  C   UNL     1       0.626   9.719  20.676  0.00  0.00    +0.000 A 
ATOM      3  C   UNL     1      -0.094   8.894  21.461  0.00  0.00    +0.000 A 
ATOM      4  C   UNL     1      -0.768   9.388  22.633  0.00  0.00    +0.000 A 
ATOM      5  C   UNL     1      -0.772  10.696  22.907  0.00  0.00    +0.000 A 
ATOM      6  C   UNL     1      -0.062  11.644  22.013  0.00  0.00    +0.000 A 
ATOM      7  O   UNL     1      -0.145  12.849  22.229  0.00  0.00    +0.000 OA
ENDROOT
BRANCH   2   8
ATOM      8  C   UNL     1       1.309   9.146  19.549  0.00  0.00    +0.000 A 
ATOM      9  N   UNL     1       2.043   8.048  19.535  0.00  0.00    +0.000 NA
ATOM     10  C   UNL     1       2.441   7.907  18.224  0.00  0.00    +0.000 A 
ATOM     11  N   UNL     1       2.001   8.893  17.434  0.00  0.00    +0.000 NA
ATOM     12  O   UNL     1       1.270   9.706  18.284  0.00  0.00    +0.000 OA
BRANCH  10  13
ATOM     13  C   UNL     1       3.258   6.784  17.787  0.00  0.00    +0.000 A 
ATOM     14  C   UNL     1       4.525   7.013  17.222  0.00  0.00    +0.000 A 
ATOM     15  C   UNL     1       5.325   5.952  16.787  0.00  0.00    +0.000 A 
ATOM     16  C   UNL     1       4.869   4.641  16.910  0.00  0.00    +0.000 A 
ATOM     17  C   UNL     1       3.621   4.397  17.470  0.00  0.00    +0.000 A 
ATOM     18  C   UNL     1       2.828   5.460  17.909  0.00  0.00    +0.000 A 
ATOM     19  F   UNL     1       1.633   5.160  18.441  0.00  0.00    +0.000 F 
ENDBRANCH  10  13
ENDBRANCH   2   8
BRANCH   1  20
ATOM     20  C   UNL     1       1.612  11.996  20.287  0.00  0.00    +0.000 C 
BRANCH  20  22
ATOM     21  N   UNL     1       1.308  14.422  19.926  0.00  0.00    +0.000 N 
ATOM     22  C   UNL     1       0.995  13.145  19.486  0.00  0.00    +0.000 C 
ATOM     23  O   UNL     1       0.431  12.915  18.414  0.00  0.00    +0.000 OA
ATOM     24  H   UNL     1       2.204  14.523  20.401  0.00  0.00    +0.000 HD
BRANCH  21  30
ATOM     25  C   UNL     1       1.740  16.398  18.558  0.00  0.00    +0.000 A 
ATOM     26  C   UNL     1       1.255  17.488  17.824  0.00  0.00    +0.000 A 
ATOM     27  C   UNL     1      -0.102  17.817  17.856  0.00  0.00    +0.000 A 
ATOM     28  C   UNL     1      -0.986  17.049  18.606  0.00  0.00    +0.000 A 
ATOM     29  C   UNL     1      -0.522  15.923  19.289  0.00  0.00    +0.000 A 
ATOM     30  C   UNL     1       0.835  15.579  19.254  0.00  0.00    +0.000 A 
BRANCH  25  32
ATOM     31  C   UNL     1       3.588  15.582  17.334  0.00  0.00    +0.000 C 
ATOM     32  O   UNL     1       3.061  16.020  18.582  0.00  0.00    +0.000 OA
ENDBRANCH  25  32
ENDBRANCH  21  30
ENDBRANCH  20  22
ENDBRANCH   1  20
TORSDOF 6
ENDMDL
MODEL 9
REMARK VINA RESULT:      -8.1      2.557      4.435
REMARK  Name = 
REMARK  7 active torsions:
REMARK  status: ('A' for Active; 'I' for Inactive)
REMARK    1  A    between atoms: C_1  and  O_2
REMARK    2  A    between atoms: O_2  and  C_3
REMARK    3  A    between atoms: C_8  and  N_9
REMARK    4  A    between atoms: C_10  and  C_12
REMARK    5  A    between atoms: C_12  and  N_13
REMARK    6  A    between atoms: C_14  and  C_15
REMARK    7  A    between atoms: C_17  and  C_18
REMARK                            x       y       z     vdW  Elec       q    Type
REMARK                         _______ _______ _______ _____ _____    ______ ____
ROOT
ATOM      1  N   UNL     1      -0.168  10.546  20.542  0.00  0.00    +0.000 N 
ATOM      2  C   UNL     1       0.693   9.451  20.728  0.00  0.00    +0.000 A 
ATOM      3  C   UNL     1       0.866   8.939  21.962  0.00  0.00    +0.000 A 
ATOM      4  C   UNL     1       0.217   9.525  23.106  0.00  0.00    +0.000 A 
ATOM      5  C   UNL     1      -0.649  10.530  22.947  0.00  0.00    +0.000 A 
ATOM      6  C   UNL     1      -0.930  11.060  21.590  0.00  0.00    +0.000 A 
ATOM      7  O   UNL     1      -1.790  11.925  21.449  0.00  0.00    +0.000 OA
ENDROOT
BRANCH   2   8
ATOM      8  C   UNL     1       1.409   8.841  19.642  0.00  0.00    +0.000 A 
ATOM      9  N   UNL     1       1.876   7.607  19.588  0.00  0.00    +0.000 NA
ATOM     10  C   UNL     1       2.444   7.500  18.338  0.00  0.00    +0.000 A 
ATOM     11  N   UNL     1       2.368   8.632  17.629  0.00  0.00    +0.000 NA
ATOM     12  O   UNL     1       1.704   9.511  18.467  0.00  0.00    +0.000 OA
BRANCH  10  13
ATOM     13  C   UNL     1       3.055   6.261  17.876  0.00  0.00    +0.000 A 
ATOM     14  C   UNL     1       2.326   5.060  17.916  0.00  0.00    +0.000 A 
ATOM     15  C   UNL     1       2.893   3.856  17.486  0.00  0.00    +0.000 A 
ATOM     16  C   UNL     1       4.201   3.834  17.008  0.00  0.00    +0.000 A 
ATOM     17  C   UNL     1       4.934   5.014  16.959  0.00  0.00    +0.000 A 
ATOM     18  C   UNL     1       4.362   6.216  17.383  0.00  0.00    +0.000 A 
ATOM     19  F   UNL     1       5.119   7.321  17.310  0.00  0.00    +0.000 F 
ENDBRANCH  10  13
ENDBRANCH   2   8
BRANCH   1  20
ATOM     20  C   UNL     1      -0.237  11.273  19.270  0.00  0.00    +0.000 C 
BRANCH  20  22
ATOM     21  N   UNL     1       1.879  12.534  19.462  0.00  0.00    +0.000 N 
ATOM     22  C   UNL     1       0.523  12.598  19.183  0.00  0.00    +0.000 C 
ATOM     23  O   UNL     1      -0.025  13.592  18.701  0.00  0.00    +0.000 OA
ATOM     24  H   UNL     1       2.335  11.643  19.263  0.00  0.00    +0.000 HD
BRANCH  21  30
ATOM     25  C   UNL     1       2.890  14.492  20.514  0.00  0.00    +0.000 A 
ATOM     26  C   UNL     1       3.781  15.571  20.452  0.00  0.00    +0.000 A 
ATOM     27  C   UNL     1       4.419  15.895  19.253  0.00  0.00    +0.000 A 
ATOM     28  C   UNL     1       4.185  15.135  18.112  0.00  0.00    +0.000 A 
ATOM     29  C   UNL     1       3.347  14.020  18.181  0.00  0.00    +0.000 A 
ATOM     30  C   UNL     1       2.712  13.680  19.382  0.00  0.00    +0.000 A 
BRANCH  25  32
ATOM     31  C   UNL     1       1.098  14.928  21.989  0.00  0.00    +0.000 C 
ATOM     32  O   UNL     1       2.220  14.118  21.654  0.00  0.00    +0.000 OA
ENDBRANCH  25  32
ENDBRANCH  21  30
ENDBRANCH  20  22
ENDBRANCH   1  20
TORSDOF 6
ENDMDL
