MODEL 1
REMARK VINA RESULT:      -8.6      0.000      0.000
REMARK  Name = 
REMARK  8 active torsions:
REMARK  status: ('A' for Active; 'I' for Inactive)
REMARK    1  A    between atoms: C_1  and  C_2
REMARK    2  A    between atoms: C_4  and  C_5
REMARK    3  A    between atoms: C_8  and  C_9
REMARK    4  A    between atoms: C_12  and  N_13
REMARK    5  A    between atoms: C_14  and  C_16
REMARK    6  A    between atoms: C_16  and  O_17
REMARK    7  A    between atoms: O_17  and  C_18
REMARK    8  A    between atoms: C_24  and  C_25
REMARK                            x       y       z     vdW  Elec       q    Type
REMARK                         _______ _______ _______ _____ _____    ______ ____
ROOT
ATOM      1  C   UNL     1       2.077   7.962  19.427  0.00  0.00    +0.000 A 
ATOM      2  C   UNL     1       2.468   6.761  20.038  0.00  0.00    +0.000 A 
ATOM      3  C   UNL     1       3.360   5.897  19.401  0.00  0.00    +0.000 A 
ATOM      4  C   UNL     1       3.824   6.198  18.124  0.00  0.00    +0.000 A 
ATOM      5  C   UNL     1       3.459   7.397  17.510  0.00  0.00    +0.000 A 
ATOM      6  C   UNL     1       2.586   8.270  18.158  0.00  0.00    +0.000 A 
ENDROOT
BRANCH   1  14
ATOM      7  C   UNL     1      -2.422  12.196  23.371  0.00  0.00    +0.000 C 
ATOM      8  C   UNL     1      -1.645  11.612  22.227  0.00  0.00    +0.000 A 
ATOM      9  C   UNL     1      -1.798  12.113  20.919  0.00  0.00    +0.000 A 
ATOM     10  C   UNL     1      -1.088  11.587  19.820  0.00  0.00    +0.000 A 
ATOM     11  C   UNL     1      -1.258  12.118  18.436  0.00  0.00    +0.000 C 
ATOM     12  C   UNL     1      -0.231  10.535  20.137  0.00  0.00    +0.000 A 
ATOM     13  O   UNL     1       0.569   9.837  19.280  0.00  0.00    +0.000 OA
ATOM     14  C   UNL     1       1.185   8.911  20.082  0.00  0.00    +0.000 A 
ATOM     15  N   UNL     1       0.853   8.977  21.358  0.00  0.00    +0.000 NA
ATOM     16  C   UNL     1      -0.050  10.008  21.404  0.00  0.00    +0.000 A 
ATOM     17  C   UNL     1      -0.764  10.543  22.477  0.00  0.00    +0.000 A 
ENDBRANCH   1  14
BRANCH   4  18
ATOM     18  N   UNL     1       4.704   5.308  17.510  0.00  0.00    +0.000 N 
ATOM     19  C   UNL     1       4.378   4.171  16.819  0.00  0.00    +0.000 C 
ATOM     20  O   UNL     1       5.297   3.491  16.351  0.00  0.00    +0.000 OA
ATOM     21  H   UNL     1       5.670   5.298  17.813  0.00  0.00    +0.000 HD
BRANCH  19  22
ATOM     22  C   UNL     1       2.925   3.703  16.722  0.00  0.00    +0.000 C 
BRANCH  22  23
ATOM     23  O   UNL     1       2.787   2.466  17.410  0.00  0.00    +0.000 OA
BRANCH  23  24
ATOM     24  C   UNL     1       2.437   2.490  18.735  0.00  0.00    +0.000 A 
ATOM     25  C   UNL     1       1.087   2.838  18.936  0.00  0.00    +0.000 A 
ATOM     26  C   UNL     1       0.558   2.982  20.221  0.00  0.00    +0.000 A 
ATOM     27  C   UNL     1       1.382   2.782  21.313  0.00  0.00    +0.000 A 
ATOM     28  F   UNL     1       0.897   2.937  22.552  0.00  0.00    +0.000 F 
ATOM     29  C   UNL     1       2.718   2.441  21.141  0.00  0.00    +0.000 A 
ATOM     30  C   UNL     1       3.273   2.304  19.852  0.00  0.00    +0.000 A 
ATOM     31  C   UNL     1       4.742   2.006  19.782  0.00  0.00    +0.000 C 
ENDBRANCH  23  24
ENDBRANCH  22  23
ENDBRANCH  19  22
ENDBRANCH   4  18
TORSDOF 5
ENDMDL
MODEL 2
REMARK VINA RESULT:      -8.4      0.777      1.614
REMARK  Name = 
REMARK  8 active torsions:
REMARK  status: ('A' for Active; 'I' for Inactive)
REMARK    1  A    between atoms: C_1  and  C_2
REMARK    2  A    between atoms: C_4  and  C_5
REMARK    3  A    between atoms: C_8  and  C_9
REMARK    4  A    between atoms: C_12  and  N_13
REMARK    5  A    between atoms: C_14  and  C_16
REMARK    6  A    between atoms: C_16  and  O_17
REMARK    7  A    between atoms: O_17  and  C_18
REMARK    8  A    between atoms: C_24  and  C_25
REMARK                            x       y       z     vdW  Elec       q    Type
REMARK                         _______ _______ _______ _____ _____    ______ ____
ROOT
ATOM      1  C   UNL     1       2.138   7.998  19.047  0.00  0.00    +0.000 A 
ATOM      2  C   UNL     1       2.493   6.827  19.733  0.00  0.00    +0.000 A 
ATOM      3  C   UNL     1       3.433   5.945  19.195  0.00  0.00    +0.000 A 
ATOM      4  C   UNL     1       3.982   6.199  17.941  0.00  0.00    +0.000 A 
ATOM      5  C   UNL     1       3.653   7.369  17.256  0.00  0.00    +0.000 A 
ATOM      6  C   UNL     1       2.731   8.258  17.804  0.00  0.00    +0.000 A 
ENDROOT
BRANCH   1  14
ATOM      7  C   UNL     1      -2.470  13.308  21.118  0.00  0.00    +0.000 C 
ATOM      8  C   UNL     1      -1.564  12.111  21.142  0.00  0.00    +0.000 A 
ATOM      9  C   UNL     1      -1.296  11.432  22.346  0.00  0.00    +0.000 A 
ATOM     10  C   UNL     1      -0.449  10.307  22.408  0.00  0.00    +0.000 A 
ATOM     11  C   UNL     1      -0.163   9.595  23.688  0.00  0.00    +0.000 C 
ATOM     12  C   UNL     1       0.098   9.929  21.183  0.00  0.00    +0.000 A 
ATOM     13  O   UNL     1       0.950   8.890  20.945  0.00  0.00    +0.000 OA
ATOM     14  C   UNL     1       1.196   8.965  19.599  0.00  0.00    +0.000 A 
ATOM     15  N   UNL     1       0.567   9.943  18.976  0.00  0.00    +0.000 NA
ATOM     16  C   UNL     1      -0.134  10.566  19.976  0.00  0.00    +0.000 A 
ATOM     17  C   UNL     1      -0.976  11.679  19.939  0.00  0.00    +0.000 A 
ENDBRANCH   1  14
BRANCH   4  18
ATOM     18  N   UNL     1       4.908   5.292  17.427  0.00  0.00    +0.000 N 
ATOM     19  C   UNL     1       4.639   4.105  16.800  0.00  0.00    +0.000 C 
ATOM     20  O   UNL     1       5.592   3.419  16.419  0.00  0.00    +0.000 OA
ATOM     21  H   UNL     1       5.860   5.327  17.772  0.00  0.00    +0.000 HD
BRANCH  19  22
ATOM     22  C   UNL     1       3.203   3.596  16.671  0.00  0.00    +0.000 C 
BRANCH  22  23
ATOM     23  O   UNL     1       3.072   2.380  17.398  0.00  0.00    +0.000 OA
BRANCH  23  24
ATOM     24  C   UNL     1       2.632   2.437  18.695  0.00  0.00    +0.000 A 
ATOM     25  C   UNL     1       1.248   2.679  18.790  0.00  0.00    +0.000 A 
ATOM     26  C   UNL     1       0.622   2.839  20.028  0.00  0.00    +0.000 A 
ATOM     27  C   UNL     1       1.382   2.762  21.180  0.00  0.00    +0.000 A 
ATOM     28  F   UNL     1       0.802   2.935  22.376  0.00  0.00    +0.000 F 
ATOM     29  C   UNL     1       2.750   2.527  21.112  0.00  0.00    +0.000 A 
ATOM     30  C   UNL     1       3.401   2.377  19.871  0.00  0.00    +0.000 A 
ATOM     31  C   UNL     1       4.891   2.201  19.912  0.00  0.00    +0.000 C 
ENDBRANCH  23  24
ENDBRANCH  22  23
ENDBRANCH  19  22
ENDBRANCH   4  18
TORSDOF 5
ENDMDL
MODEL 3
REMARK VINA RESULT:      -8.2      2.962      4.391
REMARK  Name = 
REMARK  8 active torsions:
REMARK  status: ('A' for Active; 'I' for Inactive)
REMARK    1  A    between atoms: C_1  and  C_2
REMARK    2  A    between atoms: C_4  and  C_5
REMARK    3  A    between atoms: C_8  and  C_9
REMARK    4  A    between atoms: C_12  and  N_13
REMARK    5  A    between atoms: C_14  and  C_16
REMARK    6  A    between atoms: C_16  and  O_17
REMARK    7  A    between atoms: O_17  and  C_18
REMARK    8  A    between atoms: C_24  and  C_25
REMARK                            x       y       z     vdW  Elec       q    Type
REMARK                         _______ _______ _______ _____ _____    ______ ____
ROOT
ATOM      1  C   UNL     1       1.458   7.571  20.069  0.00  0.00    +0.000 A 
ATOM      2  C   UNL     1       2.049   7.494  18.799  0.00  0.00    +0.000 A 
ATOM      3  C   UNL     1       2.431   6.262  18.266  0.00  0.00    +0.000 A 
ATOM      4  C   UNL     1       2.276   5.103  19.021  0.00  0.00    +0.000 A 
ATOM      5  C   UNL     1       1.673   5.160  20.278  0.00  0.00    +0.000 A 
ATOM      6  C   UNL     1       1.273   6.389  20.800  0.00  0.00    +0.000 A 
ENDROOT
BRANCH   1  14
ATOM      7  C   UNL     1      -1.388  13.466  23.367  0.00  0.00    +0.000 C 
ATOM      8  C   UNL     1      -0.623  12.586  22.420  0.00  0.00    +0.000 A 
ATOM      9  C   UNL     1       0.081  13.137  21.331  0.00  0.00    +0.000 A 
ATOM     10  C   UNL     1       0.807  12.343  20.420  0.00  0.00    +0.000 A 
ATOM     11  C   UNL     1       1.545  12.930  19.264  0.00  0.00    +0.000 C 
ATOM     12  C   UNL     1       0.766  10.976  20.687  0.00  0.00    +0.000 A 
ATOM     13  O   UNL     1       1.367   9.978  19.977  0.00  0.00    +0.000 OA
ATOM     14  C   UNL     1       1.005   8.834  20.639  0.00  0.00    +0.000 A 
ATOM     15  N   UNL     1       0.247   9.028  21.702  0.00  0.00    +0.000 NA
ATOM     16  C   UNL     1       0.087  10.389  21.742  0.00  0.00    +0.000 A 
ATOM     17  C   UNL     1      -0.626  11.195  22.630  0.00  0.00    +0.000 A 
ENDBRANCH   1  14
BRANCH   4  18
ATOM     18  N   UNL     1       2.679   3.890  18.464  0.00  0.00    +0.000 N 
ATOM     19  C   UNL     1       3.907   3.295  18.582  0.00  0.00    +0.000 C 
ATOM     20  O   UNL     1       4.091   2.219  18.005  0.00  0.00    +0.000 OA
ATOM     21  H   UNL     1       2.161   3.526  17.673  0.00  0.00    +0.000 HD
BRANCH  19  22
ATOM     22  C   UNL     1       5.048   3.997  19.319  0.00  0.00    +0.000 C 
BRANCH  22  23
ATOM     23  O   UNL     1       6.187   4.053  18.468  0.00  0.00    +0.000 OA
BRANCH  23  24
ATOM     24  C   UNL     1       6.689   5.283  18.127  0.00  0.00    +0.000 A 
ATOM     25  C   UNL     1       7.656   5.749  19.038  0.00  0.00    +0.000 A 
ATOM     26  C   UNL     1       8.235   7.012  18.900  0.00  0.00    +0.000 A 
ATOM     27  C   UNL     1       7.844   7.819  17.848  0.00  0.00    +0.000 A 
ATOM     28  F   UNL     1       8.372   9.043  17.713  0.00  0.00    +0.000 F 
ATOM     29  C   UNL     1       6.889   7.383  16.937  0.00  0.00    +0.000 A 
ATOM     30  C   UNL     1       6.284   6.116  17.068  0.00  0.00    +0.000 A 
ATOM     31  C   UNL     1       5.214   5.778  16.073  0.00  0.00    +0.000 C 
ENDBRANCH  23  24
ENDBRANCH  22  23
ENDBRANCH  19  22
ENDBRANCH   4  18
TORSDOF 5
ENDMDL
MODEL 4
REMARK VINA RESULT:      -8.1      3.047      4.637
REMARK  Name = 
REMARK  8 active torsions:
REMARK  status: ('A' for Active; 'I' for Inactive)
REMARK    1  A    between atoms: C_1  and  C_2
REMARK    2  A    between atoms: C_4  and  C_5
REMARK    3  A    between atoms: C_8  and  C_9
REMARK    4  A    between atoms: C_12  and  N_13
REMARK    5  A    between atoms: C_14  and  C_16
REMARK    6  A    between atoms: C_16  and  O_17
REMARK    7  A    between atoms: O_17  and  C_18
REMARK    8  A    between atoms: C_24  and  C_25
REMARK                            x       y       z     vdW  Elec       q    Type
REMARK                         _______ _______ _______ _____ _____    ______ ____
ROOT
ATOM      1  C   UNL     1       1.709   7.551  19.383  0.00  0.00    +0.000 A 
ATOM      2  C   UNL     1       1.606   6.714  20.505  0.00  0.00    +0.000 A 
ATOM      3  C   UNL     1       1.943   5.362  20.417  0.00  0.00    +0.000 A 
ATOM      4  C   UNL     1       2.332   4.824  19.194  0.00  0.00    +0.000 A 
ATOM      5  C   UNL     1       2.458   5.646  18.074  0.00  0.00    +0.000 A 
ATOM      6  C   UNL     1       2.142   7.000  18.169  0.00  0.00    +0.000 A 
ENDROOT
BRANCH   1  14
ATOM      7  C   UNL     1       0.814  14.821  19.129  0.00  0.00    +0.000 C 
ATOM      8  C   UNL     1       0.749  13.386  19.567  0.00  0.00    +0.000 A 
ATOM      9  C   UNL     1       0.120  13.028  20.776  0.00  0.00    +0.000 A 
ATOM     10  C   UNL     1       0.042  11.693  21.221  0.00  0.00    +0.000 A 
ATOM     11  C   UNL     1      -0.620  11.320  22.506  0.00  0.00    +0.000 C 
ATOM     12  C   UNL     1       0.639  10.765  20.370  0.00  0.00    +0.000 A 
ATOM     13  O   UNL     1       0.720   9.415  20.547  0.00  0.00    +0.000 OA
ATOM     14  C   UNL     1       1.411   8.976  19.449  0.00  0.00    +0.000 A 
ATOM     15  N   UNL     1       1.756   9.925  18.598  0.00  0.00    +0.000 NA
ATOM     16  C   UNL     1       1.271  11.070  19.176  0.00  0.00    +0.000 A 
ATOM     17  C   UNL     1       1.336  12.399  18.756  0.00  0.00    +0.000 A 
ENDBRANCH   1  14
BRANCH   4  18
ATOM     18  N   UNL     1       2.650   3.467  19.138  0.00  0.00    +0.000 N 
ATOM     19  C   UNL     1       3.894   2.906  19.247  0.00  0.00    +0.000 C 
ATOM     20  O   UNL     1       3.989   1.678  19.159  0.00  0.00    +0.000 OA
ATOM     21  H   UNL     1       1.991   2.835  18.699  0.00  0.00    +0.000 HD
BRANCH  19  22
ATOM     22  C   UNL     1       5.140   3.784  19.368  0.00  0.00    +0.000 C 
BRANCH  22  23
ATOM     23  O   UNL     1       5.570   4.166  18.066  0.00  0.00    +0.000 OA
BRANCH  23  24
ATOM     24  C   UNL     1       6.312   5.310  17.931  0.00  0.00    +0.000 A 
ATOM     25  C   UNL     1       7.270   5.462  18.953  0.00  0.00    +0.000 A 
ATOM     26  C   UNL     1       8.078   6.599  19.028  0.00  0.00    +0.000 A 
ATOM     27  C   UNL     1       7.928   7.594  18.080  0.00  0.00    +0.000 A 
ATOM     28  F   UNL     1       8.679   8.701  18.149  0.00  0.00    +0.000 F 
ATOM     29  C   UNL     1       6.988   7.469  17.064  0.00  0.00    +0.000 A 
ATOM     30  C   UNL     1       6.154   6.335  16.980  0.00  0.00    +0.000 A 
ATOM     31  C   UNL     1       5.125   6.338  15.888  0.00  0.00    +0.000 C 
ENDBRANCH  23  24
ENDBRANCH  22  23
ENDBRANCH  19  22
ENDBRANCH   4  18
TORSDOF 5
ENDMDL
MODEL 5
REMARK VINA RESULT:      -8.0      3.141      9.112
REMARK  Name = 
REMARK  8 active torsions:
REMARK  status: ('A' for Active; 'I' for Inactive)
REMARK    1  A    between atoms: C_1  and  C_2
REMARK    2  A    between atoms: C_4  and  C_5
REMARK    3  A    between atoms: C_8  and  C_9
REMARK    4  A    between atoms: C_12  and  N_13
REMARK    5  A    between atoms: C_14  and  C_16
REMARK    6  A    between atoms: C_16  and  O_17
REMARK    7  A    between atoms: O_17  and  C_18
REMARK    8  A    between atoms: C_24  and  C_25
REMARK                            x       y       z     vdW  Elec       q    Type
REMARK                         _______ _______ _______ _____ _____    ______ ____
ROOT
ATOM      1  C   UNL     1       1.057   8.874  20.514  0.00  0.00    +0.000 A 
ATOM      2  C   UNL     1       0.182   8.682  21.593  0.00  0.00    +0.000 A 
ATOM      3  C   UNL     1      -0.543   9.752  22.120  0.00  0.00    +0.000 A 
ATOM      4  C   UNL     1      -0.357  11.033  21.609  0.00  0.00    +0.000 A 
ATOM      5  C   UNL     1       0.495  11.238  20.523  0.00  0.00    +0.000 A 
ATOM      6  C   UNL     1       1.202  10.164  19.985  0.00  0.00    +0.000 A 
ENDROOT
BRANCH   1  14
ATOM      7  C   UNL     1       4.740   3.778  16.747  0.00  0.00    +0.000 C 
ATOM      8  C   UNL     1       3.948   4.471  17.817  0.00  0.00    +0.000 A 
ATOM      9  C   UNL     1       3.514   3.773  18.961  0.00  0.00    +0.000 A 
ATOM     10  C   UNL     1       2.766   4.389  19.985  0.00  0.00    +0.000 A 
ATOM     11  C   UNL     1       2.303   3.643  21.192  0.00  0.00    +0.000 C 
ATOM     12  C   UNL     1       2.492   5.738  19.767  0.00  0.00    +0.000 A 
ATOM     13  O   UNL     1       1.789   6.579  20.580  0.00  0.00    +0.000 OA
ATOM     14  C   UNL     1       1.795   7.772  19.908  0.00  0.00    +0.000 A 
ATOM     15  N   UNL     1       2.447   7.757  18.760  0.00  0.00    +0.000 NA
ATOM     16  C   UNL     1       2.894   6.464  18.659  0.00  0.00    +0.000 A 
ATOM     17  C   UNL     1       3.633   5.833  17.659  0.00  0.00    +0.000 A 
ENDBRANCH   1  14
BRANCH   4  18
ATOM     18  N   UNL     1      -1.087  12.082  22.166  0.00  0.00    +0.000 N 
ATOM     19  C   UNL     1      -1.910  12.956  21.506  0.00  0.00    +0.000 C 
ATOM     20  O   UNL     1      -2.470  13.838  22.164  0.00  0.00    +0.000 OA
ATOM     21  H   UNL     1      -0.799  12.446  23.066  0.00  0.00    +0.000 HD
BRANCH  19  22
ATOM     22  C   UNL     1      -2.047  12.904  19.984  0.00  0.00    +0.000 C 
BRANCH  22  23
ATOM     23  O   UNL     1      -3.240  12.207  19.647  0.00  0.00    +0.000 OA
BRANCH  23  24
ATOM     24  C   UNL     1      -3.278  11.505  18.470  0.00  0.00    +0.000 A 
ATOM     25  C   UNL     1      -2.112  10.747  18.250  0.00  0.00    +0.000 A 
ATOM     26  C   UNL     1      -1.932  10.017  17.072  0.00  0.00    +0.000 A 
ATOM     27  C   UNL     1      -2.920  10.047  16.106  0.00  0.00    +0.000 A 
ATOM     28  F   UNL     1      -2.754   9.371  14.961  0.00  0.00    +0.000 F 
ATOM     29  C   UNL     1      -4.078  10.790  16.298  0.00  0.00    +0.000 A 
ATOM     30  C   UNL     1      -4.272  11.544  17.474  0.00  0.00    +0.000 A 
ATOM     31  C   UNL     1      -5.524  12.367  17.545  0.00  0.00    +0.000 C 
ENDBRANCH  23  24
ENDBRANCH  22  23
ENDBRANCH  19  22
ENDBRANCH   4  18
TORSDOF 5
ENDMDL
MODEL 6
REMARK VINA RESULT:      -7.9      5.910      7.314
REMARK  Name = 
REMARK  8 active torsions:
REMARK  status: ('A' for Active; 'I' for Inactive)
REMARK    1  A    between atoms: C_1  and  C_2
REMARK    2  A    between atoms: C_4  and  C_5
REMARK    3  A    between atoms: C_8  and  C_9
REMARK    4  A    between atoms: C_12  and  N_13
REMARK    5  A    between atoms: C_14  and  C_16
REMARK    6  A    between atoms: C_16  and  O_17
REMARK    7  A    between atoms: O_17  and  C_18
REMARK    8  A    between atoms: C_24  and  C_25
REMARK                            x       y       z     vdW  Elec       q    Type
REMARK                         _______ _______ _______ _____ _____    ______ ____
ROOT
ATOM      1  C   UNL     1       8.474   8.882  18.483  0.00  0.00    +0.000 A 
ATOM      2  C   UNL     1       7.716   8.808  17.305  0.00  0.00    +0.000 A 
ATOM      3  C   UNL     1       7.152   7.598  16.897  0.00  0.00    +0.000 A 
ATOM      4  C   UNL     1       7.389   6.440  17.633  0.00  0.00    +0.000 A 
ATOM      5  C   UNL     1       8.125   6.501  18.816  0.00  0.00    +0.000 A 
ATOM      6  C   UNL     1       8.669   7.714  19.234  0.00  0.00    +0.000 A 
ENDROOT
BRANCH   1  14
ATOM      7  C   UNL     1      10.806  15.104  21.576  0.00  0.00    +0.000 C 
ATOM      8  C   UNL     1      10.541  14.016  20.576  0.00  0.00    +0.000 A 
ATOM      9  C   UNL     1      10.956  14.149  19.237  0.00  0.00    +0.000 A 
ATOM     10  C   UNL     1      10.723  13.150  18.269  0.00  0.00    +0.000 A 
ATOM     11  C   UNL     1      11.159  13.299  16.850  0.00  0.00    +0.000 C 
ATOM     12  C   UNL     1      10.047  12.030  18.750  0.00  0.00    +0.000 A 
ATOM     13  O   UNL     1       9.684  10.920  18.043  0.00  0.00    +0.000 OA
ATOM     14  C   UNL     1       9.039  10.137  18.965  0.00  0.00    +0.000 A 
ATOM     15  N   UNL     1       8.980  10.648  20.180  0.00  0.00    +0.000 NA
ATOM     16  C   UNL     1       9.617  11.856  20.054  0.00  0.00    +0.000 A 
ATOM     17  C   UNL     1       9.860  12.858  20.994  0.00  0.00    +0.000 A 
ENDBRANCH   1  14
BRANCH   4  18
ATOM     18  N   UNL     1       6.822   5.246  17.191  0.00  0.00    +0.000 N 
ATOM     19  C   UNL     1       5.528   4.832  17.367  0.00  0.00    +0.000 C 
ATOM     20  O   UNL     1       5.203   3.730  16.916  0.00  0.00    +0.000 OA
ATOM     21  H   UNL     1       7.437   4.470  16.975  0.00  0.00    +0.000 HD
BRANCH  19  22
ATOM     22  C   UNL     1       4.545   5.667  18.189  0.00  0.00    +0.000 C 
BRANCH  22  23
ATOM     23  O   UNL     1       3.223   5.205  17.943  0.00  0.00    +0.000 OA
BRANCH  23  24
ATOM     24  C   UNL     1       2.607   4.444  18.903  0.00  0.00    +0.000 A 
ATOM     25  C   UNL     1       2.520   5.100  20.146  0.00  0.00    +0.000 A 
ATOM     26  C   UNL     1       1.986   4.462  21.268  0.00  0.00    +0.000 A 
ATOM     27  C   UNL     1       1.539   3.159  21.151  0.00  0.00    +0.000 A 
ATOM     28  F   UNL     1       1.044   2.524  22.222  0.00  0.00    +0.000 F 
ATOM     29  C   UNL     1       1.617   2.489  19.936  0.00  0.00    +0.000 A 
ATOM     30  C   UNL     1       2.165   3.112  18.796  0.00  0.00    +0.000 A 
ATOM     31  C   UNL     1       2.268   2.272  17.557  0.00  0.00    +0.000 C 
ENDBRANCH  23  24
ENDBRANCH  22  23
ENDBRANCH  19  22
ENDBRANCH   4  18
TORSDOF 5
ENDMDL
MODEL 7
REMARK VINA RESULT:      -7.9      3.042      8.964
REMARK  Name = 
REMARK  8 active torsions:
REMARK  status: ('A' for Active; 'I' for Inactive)
REMARK    1  A    between atoms: C_1  and  C_2
REMARK    2  A    between atoms: C_4  and  C_5
REMARK    3  A    between atoms: C_8  and  C_9
REMARK    4  A    between atoms: C_12  and  N_13
REMARK    5  A    between atoms: C_14  and  C_16
REMARK    6  A    between atoms: C_16  and  O_17
REMARK    7  A    between atoms: O_17  and  C_18
REMARK    8  A    between atoms: C_24  and  C_25
REMARK                            x       y       z     vdW  Elec       q    Type
REMARK                         _______ _______ _______ _____ _____    ______ ____
ROOT
ATOM      1  C   UNL     1       0.932   8.836  20.856  0.00  0.00    +0.000 A 
ATOM      2  C   UNL     1       1.291  10.091  20.342  0.00  0.00    +0.000 A 
ATOM      3  C   UNL     1       0.700  11.256  20.834  0.00  0.00    +0.000 A 
ATOM      4  C   UNL     1      -0.295  11.172  21.804  0.00  0.00    +0.000 A 
ATOM      5  C   UNL     1      -0.649   9.933  22.340  0.00  0.00    +0.000 A 
ATOM      6  C   UNL     1      -0.042   8.773  21.862  0.00  0.00    +0.000 A 
ENDROOT
BRANCH   1  14
ATOM      7  C   UNL     1       3.905   2.314  19.323  0.00  0.00    +0.000 C 
ATOM      8  C   UNL     1       3.537   3.768  19.261  0.00  0.00    +0.000 A 
ATOM      9  C   UNL     1       4.091   4.612  18.278  0.00  0.00    +0.000 A 
ATOM     10  C   UNL     1       3.771   5.982  18.190  0.00  0.00    +0.000 A 
ATOM     11  C   UNL     1       4.366   6.873  17.151  0.00  0.00    +0.000 C 
ATOM     12  C   UNL     1       2.869   6.427  19.154  0.00  0.00    +0.000 A 
ATOM     13  O   UNL     1       2.389   7.695  19.312  0.00  0.00    +0.000 OA
ATOM     14  C   UNL     1       1.561   7.602  20.400  0.00  0.00    +0.000 A 
ATOM     15  N   UNL     1       1.471   6.394  20.925  0.00  0.00    +0.000 NA
ATOM     16  C   UNL     1       2.302   5.637  20.140  0.00  0.00    +0.000 A 
ATOM     17  C   UNL     1       2.633   4.284  20.208  0.00  0.00    +0.000 A 
ENDBRANCH   1  14
BRANCH   4  18
ATOM     18  N   UNL     1      -0.873  12.354  22.265  0.00  0.00    +0.000 N 
ATOM     19  C   UNL     1      -1.624  13.242  21.542  0.00  0.00    +0.000 C 
ATOM     20  O   UNL     1      -2.047  14.250  22.116  0.00  0.00    +0.000 OA
ATOM     21  H   UNL     1      -0.501  12.776  23.108  0.00  0.00    +0.000 HD
BRANCH  19  22
ATOM     22  C   UNL     1      -1.842  13.042  20.042  0.00  0.00    +0.000 C 
BRANCH  22  23
ATOM     23  O   UNL     1      -2.965  12.193  19.843  0.00  0.00    +0.000 OA
BRANCH  23  24
ATOM     24  C   UNL     1      -3.049  11.480  18.675  0.00  0.00    +0.000 A 
ATOM     25  C   UNL     1      -1.883  10.737  18.405  0.00  0.00    +0.000 A 
ATOM     26  C   UNL     1      -1.748  10.000  17.227  0.00  0.00    +0.000 A 
ATOM     27  C   UNL     1      -2.781  10.006  16.308  0.00  0.00    +0.000 A 
ATOM     28  F   UNL     1      -2.660   9.322  15.163  0.00  0.00    +0.000 F 
ATOM     29  C   UNL     1      -3.940  10.734  16.550  0.00  0.00    +0.000 A 
ATOM     30  C   UNL     1      -4.089  11.495  17.728  0.00  0.00    +0.000 A 
ATOM     31  C   UNL     1      -5.349  12.300  17.852  0.00  0.00    +0.000 C 
ENDBRANCH  23  24
ENDBRANCH  22  23
ENDBRANCH  19  22
ENDBRANCH   4  18
TORSDOF 5
ENDMDL
MODEL 8
REMARK VINA RESULT:      -7.9      3.134      9.235
REMARK  Name = 
REMARK  8 active torsions:
REMARK  status: ('A' for Active; 'I' for Inactive)
REMARK    1  A    between atoms: C_1  and  C_2
REMARK    2  A    between atoms: C_4  and  C_5
REMARK    3  A    between atoms: C_8  and  C_9
REMARK    4  A    between atoms: C_12  and  N_13
REMARK    5  A    between atoms: C_14  and  C_16
REMARK    6  A    between atoms: C_16  and  O_17
REMARK    7  A    between atoms: O_17  and  C_18
REMARK    8  A    between atoms: C_24  and  C_25
REMARK                            x       y       z     vdW  Elec       q    Type
REMARK                         _______ _______ _______ _____ _____    ______ ____
ROOT
ATOM      1  C   UNL     1       0.895   9.294  20.839  0.00  0.00    +0.000 A 
ATOM      2  C   UNL     1       1.014  10.612  20.373  0.00  0.00    +0.000 A 
ATOM      3  C   UNL     1       0.389  11.663  21.046  0.00  0.00    +0.000 A 
ATOM      4  C   UNL     1      -0.406  11.398  22.158  0.00  0.00    +0.000 A 
ATOM      5  C   UNL     1      -0.519  10.095  22.645  0.00  0.00    +0.000 A 
ATOM      6  C   UNL     1       0.124   9.050  21.984  0.00  0.00    +0.000 A 
ENDROOT
BRANCH   1  14
ATOM      7  C   UNL     1       4.245   4.131  16.858  0.00  0.00    +0.000 C 
ATOM      8  C   UNL     1       3.525   4.836  17.971  0.00  0.00    +0.000 A 
ATOM      9  C   UNL     1       3.125   4.139  19.128  0.00  0.00    +0.000 A 
ATOM     10  C   UNL     1       2.444   4.767  20.192  0.00  0.00    +0.000 A 
ATOM     11  C   UNL     1       2.017   4.022  21.413  0.00  0.00    +0.000 C 
ATOM     12  C   UNL     1       2.201   6.125  19.999  0.00  0.00    +0.000 A 
ATOM     13  O   UNL     1       1.561   6.978  20.851  0.00  0.00    +0.000 OA
ATOM     14  C   UNL     1       1.571   8.177  20.189  0.00  0.00    +0.000 A 
ATOM     15  N   UNL     1       2.168   8.154  19.012  0.00  0.00    +0.000 NA
ATOM     16  C   UNL     1       2.571   6.850  18.879  0.00  0.00    +0.000 A 
ATOM     17  C   UNL     1       3.243   6.208  17.839  0.00  0.00    +0.000 A 
ENDBRANCH   1  14
BRANCH   4  18
ATOM     18  N   UNL     1      -1.026  12.469  22.801  0.00  0.00    +0.000 N 
ATOM     19  C   UNL     1      -2.313  12.903  22.625  0.00  0.00    +0.000 C 
ATOM     20  O   UNL     1      -2.691  13.883  23.274  0.00  0.00    +0.000 OA
ATOM     21  H   UNL     1      -0.443  13.184  23.219  0.00  0.00    +0.000 HD
BRANCH  19  22
ATOM     22  C   UNL     1      -3.220  12.257  21.577  0.00  0.00    +0.000 C 
BRANCH  22  23
ATOM     23  O   UNL     1      -2.858  12.735  20.288  0.00  0.00    +0.000 OA
BRANCH  23  24
ATOM     24  C   UNL     1      -3.140  11.954  19.197  0.00  0.00    +0.000 A 
ATOM     25  C   UNL     1      -2.001  11.305  18.683  0.00  0.00    +0.000 A 
ATOM     26  C   UNL     1      -2.072  10.517  17.531  0.00  0.00    +0.000 A 
ATOM     27  C   UNL     1      -3.286  10.379  16.885  0.00  0.00    +0.000 A 
ATOM     28  F   UNL     1      -3.368   9.646  15.767  0.00  0.00    +0.000 F 
ATOM     29  C   UNL     1      -4.424  11.012  17.372  0.00  0.00    +0.000 A 
ATOM     30  C   UNL     1      -4.369  11.822  18.525  0.00  0.00    +0.000 A 
ATOM     31  C   UNL     1      -5.639  12.515  18.918  0.00  0.00    +0.000 C 
ENDBRANCH  23  24
ENDBRANCH  22  23
ENDBRANCH  19  22
ENDBRANCH   4  18
TORSDOF 5
ENDMDL
MODEL 9
REMARK VINA RESULT:      -7.9      3.186      9.164
REMARK  Name = 
REMARK  8 active torsions:
REMARK  status: ('A' for Active; 'I' for Inactive)
REMARK    1  A    between atoms: C_1  and  C_2
REMARK    2  A    between atoms: C_4  and  C_5
REMARK    3  A    between atoms: C_8  and  C_9
REMARK    4  A    between atoms: C_12  and  N_13
REMARK    5  A    between atoms: C_14  and  C_16
REMARK    6  A    between atoms: C_16  and  O_17
REMARK    7  A    between atoms: O_17  and  C_18
REMARK    8  A    between atoms: C_24  and  C_25
REMARK                            x       y       z     vdW  Elec       q    Type
REMARK                         _______ _______ _______ _____ _____    ______ ____
ROOT
ATOM      1  C   UNL     1       1.240   8.966  19.980  0.00  0.00    +0.000 A 
ATOM      2  C   UNL     1       1.211  10.305  19.562  0.00  0.00    +0.000 A 
ATOM      3  C   UNL     1       0.430  11.244  20.239  0.00  0.00    +0.000 A 
ATOM      4  C   UNL     1      -0.371  10.841  21.304  0.00  0.00    +0.000 A 
ATOM      5  C   UNL     1      -0.339   9.517  21.743  0.00  0.00    +0.000 A 
ATOM      6  C   UNL     1       0.458   8.585  21.080  0.00  0.00    +0.000 A 
ENDROOT
BRANCH   1  14
ATOM      7  C   UNL     1       5.429   4.443  16.016  0.00  0.00    +0.000 C 
ATOM      8  C   UNL     1       4.544   4.993  17.097  0.00  0.00    +0.000 A 
ATOM      9  C   UNL     1       4.108   4.178  18.159  0.00  0.00    +0.000 A 
ATOM     10  C   UNL     1       3.275   4.659  19.190  0.00  0.00    +0.000 A 
ATOM     11  C   UNL     1       2.811   3.789  20.310  0.00  0.00    +0.000 C 
ATOM     12  C   UNL     1       2.919   6.000  19.064  0.00  0.00    +0.000 A 
ATOM     13  O   UNL     1       2.124   6.725  19.904  0.00  0.00    +0.000 OA
ATOM     14  C   UNL     1       2.078   7.967  19.328  0.00  0.00    +0.000 A 
ATOM     15  N   UNL     1       2.781   8.087  18.217  0.00  0.00    +0.000 NA
ATOM     16  C   UNL     1       3.320   6.839  18.038  0.00  0.00    +0.000 A 
ATOM     17  C   UNL     1       4.144   6.341  17.029  0.00  0.00    +0.000 A 
ENDBRANCH   1  14
BRANCH   4  18
ATOM     18  N   UNL     1      -1.148  11.801  21.950  0.00  0.00    +0.000 N 
ATOM     19  C   UNL     1      -2.049  12.657  21.374  0.00  0.00    +0.000 C 
ATOM     20  O   UNL     1      -2.641  13.457  22.105  0.00  0.00    +0.000 OA
ATOM     21  H   UNL     1      -0.853  12.126  22.863  0.00  0.00    +0.000 HD
BRANCH  19  22
ATOM     22  C   UNL     1      -2.235  12.692  19.857  0.00  0.00    +0.000 C 
BRANCH  22  23
ATOM     23  O   UNL     1      -3.306  11.827  19.500  0.00  0.00    +0.000 OA
BRANCH  23  24
ATOM     24  C   UNL     1      -3.315  11.282  18.242  0.00  0.00    +0.000 A 
ATOM     25  C   UNL     1      -2.164  10.519  17.970  0.00  0.00    +0.000 A 
ATOM     26  C   UNL     1      -1.956   9.939  16.716  0.00  0.00    +0.000 A 
ATOM     27  C   UNL     1      -2.901  10.124  15.725  0.00  0.00    +0.000 A 
ATOM     28  F   UNL     1      -2.708   9.594  14.510  0.00  0.00    +0.000 F 
ATOM     29  C   UNL     1      -4.045  10.876  15.968  0.00  0.00    +0.000 A 
ATOM     30  C   UNL     1      -4.265  11.481  17.222  0.00  0.00    +0.000 A 
ATOM     31  C   UNL     1      -5.495  12.330  17.351  0.00  0.00    +0.000 C 
ENDBRANCH  23  24
ENDBRANCH  22  23
ENDBRANCH  19  22
ENDBRANCH   4  18
TORSDOF 5
ENDMDL
