MODEL 1
REMARK VINA RESULT:      -8.0      0.000      0.000
REMARK  Name = 
REMARK  4 active torsions:
REMARK  status: ('A' for Active; 'I' for Inactive)
REMARK    1  A    between atoms: C_1  and  C_2
REMARK    2  A    between atoms: C_5  and  C_6
REMARK    3  A    between atoms: C_6  and  C_8
REMARK    4  A    between atoms: C_8  and  N_9
REMARK                            x       y       z     vdW  Elec       q    Type
REMARK                         _______ _______ _______ _____ _____    ______ ____
ROOT
ATOM      1  N   UNL     1       4.363   4.789  18.206  0.00  0.00    +0.000 N 
ATOM      2  C   UNL     1       5.308   4.116  18.977  0.00  0.00    +0.000 C 
ATOM      3  O   UNL     1       6.471   4.396  19.163  0.00  0.00    +0.000 OA
ATOM      4  C   UNL     1       4.568   2.931  19.621  0.00  0.00    +0.000 C 
ATOM      5  O   UNL     1       5.026   2.112  20.386  0.00  0.00    +0.000 OA
ATOM      6  C   UNL     1       3.195   3.022  19.145  0.00  0.00    +0.000 A 
ATOM      7  C   UNL     1       2.135   2.190  19.454  0.00  0.00    +0.000 A 
ATOM      8  C   UNL     1       0.909   2.482  18.857  0.00  0.00    +0.000 A 
ATOM      9  C   UNL     1       0.791   3.605  18.009  0.00  0.00    +0.000 A 
ATOM     10  C   UNL     1       1.885   4.452  17.739  0.00  0.00    +0.000 A 
ATOM     11  C   UNL     1       3.108   4.144  18.310  0.00  0.00    +0.000 A 
ENDROOT
BRANCH   1  12
ATOM     12  C   UNL     1       4.641   6.122  17.706  0.00  0.00    +0.000 C 
BRANCH  12  13
ATOM     13  C   UNL     1       5.753   6.334  16.685  0.00  0.00    +0.000 C 
ATOM     14  O   UNL     1       6.547   7.269  16.832  0.00  0.00    +0.000 OA
BRANCH  13  19
ATOM     15  C   UNL     1       6.597   3.146  11.870  0.00  0.00    +0.000 C 
ATOM     16  C   UNL     1       6.391   3.889  13.160  0.00  0.00    +0.000 A 
ATOM     17  C   UNL     1       7.384   4.731  13.661  0.00  0.00    +0.000 A 
ATOM     18  C   UNL     1       7.160   5.478  14.822  0.00  0.00    +0.000 A 
ATOM     19  C   UNL     1       5.937   5.409  15.512  0.00  0.00    +0.000 A 
ATOM     20  C   UNL     1       4.963   4.519  15.048  0.00  0.00    +0.000 A 
ATOM     21  C   UNL     1       5.190   3.770  13.877  0.00  0.00    +0.000 A 
ENDBRANCH  13  19
ENDBRANCH  12  13
ENDBRANCH   1  12
TORSDOF 3
ENDMDL
MODEL 2
REMARK VINA RESULT:      -7.8      2.470      6.148
REMARK  Name = 
REMARK  4 active torsions:
REMARK  status: ('A' for Active; 'I' for Inactive)
REMARK    1  A    between atoms: C_1  and  C_2
REMARK    2  A    between atoms: C_5  and  C_6
REMARK    3  A    between atoms: C_6  and  C_8
REMARK    4  A    between atoms: C_8  and  N_9
REMARK                            x       y       z     vdW  Elec       q    Type
REMARK                         _______ _______ _______ _____ _____    ______ ____
ROOT
ATOM      1  N   UNL     1       4.740   3.977  17.493  0.00  0.00    +0.000 N 
ATOM      2  C   UNL     1       5.635   4.193  18.538  0.00  0.00    +0.000 C 
ATOM      3  O   UNL     1       5.456   4.055  19.728  0.00  0.00    +0.000 OA
ATOM      4  C   UNL     1       6.964   4.608  17.884  0.00  0.00    +0.000 C 
ATOM      5  O   UNL     1       8.006   4.862  18.444  0.00  0.00    +0.000 OA
ATOM      6  C   UNL     1       6.714   4.596  16.449  0.00  0.00    +0.000 A 
ATOM      7  C   UNL     1       7.605   4.884  15.432  0.00  0.00    +0.000 A 
ATOM      8  C   UNL     1       7.117   4.813  14.128  0.00  0.00    +0.000 A 
ATOM      9  C   UNL     1       5.778   4.428  13.898  0.00  0.00    +0.000 A 
ATOM     10  C   UNL     1       4.903   4.111  14.958  0.00  0.00    +0.000 A 
ATOM     11  C   UNL     1       5.381   4.209  16.253  0.00  0.00    +0.000 A 
ENDROOT
BRANCH   1  12
ATOM     12  C   UNL     1       3.488   3.283  17.732  0.00  0.00    +0.000 C 
BRANCH  12  13
ATOM     13  C   UNL     1       2.195   4.077  17.877  0.00  0.00    +0.000 C 
ATOM     14  O   UNL     1       1.168   3.680  17.318  0.00  0.00    +0.000 OA
BRANCH  13  19
ATOM     15  C   UNL     1       1.453   8.772  21.265  0.00  0.00    +0.000 C 
ATOM     16  C   UNL     1       1.736   7.575  20.400  0.00  0.00    +0.000 A 
ATOM     17  C   UNL     1       1.543   6.283  20.891  0.00  0.00    +0.000 A 
ATOM     18  C   UNL     1       1.736   5.175  20.060  0.00  0.00    +0.000 A 
ATOM     19  C   UNL     1       2.123   5.324  18.717  0.00  0.00    +0.000 A 
ATOM     20  C   UNL     1       2.378   6.615  18.241  0.00  0.00    +0.000 A 
ATOM     21  C   UNL     1       2.181   7.730  19.078  0.00  0.00    +0.000 A 
ENDBRANCH  13  19
ENDBRANCH  12  13
ENDBRANCH   1  12
TORSDOF 3
ENDMDL
MODEL 3
REMARK VINA RESULT:      -7.8      2.471      3.883
REMARK  Name = 
REMARK  4 active torsions:
REMARK  status: ('A' for Active; 'I' for Inactive)
REMARK    1  A    between atoms: C_1  and  C_2
REMARK    2  A    between atoms: C_5  and  C_6
REMARK    3  A    between atoms: C_6  and  C_8
REMARK    4  A    between atoms: C_8  and  N_9
REMARK                            x       y       z     vdW  Elec       q    Type
REMARK                         _______ _______ _______ _____ _____    ______ ____
ROOT
ATOM      1  N   UNL     1       3.280   3.936  17.732  0.00  0.00    +0.000 N 
ATOM      2  C   UNL     1       3.308   2.811  18.554  0.00  0.00    +0.000 C 
ATOM      3  O   UNL     1       3.648   1.682  18.280  0.00  0.00    +0.000 OA
ATOM      4  C   UNL     1       2.857   3.288  19.946  0.00  0.00    +0.000 C 
ATOM      5  O   UNL     1       2.768   2.623  20.952  0.00  0.00    +0.000 OA
ATOM      6  C   UNL     1       2.595   4.714  19.805  0.00  0.00    +0.000 A 
ATOM      7  C   UNL     1       2.179   5.599  20.782  0.00  0.00    +0.000 A 
ATOM      8  C   UNL     1       1.986   6.923  20.392  0.00  0.00    +0.000 A 
ATOM      9  C   UNL     1       2.246   7.308  19.058  0.00  0.00    +0.000 A 
ATOM     10  C   UNL     1       2.700   6.386  18.093  0.00  0.00    +0.000 A 
ATOM     11  C   UNL     1       2.864   5.066  18.475  0.00  0.00    +0.000 A 
ENDROOT
BRANCH   1  12
ATOM     12  C   UNL     1       3.934   3.912  16.437  0.00  0.00    +0.000 C 
BRANCH  12  13
ATOM     13  C   UNL     1       5.452   4.027  16.351  0.00  0.00    +0.000 C 
ATOM     14  O   UNL     1       6.089   3.213  15.675  0.00  0.00    +0.000 OA
BRANCH  13  19
ATOM     15  C   UNL     1       8.528   8.459  18.578  0.00  0.00    +0.000 C 
ATOM     16  C   UNL     1       7.683   7.320  18.081  0.00  0.00    +0.000 A 
ATOM     17  C   UNL     1       6.764   7.515  17.049  0.00  0.00    +0.000 A 
ATOM     18  C   UNL     1       6.033   6.437  16.539  0.00  0.00    +0.000 A 
ATOM     19  C   UNL     1       6.201   5.135  17.041  0.00  0.00    +0.000 A 
ATOM     20  C   UNL     1       7.075   4.948  18.117  0.00  0.00    +0.000 A 
ATOM     21  C   UNL     1       7.812   6.034  18.628  0.00  0.00    +0.000 A 
ENDBRANCH  13  19
ENDBRANCH  12  13
ENDBRANCH   1  12
TORSDOF 3
ENDMDL
MODEL 4
REMARK VINA RESULT:      -7.7      4.472      7.036
REMARK  Name = 
REMARK  4 active torsions:
REMARK  status: ('A' for Active; 'I' for Inactive)
REMARK    1  A    between atoms: C_1  and  C_2
REMARK    2  A    between atoms: C_5  and  C_6
REMARK    3  A    between atoms: C_6  and  C_8
REMARK    4  A    between atoms: C_8  and  N_9
REMARK                            x       y       z     vdW  Elec       q    Type
REMARK                         _______ _______ _______ _____ _____    ______ ____
ROOT
ATOM      1  N   UNL     1       2.810   5.901  18.613  0.00  0.00    +0.000 N 
ATOM      2  C   UNL     1       3.803   5.822  17.638  0.00  0.00    +0.000 C 
ATOM      3  O   UNL     1       4.540   6.695  17.237  0.00  0.00    +0.000 OA
ATOM      4  C   UNL     1       3.835   4.355  17.178  0.00  0.00    +0.000 C 
ATOM      5  O   UNL     1       4.576   3.862  16.359  0.00  0.00    +0.000 OA
ATOM      6  C   UNL     1       2.810   3.677  17.960  0.00  0.00    +0.000 A 
ATOM      7  C   UNL     1       2.462   2.339  17.922  0.00  0.00    +0.000 A 
ATOM      8  C   UNL     1       1.432   1.932  18.769  0.00  0.00    +0.000 A 
ATOM      9  C   UNL     1       0.821   2.867  19.633  0.00  0.00    +0.000 A 
ATOM     10  C   UNL     1       1.222   4.218  19.670  0.00  0.00    +0.000 A 
ATOM     11  C   UNL     1       2.225   4.627  18.809  0.00  0.00    +0.000 A 
ENDROOT
BRANCH   1  12
ATOM     12  C   UNL     1       2.720   7.065  19.474  0.00  0.00    +0.000 C 
BRANCH  12  13
ATOM     13  C   UNL     1       1.855   8.250  19.060  0.00  0.00    +0.000 C 
ATOM     14  O   UNL     1       1.750   8.542  17.865  0.00  0.00    +0.000 OA
BRANCH  13  19
ATOM     15  C   UNL     1      -1.311  10.965  23.144  0.00  0.00    +0.000 C 
ATOM     16  C   UNL     1      -0.439  10.340  22.091  0.00  0.00    +0.000 A 
ATOM     17  C   UNL     1       0.423   9.291  22.413  0.00  0.00    +0.000 A 
ATOM     18  C   UNL     1       1.177   8.662  21.416  0.00  0.00    +0.000 A 
ATOM     19  C   UNL     1       1.089   9.061  20.071  0.00  0.00    +0.000 A 
ATOM     20  C   UNL     1       0.274  10.153  19.756  0.00  0.00    +0.000 A 
ATOM     21  C   UNL     1      -0.487  10.782  20.760  0.00  0.00    +0.000 A 
ENDBRANCH  13  19
ENDBRANCH  12  13
ENDBRANCH   1  12
TORSDOF 3
ENDMDL
MODEL 5
REMARK VINA RESULT:      -7.7      2.698      6.303
REMARK  Name = 
REMARK  4 active torsions:
REMARK  status: ('A' for Active; 'I' for Inactive)
REMARK    1  A    between atoms: C_1  and  C_2
REMARK    2  A    between atoms: C_5  and  C_6
REMARK    3  A    between atoms: C_6  and  C_8
REMARK    4  A    between atoms: C_8  and  N_9
REMARK                            x       y       z     vdW  Elec       q    Type
REMARK                         _______ _______ _______ _____ _____    ______ ____
ROOT
ATOM      1  N   UNL     1       5.320   3.880  16.985  0.00  0.00    +0.000 N 
ATOM      2  C   UNL     1       5.542   4.060  15.622  0.00  0.00    +0.000 C 
ATOM      3  O   UNL     1       5.005   3.506  14.689  0.00  0.00    +0.000 OA
ATOM      4  C   UNL     1       6.600   5.171  15.504  0.00  0.00    +0.000 C 
ATOM      5  O   UNL     1       7.052   5.644  14.487  0.00  0.00    +0.000 OA
ATOM      6  C   UNL     1       6.915   5.558  16.872  0.00  0.00    +0.000 A 
ATOM      7  C   UNL     1       7.802   6.531  17.294  0.00  0.00    +0.000 A 
ATOM      8  C   UNL     1       7.937   6.706  18.671  0.00  0.00    +0.000 A 
ATOM      9  C   UNL     1       7.160   5.928  19.558  0.00  0.00    +0.000 A 
ATOM     10  C   UNL     1       6.241   4.965  19.094  0.00  0.00    +0.000 A 
ATOM     11  C   UNL     1       6.129   4.773  17.728  0.00  0.00    +0.000 A 
ENDROOT
BRANCH   1  12
ATOM     12  C   UNL     1       4.168   3.128  17.446  0.00  0.00    +0.000 C 
BRANCH  12  13
ATOM     13  C   UNL     1       2.804   3.805  17.530  0.00  0.00    +0.000 C 
ATOM     14  O   UNL     1       1.854   3.346  16.889  0.00  0.00    +0.000 OA
BRANCH  13  19
ATOM     15  C   UNL     1       1.440   8.280  21.020  0.00  0.00    +0.000 C 
ATOM     16  C   UNL     1       1.881   7.147  20.136  0.00  0.00    +0.000 A 
ATOM     17  C   UNL     1       1.766   5.824  20.567  0.00  0.00    +0.000 A 
ATOM     18  C   UNL     1       2.107   4.770  19.713  0.00  0.00    +0.000 A 
ATOM     19  C   UNL     1       2.570   5.006  18.407  0.00  0.00    +0.000 A 
ATOM     20  C   UNL     1       2.746   6.331  17.995  0.00  0.00    +0.000 A 
ATOM     21  C   UNL     1       2.399   7.391  18.855  0.00  0.00    +0.000 A 
ENDBRANCH  13  19
ENDBRANCH  12  13
ENDBRANCH   1  12
TORSDOF 3
ENDMDL
MODEL 6
REMARK VINA RESULT:      -7.7      0.171      1.060
REMARK  Name = 
REMARK  4 active torsions:
REMARK  status: ('A' for Active; 'I' for Inactive)
REMARK    1  A    between atoms: C_1  and  C_2
REMARK    2  A    between atoms: C_5  and  C_6
REMARK    3  A    between atoms: C_6  and  C_8
REMARK    4  A    between atoms: C_8  and  N_9
REMARK                            x       y       z     vdW  Elec       q    Type
REMARK                         _______ _______ _______ _____ _____    ______ ____
ROOT
ATOM      1  N   UNL     1       4.402   4.775  18.153  0.00  0.00    +0.000 N 
ATOM      2  C   UNL     1       5.343   4.106  18.934  0.00  0.00    +0.000 C 
ATOM      3  O   UNL     1       6.507   4.382  19.117  0.00  0.00    +0.000 OA
ATOM      4  C   UNL     1       4.596   2.933  19.591  0.00  0.00    +0.000 C 
ATOM      5  O   UNL     1       5.049   2.121  20.365  0.00  0.00    +0.000 OA
ATOM      6  C   UNL     1       3.223   3.025  19.113  0.00  0.00    +0.000 A 
ATOM      7  C   UNL     1       2.159   2.203  19.430  0.00  0.00    +0.000 A 
ATOM      8  C   UNL     1       0.935   2.495  18.828  0.00  0.00    +0.000 A 
ATOM      9  C   UNL     1       0.824   3.608  17.967  0.00  0.00    +0.000 A 
ATOM     10  C   UNL     1       1.923   4.446  17.688  0.00  0.00    +0.000 A 
ATOM     11  C   UNL     1       3.143   4.139  18.264  0.00  0.00    +0.000 A 
ENDROOT
BRANCH   1  12
ATOM     12  C   UNL     1       4.688   6.101  17.639  0.00  0.00    +0.000 C 
BRANCH  12  13
ATOM     13  C   UNL     1       5.867   6.312  16.695  0.00  0.00    +0.000 C 
ATOM     14  O   UNL     1       6.738   7.138  16.982  0.00  0.00    +0.000 OA
BRANCH  13  19
ATOM     15  C   UNL     1       6.304   2.806  12.050  0.00  0.00    +0.000 C 
ATOM     16  C   UNL     1       6.188   3.781  13.188  0.00  0.00    +0.000 A 
ATOM     17  C   UNL     1       4.999   3.889  13.910  0.00  0.00    +0.000 A 
ATOM     18  C   UNL     1       4.918   4.744  15.015  0.00  0.00    +0.000 A 
ATOM     19  C   UNL     1       6.021   5.510  15.431  0.00  0.00    +0.000 A 
ATOM     20  C   UNL     1       7.194   5.450  14.670  0.00  0.00    +0.000 A 
ATOM     21  C   UNL     1       7.274   4.587  13.560  0.00  0.00    +0.000 A 
ENDBRANCH  13  19
ENDBRANCH  12  13
ENDBRANCH   1  12
TORSDOF 3
ENDMDL
MODEL 7
REMARK VINA RESULT:      -7.7      4.433      7.013
REMARK  Name = 
REMARK  4 active torsions:
REMARK  status: ('A' for Active; 'I' for Inactive)
REMARK    1  A    between atoms: C_1  and  C_2
REMARK    2  A    between atoms: C_5  and  C_6
REMARK    3  A    between atoms: C_6  and  C_8
REMARK    4  A    between atoms: C_8  and  N_9
REMARK                            x       y       z     vdW  Elec       q    Type
REMARK                         _______ _______ _______ _____ _____    ______ ____
ROOT
ATOM      1  N   UNL     1       2.914   5.925  18.529  0.00  0.00    +0.000 N 
ATOM      2  C   UNL     1       3.902   5.814  17.553  0.00  0.00    +0.000 C 
ATOM      3  O   UNL     1       4.658   6.665  17.142  0.00  0.00    +0.000 OA
ATOM      4  C   UNL     1       3.897   4.342  17.106  0.00  0.00    +0.000 C 
ATOM      5  O   UNL     1       4.624   3.824  16.289  0.00  0.00    +0.000 OA
ATOM      6  C   UNL     1       2.859   3.695  17.897  0.00  0.00    +0.000 A 
ATOM      7  C   UNL     1       2.478   2.367  17.872  0.00  0.00    +0.000 A 
ATOM      8  C   UNL     1       1.441   1.992  18.725  0.00  0.00    +0.000 A 
ATOM      9  C   UNL     1       0.856   2.949  19.583  0.00  0.00    +0.000 A 
ATOM     10  C   UNL     1       1.289   4.291  19.606  0.00  0.00    +0.000 A 
ATOM     11  C   UNL     1       2.299   4.667  18.739  0.00  0.00    +0.000 A 
ENDROOT
BRANCH   1  12
ATOM     12  C   UNL     1       2.855   7.098  19.380  0.00  0.00    +0.000 C 
BRANCH  12  13
ATOM     13  C   UNL     1       1.887   8.229  19.048  0.00  0.00    +0.000 C 
ATOM     14  O   UNL     1       1.771   8.610  17.880  0.00  0.00    +0.000 OA
BRANCH  13  19
ATOM     15  C   UNL     1      -1.215  11.177  23.017  0.00  0.00    +0.000 C 
ATOM     16  C   UNL     1      -0.479  10.350  22.000  0.00  0.00    +0.000 A 
ATOM     17  C   UNL     1      -0.497  10.704  20.651  0.00  0.00    +0.000 A 
ATOM     18  C   UNL     1       0.249   9.975  19.718  0.00  0.00    +0.000 A 
ATOM     19  C   UNL     1       1.035   8.877  20.107  0.00  0.00    +0.000 A 
ATOM     20  C   UNL     1       1.004   8.481  21.448  0.00  0.00    +0.000 A 
ATOM     21  C   UNL     1       0.255   9.218  22.386  0.00  0.00    +0.000 A 
ENDBRANCH  13  19
ENDBRANCH  12  13
ENDBRANCH   1  12
TORSDOF 3
ENDMDL
MODEL 8
REMARK VINA RESULT:      -7.7      2.453      4.820
REMARK  Name = 
REMARK  4 active torsions:
REMARK  status: ('A' for Active; 'I' for Inactive)
REMARK    1  A    between atoms: C_1  and  C_2
REMARK    2  A    between atoms: C_5  and  C_6
REMARK    3  A    between atoms: C_6  and  C_8
REMARK    4  A    between atoms: C_8  and  N_9
REMARK                            x       y       z     vdW  Elec       q    Type
REMARK                         _______ _______ _______ _____ _____    ______ ____
ROOT
ATOM      1  N   UNL     1       4.031   4.221  17.839  0.00  0.00    +0.000 N 
ATOM      2  C   UNL     1       5.095   3.752  18.607  0.00  0.00    +0.000 C 
ATOM      3  O   UNL     1       6.272   4.018  18.510  0.00  0.00    +0.000 OA
ATOM      4  C   UNL     1       4.478   2.837  19.678  0.00  0.00    +0.000 C 
ATOM      5  O   UNL     1       5.060   2.249  20.561  0.00  0.00    +0.000 OA
ATOM      6  C   UNL     1       3.043   2.854  19.428  0.00  0.00    +0.000 A 
ATOM      7  C   UNL     1       2.053   2.196  20.133  0.00  0.00    +0.000 A 
ATOM      8  C   UNL     1       0.743   2.365  19.686  0.00  0.00    +0.000 A 
ATOM      9  C   UNL     1       0.480   3.203  18.580  0.00  0.00    +0.000 A 
ATOM     10  C   UNL     1       1.511   3.885  17.902  0.00  0.00    +0.000 A 
ATOM     11  C   UNL     1       2.813   3.694  18.330  0.00  0.00    +0.000 A 
ENDROOT
BRANCH   1  12
ATOM     12  C   UNL     1       4.218   5.342  16.937  0.00  0.00    +0.000 C 
BRANCH  12  13
ATOM     13  C   UNL     1       4.347   6.755  17.497  0.00  0.00    +0.000 C 
ATOM     14  O   UNL     1       5.395   7.384  17.331  0.00  0.00    +0.000 OA
BRANCH  13  19
ATOM     15  C   UNL     1       0.178   9.782  20.240  0.00  0.00    +0.000 C 
ATOM     16  C   UNL     1       1.189   8.935  19.519  0.00  0.00    +0.000 A 
ATOM     17  C   UNL     1       1.605   9.269  18.229  0.00  0.00    +0.000 A 
ATOM     18  C   UNL     1       2.600   8.522  17.591  0.00  0.00    +0.000 A 
ATOM     19  C   UNL     1       3.210   7.424  18.222  0.00  0.00    +0.000 A 
ATOM     20  C   UNL     1       2.751   7.049  19.489  0.00  0.00    +0.000 A 
ATOM     21  C   UNL     1       1.751   7.805  20.132  0.00  0.00    +0.000 A 
ENDBRANCH  13  19
ENDBRANCH  12  13
ENDBRANCH   1  12
TORSDOF 3
ENDMDL
MODEL 9
REMARK VINA RESULT:      -7.6      3.904      6.534
REMARK  Name = 
REMARK  4 active torsions:
REMARK  status: ('A' for Active; 'I' for Inactive)
REMARK    1  A    between atoms: C_1  and  C_2
REMARK    2  A    between atoms: C_5  and  C_6
REMARK    3  A    between atoms: C_6  and  C_8
REMARK    4  A    between atoms: C_8  and  N_9
REMARK                            x       y       z     vdW  Elec       q    Type
REMARK                         _______ _______ _______ _____ _____    ______ ____
ROOT
ATOM      1  N   UNL     1       3.729   6.265  17.557  0.00  0.00    +0.000 N 
ATOM      2  C   UNL     1       4.776   5.973  16.686  0.00  0.00    +0.000 C 
ATOM      3  O   UNL     1       5.611   6.721  16.228  0.00  0.00    +0.000 OA
ATOM      4  C   UNL     1       4.714   4.456  16.437  0.00  0.00    +0.000 C 
ATOM      5  O   UNL     1       5.466   3.796  15.756  0.00  0.00    +0.000 OA
ATOM      6  C   UNL     1       3.584   3.976  17.221  0.00  0.00    +0.000 A 
ATOM      7  C   UNL     1       3.126   2.678  17.340  0.00  0.00    +0.000 A 
ATOM      8  C   UNL     1       2.009   2.475  18.149  0.00  0.00    +0.000 A 
ATOM      9  C   UNL     1       1.422   3.568  18.824  0.00  0.00    +0.000 A 
ATOM     10  C   UNL     1       1.933   4.877  18.705  0.00  0.00    +0.000 A 
ATOM     11  C   UNL     1       3.025   5.081  17.880  0.00  0.00    +0.000 A 
ENDROOT
BRANCH   1  12
ATOM     12  C   UNL     1       3.680   7.545  18.238  0.00  0.00    +0.000 C 
BRANCH  12  13
ATOM     13  C   UNL     1       2.414   8.392  18.172  0.00  0.00    +0.000 C 
ATOM     14  O   UNL     1       2.034   8.839  17.085  0.00  0.00    +0.000 OA
BRANCH  13  19
ATOM     15  C   UNL     1      -0.636   9.958  22.895  0.00  0.00    +0.000 C 
ATOM     16  C   UNL     1       0.092   9.483  21.669  0.00  0.00    +0.000 A 
ATOM     17  C   UNL     1      -0.036  10.166  20.459  0.00  0.00    +0.000 A 
ATOM     18  C   UNL     1       0.701   9.765  19.339  0.00  0.00    +0.000 A 
ATOM     19  C   UNL     1       1.586   8.674  19.397  0.00  0.00    +0.000 A 
ATOM     20  C   UNL     1       1.668   7.950  20.590  0.00  0.00    +0.000 A 
ATOM     21  C   UNL     1       0.928   8.357  21.717  0.00  0.00    +0.000 A 
ENDBRANCH  13  19
ENDBRANCH  12  13
ENDBRANCH   1  12
TORSDOF 3
ENDMDL
