MODEL 1
REMARK VINA RESULT:      -7.1      0.000      0.000
REMARK  Name = 
REMARK  6 active torsions:
REMARK  status: ('A' for Active; 'I' for Inactive)
REMARK    1  A    between atoms: N_1  and  C_2
REMARK    2  A    between atoms: C_5  and  S_6
REMARK    3  A    between atoms: S_6  and  C_7
REMARK    4  A    between atoms: C_10  and  N_11
REMARK    5  A    between atoms: C_15  and  C_16
REMARK    6  A    between atoms: C_22  and  C_23
REMARK                            x       y       z     vdW  Elec       q    Type
REMARK                         _______ _______ _______ _____ _____    ______ ____
ROOT
ATOM      1  S   UNL     1      -0.268  11.469  19.458  0.00  0.00    +0.000 S 
ATOM      2  C   UNL     1       0.614  12.551  18.464  0.00  0.00    +0.000 C 
ATOM      3  C   UNL     1       0.982  13.616  19.203  0.00  0.00    +0.000 C 
ATOM      4  C   UNL     1       0.525  13.540  20.594  0.00  0.00    +0.000 C 
ATOM      5  C   UNL     1      -0.166  12.422  20.873  0.00  0.00    +0.000 C 
ENDROOT
BRANCH   1   9
ATOM      6  C   UNL     1       2.025   7.609  20.072  0.00  0.00    +0.000 A 
ATOM      7  C   UNL     1       1.271   8.165  21.109  0.00  0.00    +0.000 A 
ATOM      8  C   UNL     1       0.589   9.372  20.933  0.00  0.00    +0.000 A 
ATOM      9  C   UNL     1       0.616   9.998  19.692  0.00  0.00    +0.000 A 
ATOM     10  C   UNL     1       1.336   9.445  18.637  0.00  0.00    +0.000 A 
ATOM     11  C   UNL     1       2.020   8.240  18.825  0.00  0.00    +0.000 A 
BRANCH   6  12
ATOM     12  N   UNL     1       2.578   6.331  20.213  0.00  0.00    +0.000 N 
ATOM     13  H   UNL     1       2.158   5.634  19.605  0.00  0.00    +0.000 HD
ATOM     14  H   UNL     1       2.646   6.016  21.174  0.00  0.00    +0.000 HD
ENDBRANCH   6  12
ENDBRANCH   1   9
BRANCH   1  15
ATOM     15  C   UNL     1      -1.907  11.362  18.939  0.00  0.00    +0.000 A 
ATOM     16  C   UNL     1      -2.249  10.447  17.950  0.00  0.00    +0.000 A 
ATOM     17  C   UNL     1      -3.579  10.337  17.543  0.00  0.00    +0.000 A 
ATOM     18  C   UNL     1      -4.577  11.111  18.144  0.00  0.00    +0.000 A 
ATOM     19  C   UNL     1      -4.207  12.075  19.082  0.00  0.00    +0.000 A 
ATOM     20  C   UNL     1      -2.877  12.190  19.501  0.00  0.00    +0.000 A 
BRANCH  18  21
ATOM     21  N   UNL     1      -5.885  11.075  17.645  0.00  0.00    +0.000 N 
ATOM     22  H   UNL     1      -6.520  11.703  18.129  0.00  0.00    +0.000 HD
ATOM     23  H   UNL     1      -5.939  11.181  16.637  0.00  0.00    +0.000 HD
ENDBRANCH  18  21
ENDBRANCH   1  15
BRANCH   3  24
ATOM     24  C   UNL     1       1.753  14.697  18.585  0.00  0.00    +0.000 A 
ATOM     25  C   UNL     1       3.049  14.461  18.108  0.00  0.00    +0.000 A 
ATOM     26  C   UNL     1       3.793  15.501  17.550  0.00  0.00    +0.000 A 
ATOM     27  C   UNL     1       3.248  16.783  17.463  0.00  0.00    +0.000 A 
ATOM     28  C   UNL     1       1.957  17.024  17.935  0.00  0.00    +0.000 A 
ATOM     29  C   UNL     1       1.213  15.983  18.496  0.00  0.00    +0.000 A 
ENDBRANCH   3  24
BRANCH   4  30
ATOM     30  C   UNL     1       0.706  14.515  21.672  0.00  0.00    +0.000 A 
ATOM     31  C   UNL     1      -0.392  14.951  22.423  0.00  0.00    +0.000 A 
ATOM     32  C   UNL     1      -0.249  16.006  23.327  0.00  0.00    +0.000 A 
ATOM     33  C   UNL     1       0.993  16.619  23.495  0.00  0.00    +0.000 A 
ATOM     34  C   UNL     1       2.097  16.167  22.774  0.00  0.00    +0.000 A 
ATOM     35  C   UNL     1       1.955  15.117  21.866  0.00  0.00    +0.000 A 
ENDBRANCH   4  30
TORSDOF 6
ENDMDL
MODEL 2
REMARK VINA RESULT:      -7.1      0.184      1.239
REMARK  Name = 
REMARK  6 active torsions:
REMARK  status: ('A' for Active; 'I' for Inactive)
REMARK    1  A    between atoms: N_1  and  C_2
REMARK    2  A    between atoms: C_5  and  S_6
REMARK    3  A    between atoms: S_6  and  C_7
REMARK    4  A    between atoms: C_10  and  N_11
REMARK    5  A    between atoms: C_15  and  C_16
REMARK    6  A    between atoms: C_22  and  C_23
REMARK                            x       y       z     vdW  Elec       q    Type
REMARK                         _______ _______ _______ _____ _____    ______ ____
ROOT
ATOM      1  S   UNL     1      -0.386  11.560  19.468  0.00  0.00    +0.000 S 
ATOM      2  C   UNL     1       0.490  12.659  18.487  0.00  0.00    +0.000 C 
ATOM      3  C   UNL     1       0.840  13.725  19.235  0.00  0.00    +0.000 C 
ATOM      4  C   UNL     1       0.373  13.635  20.623  0.00  0.00    +0.000 C 
ATOM      5  C   UNL     1      -0.305  12.507  20.890  0.00  0.00    +0.000 C 
ENDROOT
BRANCH   1   9
ATOM      6  C   UNL     1       1.951   7.726  20.077  0.00  0.00    +0.000 A 
ATOM      7  C   UNL     1       1.189   8.271  21.114  0.00  0.00    +0.000 A 
ATOM      8  C   UNL     1       0.493   9.470  20.940  0.00  0.00    +0.000 A 
ATOM      9  C   UNL     1       0.515  10.100  19.701  0.00  0.00    +0.000 A 
ATOM     10  C   UNL     1       1.244   9.558  18.646  0.00  0.00    +0.000 A 
ATOM     11  C   UNL     1       1.941   8.360  18.832  0.00  0.00    +0.000 A 
BRANCH   6  12
ATOM     12  N   UNL     1       2.518   6.455  20.215  0.00  0.00    +0.000 N 
ATOM     13  H   UNL     1       3.387   6.448  20.742  0.00  0.00    +0.000 HD
ATOM     14  H   UNL     1       2.589   5.938  19.345  0.00  0.00    +0.000 HD
ENDBRANCH   6  12
ENDBRANCH   1   9
BRANCH   1  15
ATOM     15  C   UNL     1      -2.020  11.437  18.937  0.00  0.00    +0.000 A 
ATOM     16  C   UNL     1      -2.992  12.227  19.540  0.00  0.00    +0.000 A 
ATOM     17  C   UNL     1      -4.313  12.151  19.097  0.00  0.00    +0.000 A 
ATOM     18  C   UNL     1      -4.663  11.317  18.030  0.00  0.00    +0.000 A 
ATOM     19  C   UNL     1      -3.691  10.478  17.486  0.00  0.00    +0.000 A 
ATOM     20  C   UNL     1      -2.362  10.549  17.919  0.00  0.00    +0.000 A 
BRANCH  18  21
ATOM     21  N   UNL     1      -6.009  11.163  17.676  0.00  0.00    +0.000 N 
ATOM     22  H   UNL     1      -6.158  10.475  16.945  0.00  0.00    +0.000 HD
ATOM     23  H   UNL     1      -6.624  11.017  18.470  0.00  0.00    +0.000 HD
ENDBRANCH  18  21
ENDBRANCH   1  15
BRANCH   3  24
ATOM     24  C   UNL     1       1.601  14.819  18.629  0.00  0.00    +0.000 A 
ATOM     25  C   UNL     1       1.057  16.107  18.558  0.00  0.00    +0.000 A 
ATOM     26  C   UNL     1       1.772  17.140  17.950  0.00  0.00    +0.000 A 
ATOM     27  C   UNL     1       3.035  16.894  17.411  0.00  0.00    +0.000 A 
ATOM     28  C   UNL     1       3.584  15.613  17.480  0.00  0.00    +0.000 A 
ATOM     29  C   UNL     1       2.867  14.578  18.087  0.00  0.00    +0.000 A 
ENDBRANCH   3  24
BRANCH   4  30
ATOM     30  C   UNL     1       0.534  14.605  21.708  0.00  0.00    +0.000 A 
ATOM     31  C   UNL     1      -0.575  15.027  22.450  0.00  0.00    +0.000 A 
ATOM     32  C   UNL     1      -0.450  16.078  23.362  0.00  0.00    +0.000 A 
ATOM     33  C   UNL     1       0.783  16.703  23.544  0.00  0.00    +0.000 A 
ATOM     34  C   UNL     1       1.899  16.266  22.832  0.00  0.00    +0.000 A 
ATOM     35  C   UNL     1       1.775  15.219  21.917  0.00  0.00    +0.000 A 
ENDBRANCH   4  30
TORSDOF 6
ENDMDL
MODEL 3
REMARK VINA RESULT:      -7.0      0.212      1.244
REMARK  Name = 
REMARK  6 active torsions:
REMARK  status: ('A' for Active; 'I' for Inactive)
REMARK    1  A    between atoms: N_1  and  C_2
REMARK    2  A    between atoms: C_5  and  S_6
REMARK    3  A    between atoms: S_6  and  C_7
REMARK    4  A    between atoms: C_10  and  N_11
REMARK    5  A    between atoms: C_15  and  C_16
REMARK    6  A    between atoms: C_22  and  C_23
REMARK                            x       y       z     vdW  Elec       q    Type
REMARK                         _______ _______ _______ _____ _____    ______ ____
ROOT
ATOM      1  S   UNL     1      -0.436  11.589  19.448  0.00  0.00    +0.000 S 
ATOM      2  C   UNL     1       0.460  12.672  18.468  0.00  0.00    +0.000 C 
ATOM      3  C   UNL     1       0.832  13.728  19.217  0.00  0.00    +0.000 C 
ATOM      4  C   UNL     1       0.366  13.646  20.605  0.00  0.00    +0.000 C 
ATOM      5  C   UNL     1      -0.335  12.531  20.871  0.00  0.00    +0.000 C 
ENDROOT
BRANCH   1   9
ATOM      6  C   UNL     1       1.864   7.731  20.046  0.00  0.00    +0.000 A 
ATOM      7  C   UNL     1       1.900   8.402  18.821  0.00  0.00    +0.000 A 
ATOM      8  C   UNL     1       1.166   9.574  18.623  0.00  0.00    +0.000 A 
ATOM      9  C   UNL     1       0.435  10.110  19.677  0.00  0.00    +0.000 A 
ATOM     10  C   UNL     1       0.411   9.474  20.915  0.00  0.00    +0.000 A 
ATOM     11  C   UNL     1       1.144   8.298  21.101  0.00  0.00    +0.000 A 
BRANCH   6  12
ATOM     12  N   UNL     1       2.717   6.647  20.279  0.00  0.00    +0.000 N 
ATOM     13  H   UNL     1       3.248   6.721  21.141  0.00  0.00    +0.000 HD
ATOM     14  H   UNL     1       3.300   6.404  19.485  0.00  0.00    +0.000 HD
ENDBRANCH   6  12
ENDBRANCH   1   9
BRANCH   1  15
ATOM     15  C   UNL     1      -2.073  11.500  18.919  0.00  0.00    +0.000 A 
ATOM     16  C   UNL     1      -2.397  10.671  17.851  0.00  0.00    +0.000 A 
ATOM     17  C   UNL     1      -3.725  10.573  17.433  0.00  0.00    +0.000 A 
ATOM     18  C   UNL     1      -4.738  11.271  18.100  0.00  0.00    +0.000 A 
ATOM     19  C   UNL     1      -4.386  12.154  19.121  0.00  0.00    +0.000 A 
ATOM     20  C   UNL     1      -3.058  12.256  19.551  0.00  0.00    +0.000 A 
BRANCH  18  21
ATOM     21  N   UNL     1      -6.045  11.256  17.597  0.00  0.00    +0.000 N 
ATOM     22  H   UNL     1      -6.168  10.627  16.810  0.00  0.00    +0.000 HD
ATOM     23  H   UNL     1      -6.754  11.119  18.311  0.00  0.00    +0.000 HD
ENDBRANCH  18  21
ENDBRANCH   1  15
BRANCH   3  24
ATOM     24  C   UNL     1       1.615  14.808  18.612  0.00  0.00    +0.000 A 
ATOM     25  C   UNL     1       1.100  16.109  18.552  0.00  0.00    +0.000 A 
ATOM     26  C   UNL     1       1.835  17.128  17.945  0.00  0.00    +0.000 A 
ATOM     27  C   UNL     1       3.088  16.856  17.396  0.00  0.00    +0.000 A 
ATOM     28  C   UNL     1       3.608  15.562  17.454  0.00  0.00    +0.000 A 
ATOM     29  C   UNL     1       2.871  14.541  18.060  0.00  0.00    +0.000 A 
ENDBRANCH   3  24
BRANCH   4  30
ATOM     30  C   UNL     1       0.548  14.610  21.692  0.00  0.00    +0.000 A 
ATOM     31  C   UNL     1      -0.558  15.094  22.401  0.00  0.00    +0.000 A 
ATOM     32  C   UNL     1      -0.403  16.141  23.313  0.00  0.00    +0.000 A 
ATOM     33  C   UNL     1       0.857  16.699  23.529  0.00  0.00    +0.000 A 
ATOM     34  C   UNL     1       1.967  16.199  22.850  0.00  0.00    +0.000 A 
ATOM     35  C   UNL     1       1.814  15.157  21.935  0.00  0.00    +0.000 A 
ENDBRANCH   4  30
TORSDOF 6
ENDMDL
MODEL 4
REMARK VINA RESULT:      -7.0      0.374      5.569
REMARK  Name = 
REMARK  6 active torsions:
REMARK  status: ('A' for Active; 'I' for Inactive)
REMARK    1  A    between atoms: N_1  and  C_2
REMARK    2  A    between atoms: C_5  and  S_6
REMARK    3  A    between atoms: S_6  and  C_7
REMARK    4  A    between atoms: C_10  and  N_11
REMARK    5  A    between atoms: C_15  and  C_16
REMARK    6  A    between atoms: C_22  and  C_23
REMARK                            x       y       z     vdW  Elec       q    Type
REMARK                         _______ _______ _______ _____ _____    ______ ____
ROOT
ATOM      1  S   UNL     1      -0.418  11.704  19.455  0.00  0.00    +0.000 S 
ATOM      2  C   UNL     1      -0.409  12.636  20.893  0.00  0.00    +0.000 C 
ATOM      3  C   UNL     1       0.274  13.775  20.666  0.00  0.00    +0.000 C 
ATOM      4  C   UNL     1       0.800  13.873  19.301  0.00  0.00    +0.000 C 
ATOM      5  C   UNL     1       0.495  12.815  18.530  0.00  0.00    +0.000 C 
ENDROOT
BRANCH   1   9
ATOM      6  C   UNL     1      -4.610  11.454  17.752  0.00  0.00    +0.000 A 
ATOM      7  C   UNL     1      -4.368  12.110  18.962  0.00  0.00    +0.000 A 
ATOM      8  C   UNL     1      -3.082  12.161  19.506  0.00  0.00    +0.000 A 
ATOM      9  C   UNL     1      -2.020  11.599  18.806  0.00  0.00    +0.000 A 
ATOM     10  C   UNL     1      -2.235  10.968  17.584  0.00  0.00    +0.000 A 
ATOM     11  C   UNL     1      -3.527  10.917  17.051  0.00  0.00    +0.000 A 
BRANCH   6  12
ATOM     12  N   UNL     1      -5.868  11.539  17.146  0.00  0.00    +0.000 N 
ATOM     13  H   UNL     1      -6.438  12.306  17.491  0.00  0.00    +0.000 HD
ATOM     14  H   UNL     1      -6.374  10.660  17.123  0.00  0.00    +0.000 HD
ENDBRANCH   6  12
ENDBRANCH   1   9
BRANCH   1  15
ATOM     15  C   UNL     1       0.474  10.245  19.668  0.00  0.00    +0.000 A 
ATOM     16  C   UNL     1       0.477   9.626  20.913  0.00  0.00    +0.000 A 
ATOM     17  C   UNL     1       1.176   8.431  21.086  0.00  0.00    +0.000 A 
ATOM     18  C   UNL     1       1.842   7.830  20.013  0.00  0.00    +0.000 A 
ATOM     19  C   UNL     1       1.891   8.501  18.791  0.00  0.00    +0.000 A 
ATOM     20  C   UNL     1       1.189   9.698  18.605  0.00  0.00    +0.000 A 
BRANCH  18  21
ATOM     21  N   UNL     1       2.636   6.696  20.229  0.00  0.00    +0.000 N 
ATOM     22  H   UNL     1       3.180   6.742  21.085  0.00  0.00    +0.000 HD
ATOM     23  H   UNL     1       2.127   5.822  20.145  0.00  0.00    +0.000 HD
ENDBRANCH  18  21
ENDBRANCH   1  15
BRANCH   3  24
ATOM     24  C   UNL     1       0.431  14.754  21.744  0.00  0.00    +0.000 A 
ATOM     25  C   UNL     1      -0.663  15.113  22.541  0.00  0.00    +0.000 A 
ATOM     26  C   UNL     1      -0.517  16.071  23.545  0.00  0.00    +0.000 A 
ATOM     27  C   UNL     1       0.722  16.675  23.762  0.00  0.00    +0.000 A 
ATOM     28  C   UNL     1       1.817  16.320  22.973  0.00  0.00    +0.000 A 
ATOM     29  C   UNL     1       1.671  15.363  21.966  0.00  0.00    +0.000 A 
ENDBRANCH   3  24
BRANCH   4  30
ATOM     30  C   UNL     1       1.609  14.938  18.704  0.00  0.00    +0.000 A 
ATOM     31  C   UNL     1       1.086  16.229  18.564  0.00  0.00    +0.000 A 
ATOM     32  C   UNL     1       1.788  17.194  17.839  0.00  0.00    +0.000 A 
ATOM     33  C   UNL     1       3.017  16.879  17.261  0.00  0.00    +0.000 A 
ATOM     34  C   UNL     1       3.558  15.604  17.424  0.00  0.00    +0.000 A 
ATOM     35  C   UNL     1       2.857  14.637  18.144  0.00  0.00    +0.000 A 
ENDBRANCH   4  30
TORSDOF 6
ENDMDL
MODEL 5
REMARK VINA RESULT:      -6.9      0.395      5.574
REMARK  Name = 
REMARK  6 active torsions:
REMARK  status: ('A' for Active; 'I' for Inactive)
REMARK    1  A    between atoms: N_1  and  C_2
REMARK    2  A    between atoms: C_5  and  S_6
REMARK    3  A    between atoms: S_6  and  C_7
REMARK    4  A    between atoms: C_10  and  N_11
REMARK    5  A    between atoms: C_15  and  C_16
REMARK    6  A    between atoms: C_22  and  C_23
REMARK                            x       y       z     vdW  Elec       q    Type
REMARK                         _______ _______ _______ _____ _____    ______ ____
ROOT
ATOM      1  S   UNL     1      -0.491  11.772  19.527  0.00  0.00    +0.000 S 
ATOM      2  C   UNL     1      -0.441  12.712  20.959  0.00  0.00    +0.000 C 
ATOM      3  C   UNL     1       0.262  13.836  20.716  0.00  0.00    +0.000 C 
ATOM      4  C   UNL     1       0.768  13.916  19.342  0.00  0.00    +0.000 C 
ATOM      5  C   UNL     1       0.430  12.860  18.582  0.00  0.00    +0.000 C 
ENDROOT
BRANCH   1   9
ATOM      6  C   UNL     1      -4.715  11.551  17.902  0.00  0.00    +0.000 A 
ATOM      7  C   UNL     1      -3.655  10.941  17.225  0.00  0.00    +0.000 A 
ATOM      8  C   UNL     1      -2.348  11.034  17.707  0.00  0.00    +0.000 A 
ATOM      9  C   UNL     1      -2.104  11.697  18.904  0.00  0.00    +0.000 A 
ATOM     10  C   UNL     1      -3.150  12.286  19.610  0.00  0.00    +0.000 A 
ATOM     11  C   UNL     1      -4.455  12.191  19.117  0.00  0.00    +0.000 A 
BRANCH   6  12
ATOM     12  N   UNL     1      -6.034  11.324  17.494  0.00  0.00    +0.000 N 
ATOM     13  H   UNL     1      -6.603  12.165  17.460  0.00  0.00    +0.000 HD
ATOM     14  H   UNL     1      -6.492  10.565  17.986  0.00  0.00    +0.000 HD
ENDBRANCH   6  12
ENDBRANCH   1   9
BRANCH   1  15
ATOM     15  C   UNL     1       0.375  10.298  19.735  0.00  0.00    +0.000 A 
ATOM     16  C   UNL     1       1.096   9.777  18.666  0.00  0.00    +0.000 A 
ATOM     17  C   UNL     1       1.821   8.596  18.834  0.00  0.00    +0.000 A 
ATOM     18  C   UNL     1       1.860   7.952  20.075  0.00  0.00    +0.000 A 
ATOM     19  C   UNL     1       1.073   8.447  21.115  0.00  0.00    +0.000 A 
ATOM     20  C   UNL     1       0.347   9.633  20.959  0.00  0.00    +0.000 A 
BRANCH  18  21
ATOM     21  N   UNL     1       2.493   6.708  20.198  0.00  0.00    +0.000 N 
ATOM     22  H   UNL     1       3.501   6.776  20.294  0.00  0.00    +0.000 HD
ATOM     23  H   UNL     1       2.080   6.110  20.907  0.00  0.00    +0.000 HD
ENDBRANCH  18  21
ENDBRANCH   1  15
BRANCH   3  24
ATOM     24  C   UNL     1       0.455  14.817  21.785  0.00  0.00    +0.000 A 
ATOM     25  C   UNL     1      -0.611  15.176  22.620  0.00  0.00    +0.000 A 
ATOM     26  C   UNL     1      -0.432  16.136  23.617  0.00  0.00    +0.000 A 
ATOM     27  C   UNL     1       0.813  16.743  23.788  0.00  0.00    +0.000 A 
ATOM     28  C   UNL     1       1.879  16.389  22.961  0.00  0.00    +0.000 A 
ATOM     29  C   UNL     1       1.700  15.430  21.961  0.00  0.00    +0.000 A 
ENDBRANCH   3  24
BRANCH   4  30
ATOM     30  C   UNL     1       1.588  14.961  18.727  0.00  0.00    +0.000 A 
ATOM     31  C   UNL     1       1.081  16.257  18.568  0.00  0.00    +0.000 A 
ATOM     32  C   UNL     1       1.793  17.201  17.826  0.00  0.00    +0.000 A 
ATOM     33  C   UNL     1       3.017  16.862  17.250  0.00  0.00    +0.000 A 
ATOM     34  C   UNL     1       3.542  15.583  17.432  0.00  0.00    +0.000 A 
ATOM     35  C   UNL     1       2.831  14.636  18.169  0.00  0.00    +0.000 A 
ENDBRANCH   4  30
TORSDOF 6
ENDMDL
MODEL 6
REMARK VINA RESULT:      -6.9      0.253      5.533
REMARK  Name = 
REMARK  6 active torsions:
REMARK  status: ('A' for Active; 'I' for Inactive)
REMARK    1  A    between atoms: N_1  and  C_2
REMARK    2  A    between atoms: C_5  and  S_6
REMARK    3  A    between atoms: S_6  and  C_7
REMARK    4  A    between atoms: C_10  and  N_11
REMARK    5  A    between atoms: C_15  and  C_16
REMARK    6  A    between atoms: C_22  and  C_23
REMARK                            x       y       z     vdW  Elec       q    Type
REMARK                         _______ _______ _______ _____ _____    ______ ____
ROOT
ATOM      1  S   UNL     1      -0.496  11.583  19.544  0.00  0.00    +0.000 S 
ATOM      2  C   UNL     1      -0.406  12.576  20.938  0.00  0.00    +0.000 C 
ATOM      3  C   UNL     1       0.282  13.693  20.631  0.00  0.00    +0.000 C 
ATOM      4  C   UNL     1       0.744  13.724  19.240  0.00  0.00    +0.000 C 
ATOM      5  C   UNL     1       0.388  12.640  18.531  0.00  0.00    +0.000 C 
ENDROOT
BRANCH   1   9
ATOM      6  C   UNL     1      -4.766  11.328  18.046  0.00  0.00    +0.000 A 
ATOM      7  C   UNL     1      -4.426  12.188  19.095  0.00  0.00    +0.000 A 
ATOM      8  C   UNL     1      -3.117  12.245  19.580  0.00  0.00    +0.000 A 
ATOM      9  C   UNL     1      -2.128  11.478  18.975  0.00  0.00    +0.000 A 
ATOM     10  C   UNL     1      -2.440  10.637  17.910  0.00  0.00    +0.000 A 
ATOM     11  C   UNL     1      -3.754  10.582  17.435  0.00  0.00    +0.000 A 
BRANCH   6  12
ATOM     12  N   UNL     1      -6.040  11.389  17.473  0.00  0.00    +0.000 N 
ATOM     13  H   UNL     1      -6.592  10.548  17.608  0.00  0.00    +0.000 HD
ATOM     14  H   UNL     1      -6.043  11.703  16.508  0.00  0.00    +0.000 HD
ENDBRANCH   6  12
ENDBRANCH   1   9
BRANCH   1  15
ATOM     15  C   UNL     1       0.384  10.121  19.778  0.00  0.00    +0.000 A 
ATOM     16  C   UNL     1       1.140   9.608  18.730  0.00  0.00    +0.000 A 
ATOM     17  C   UNL     1       1.876   8.438  18.920  0.00  0.00    +0.000 A 
ATOM     18  C   UNL     1       1.891   7.797  20.163  0.00  0.00    +0.000 A 
ATOM     19  C   UNL     1       1.070   8.283  21.181  0.00  0.00    +0.000 A 
ATOM     20  C   UNL     1       0.332   9.458  21.002  0.00  0.00    +0.000 A 
BRANCH  18  21
ATOM     21  N   UNL     1       2.538   6.562  20.305  0.00  0.00    +0.000 N 
ATOM     22  H   UNL     1       2.781   6.342  21.266  0.00  0.00    +0.000 HD
ATOM     23  H   UNL     1       2.055   5.796  19.847  0.00  0.00    +0.000 HD
ENDBRANCH  18  21
ENDBRANCH   1  15
BRANCH   3  24
ATOM     24  C   UNL     1       0.503  14.714  21.657  0.00  0.00    +0.000 A 
ATOM     25  C   UNL     1      -0.573  15.228  22.390  0.00  0.00    +0.000 A 
ATOM     26  C   UNL     1      -0.363  16.224  23.344  0.00  0.00    +0.000 A 
ATOM     27  C   UNL     1       0.923  16.714  23.573  0.00  0.00    +0.000 A 
ATOM     28  C   UNL     1       2.001  16.205  22.847  0.00  0.00    +0.000 A 
ATOM     29  C   UNL     1       1.790  15.209  21.890  0.00  0.00    +0.000 A 
ENDBRANCH   3  24
BRANCH   4  30
ATOM     30  C   UNL     1       1.538  14.750  18.560  0.00  0.00    +0.000 A 
ATOM     31  C   UNL     1       2.821  14.452  18.085  0.00  0.00    +0.000 A 
ATOM     32  C   UNL     1       3.643  15.471  17.599  0.00  0.00    +0.000 A 
ATOM     33  C   UNL     1       3.184  16.788  17.574  0.00  0.00    +0.000 A 
ATOM     34  C   UNL     1       1.895  17.086  18.015  0.00  0.00    +0.000 A 
ATOM     35  C   UNL     1       1.074  16.070  18.506  0.00  0.00    +0.000 A 
ENDBRANCH   4  30
TORSDOF 6
ENDMDL
MODEL 7
REMARK VINA RESULT:      -6.9      0.542      5.497
REMARK  Name = 
REMARK  6 active torsions:
REMARK  status: ('A' for Active; 'I' for Inactive)
REMARK    1  A    between atoms: N_1  and  C_2
REMARK    2  A    between atoms: C_5  and  S_6
REMARK    3  A    between atoms: S_6  and  C_7
REMARK    4  A    between atoms: C_10  and  N_11
REMARK    5  A    between atoms: C_15  and  C_16
REMARK    6  A    between atoms: C_22  and  C_23
REMARK                            x       y       z     vdW  Elec       q    Type
REMARK                         _______ _______ _______ _____ _____    ______ ____
ROOT
ATOM      1  S   UNL     1      -0.550  11.846  19.487  0.00  0.00    +0.000 S 
ATOM      2  C   UNL     1      -0.550  12.804  20.908  0.00  0.00    +0.000 C 
ATOM      3  C   UNL     1       0.166  13.923  20.677  0.00  0.00    +0.000 C 
ATOM      4  C   UNL     1       0.723  13.983  19.322  0.00  0.00    +0.000 C 
ATOM      5  C   UNL     1       0.409  12.919  18.564  0.00  0.00    +0.000 C 
ENDROOT
BRANCH   1   9
ATOM      6  C   UNL     1      -4.710  11.666  17.700  0.00  0.00    +0.000 A 
ATOM      7  C   UNL     1      -4.506  12.172  18.987  0.00  0.00    +0.000 A 
ATOM      8  C   UNL     1      -3.229  12.200  19.553  0.00  0.00    +0.000 A 
ATOM      9  C   UNL     1      -2.140  11.769  18.805  0.00  0.00    +0.000 A 
ATOM     10  C   UNL     1      -2.318  11.289  17.510  0.00  0.00    +0.000 A 
ATOM     11  C   UNL     1      -3.600  11.261  16.954  0.00  0.00    +0.000 A 
BRANCH   6  12
ATOM     12  N   UNL     1      -5.964  11.783  17.090  0.00  0.00    +0.000 N 
ATOM     13  H   UNL     1      -6.731  11.894  17.747  0.00  0.00    +0.000 HD
ATOM     14  H   UNL     1      -6.151  11.071  16.393  0.00  0.00    +0.000 HD
ENDBRANCH   6  12
ENDBRANCH   1   9
BRANCH   1  15
ATOM     15  C   UNL     1       0.302  10.371  19.745  0.00  0.00    +0.000 A 
ATOM     16  C   UNL     1       1.026   9.813  18.698  0.00  0.00    +0.000 A 
ATOM     17  C   UNL     1       1.740   8.632  18.907  0.00  0.00    +0.000 A 
ATOM     18  C   UNL     1       1.763   8.024  20.167  0.00  0.00    +0.000 A 
ATOM     19  C   UNL     1       0.972   8.557  21.186  0.00  0.00    +0.000 A 
ATOM     20  C   UNL     1       0.257   9.743  20.988  0.00  0.00    +0.000 A 
BRANCH  18  21
ATOM     21  N   UNL     1       2.385   6.780  20.331  0.00  0.00    +0.000 N 
ATOM     22  H   UNL     1       1.744   5.996  20.255  0.00  0.00    +0.000 HD
ATOM     23  H   UNL     1       3.209   6.658  19.752  0.00  0.00    +0.000 HD
ENDBRANCH  18  21
ENDBRANCH   1  15
BRANCH   3  24
ATOM     24  C   UNL     1       0.323  14.916  21.741  0.00  0.00    +0.000 A 
ATOM     25  C   UNL     1       1.569  15.510  21.978  0.00  0.00    +0.000 A 
ATOM     26  C   UNL     1       1.723  16.432  23.014  0.00  0.00    +0.000 A 
ATOM     27  C   UNL     1       0.634  16.769  23.819  0.00  0.00    +0.000 A 
ATOM     28  C   UNL     1      -0.610  16.182  23.587  0.00  0.00    +0.000 A 
ATOM     29  C   UNL     1      -0.764  15.257  22.551  0.00  0.00    +0.000 A 
ENDBRANCH   3  24
BRANCH   4  30
ATOM     30  C   UNL     1       1.570  15.018  18.725  0.00  0.00    +0.000 A 
ATOM     31  C   UNL     1       1.078  16.315  18.541  0.00  0.00    +0.000 A 
ATOM     32  C   UNL     1       1.819  17.249  17.814  0.00  0.00    +0.000 A 
ATOM     33  C   UNL     1       3.058  16.896  17.279  0.00  0.00    +0.000 A 
ATOM     34  C   UNL     1       3.568  15.615  17.487  0.00  0.00    +0.000 A 
ATOM     35  C   UNL     1       2.827  14.679  18.209  0.00  0.00    +0.000 A 
ENDBRANCH   4  30
TORSDOF 6
ENDMDL
MODEL 8
REMARK VINA RESULT:      -6.9      1.209      1.727
REMARK  Name = 
REMARK  6 active torsions:
REMARK  status: ('A' for Active; 'I' for Inactive)
REMARK    1  A    between atoms: N_1  and  C_2
REMARK    2  A    between atoms: C_5  and  S_6
REMARK    3  A    between atoms: S_6  and  C_7
REMARK    4  A    between atoms: C_10  and  N_11
REMARK    5  A    between atoms: C_15  and  C_16
REMARK    6  A    between atoms: C_22  and  C_23
REMARK                            x       y       z     vdW  Elec       q    Type
REMARK                         _______ _______ _______ _____ _____    ______ ____
ROOT
ATOM      1  S   UNL     1      -1.331  12.241  19.665  0.00  0.00    +0.000 S 
ATOM      2  C   UNL     1      -0.568  13.401  18.661  0.00  0.00    +0.000 C 
ATOM      3  C   UNL     1      -0.317  14.507  19.390  0.00  0.00    +0.000 C 
ATOM      4  C   UNL     1      -0.767  14.398  20.781  0.00  0.00    +0.000 C 
ATOM      5  C   UNL     1      -1.335  13.214  21.071  0.00  0.00    +0.000 C 
ENDROOT
BRANCH   1   9
ATOM      6  C   UNL     1       1.360   8.656  20.322  0.00  0.00    +0.000 A 
ATOM      7  C   UNL     1       0.536   9.128  21.347  0.00  0.00    +0.000 A 
ATOM      8  C   UNL     1      -0.271  10.252  21.158  0.00  0.00    +0.000 A 
ATOM      9  C   UNL     1      -0.296  10.877  19.916  0.00  0.00    +0.000 A 
ATOM     10  C   UNL     1       0.495  10.403  18.873  0.00  0.00    +0.000 A 
ATOM     11  C   UNL     1       1.304   9.280  19.073  0.00  0.00    +0.000 A 
BRANCH   6  12
ATOM     12  N   UNL     1       2.047   7.446  20.474  0.00  0.00    +0.000 N 
ATOM     13  H   UNL     1       1.709   6.704  19.868  0.00  0.00    +0.000 HD
ATOM     14  H   UNL     1       2.144   7.146  21.438  0.00  0.00    +0.000 HD
ENDBRANCH   6  12
ENDBRANCH   1   9
BRANCH   1  15
ATOM     15  C   UNL     1      -2.949  11.955  19.146  0.00  0.00    +0.000 A 
ATOM     16  C   UNL     1      -3.172  11.154  18.032  0.00  0.00    +0.000 A 
ATOM     17  C   UNL     1      -4.481  10.896  17.620  0.00  0.00    +0.000 A 
ATOM     18  C   UNL     1      -5.569  11.404  18.337  0.00  0.00    +0.000 A 
ATOM     19  C   UNL     1      -5.326  12.266  19.408  0.00  0.00    +0.000 A 
ATOM     20  C   UNL     1      -4.019  12.527  19.832  0.00  0.00    +0.000 A 
BRANCH  18  21
ATOM     21  N   UNL     1      -6.870  11.237  17.846  0.00  0.00    +0.000 N 
ATOM     22  H   UNL     1      -7.568  11.141  18.577  0.00  0.00    +0.000 HD
ATOM     23  H   UNL     1      -7.135  11.928  17.151  0.00  0.00    +0.000 HD
ENDBRANCH  18  21
ENDBRANCH   1  15
BRANCH   3  24
ATOM     24  C   UNL     1       0.335  15.658  18.762  0.00  0.00    +0.000 A 
ATOM     25  C   UNL     1      -0.429  16.724  18.269  0.00  0.00    +0.000 A 
ATOM     26  C   UNL     1       0.194  17.804  17.641  0.00  0.00    +0.000 A 
ATOM     27  C   UNL     1       1.582  17.827  17.502  0.00  0.00    +0.000 A 
ATOM     28  C   UNL     1       2.348  16.769  17.993  0.00  0.00    +0.000 A 
ATOM     29  C   UNL     1       1.725  15.687  18.619  0.00  0.00    +0.000 A 
ENDBRANCH   3  24
BRANCH   4  30
ATOM     30  C   UNL     1      -0.694  15.396  21.849  0.00  0.00    +0.000 A 
ATOM     31  C   UNL     1      -1.831  16.126  22.215  0.00  0.00    +0.000 A 
ATOM     32  C   UNL     1      -1.721  17.197  23.105  0.00  0.00    +0.000 A 
ATOM     33  C   UNL     1      -0.480  17.534  23.643  0.00  0.00    +0.000 A 
ATOM     34  C   UNL     1       0.651  16.791  23.309  0.00  0.00    +0.000 A 
ATOM     35  C   UNL     1       0.544  15.724  22.415  0.00  0.00    +0.000 A 
ENDBRANCH   4  30
TORSDOF 6
ENDMDL
MODEL 9
REMARK VINA RESULT:      -6.9      0.194      5.604
REMARK  Name = 
REMARK  6 active torsions:
REMARK  status: ('A' for Active; 'I' for Inactive)
REMARK    1  A    between atoms: N_1  and  C_2
REMARK    2  A    between atoms: C_5  and  S_6
REMARK    3  A    between atoms: S_6  and  C_7
REMARK    4  A    between atoms: C_10  and  N_11
REMARK    5  A    between atoms: C_15  and  C_16
REMARK    6  A    between atoms: C_22  and  C_23
REMARK                            x       y       z     vdW  Elec       q    Type
REMARK                         _______ _______ _______ _____ _____    ______ ____
ROOT
ATOM      1  S   UNL     1      -0.419  11.586  19.538  0.00  0.00    +0.000 S 
ATOM      2  C   UNL     1      -0.323  12.576  20.933  0.00  0.00    +0.000 C 
ATOM      3  C   UNL     1       0.358  13.697  20.624  0.00  0.00    +0.000 C 
ATOM      4  C   UNL     1       0.811  13.732  19.229  0.00  0.00    +0.000 C 
ATOM      5  C   UNL     1       0.454  12.647  18.521  0.00  0.00    +0.000 C 
ENDROOT
BRANCH   1   9
ATOM      6  C   UNL     1      -4.701  11.274  18.090  0.00  0.00    +0.000 A 
ATOM      7  C   UNL     1      -3.704  10.457  17.552  0.00  0.00    +0.000 A 
ATOM      8  C   UNL     1      -2.377  10.573  17.974  0.00  0.00    +0.000 A 
ATOM      9  C   UNL     1      -2.054  11.475  18.981  0.00  0.00    +0.000 A 
ATOM     10  C   UNL     1      -3.039  12.278  19.551  0.00  0.00    +0.000 A 
ATOM     11  C   UNL     1      -4.363  12.158  19.119  0.00  0.00    +0.000 A 
BRANCH   6  12
ATOM     12  N   UNL     1      -6.044  11.047  17.771  0.00  0.00    +0.000 N 
ATOM     13  H   UNL     1      -6.534  11.874  17.445  0.00  0.00    +0.000 HD
ATOM     14  H   UNL     1      -6.559  10.549  18.489  0.00  0.00    +0.000 HD
ENDBRANCH   6  12
ENDBRANCH   1   9
BRANCH   1  15
ATOM     15  C   UNL     1       0.469  10.127  19.764  0.00  0.00    +0.000 A 
ATOM     16  C   UNL     1       0.443   9.501  21.005  0.00  0.00    +0.000 A 
ATOM     17  C   UNL     1       1.138   8.305  21.188  0.00  0.00    +0.000 A 
ATOM     18  C   UNL     1       1.829   7.710  20.127  0.00  0.00    +0.000 A 
ATOM     19  C   UNL     1       1.906   8.388  18.910  0.00  0.00    +0.000 A 
ATOM     20  C   UNL     1       1.208   9.585  18.714  0.00  0.00    +0.000 A 
BRANCH  18  21
ATOM     21  N   UNL     1       2.618   6.576  20.355  0.00  0.00    +0.000 N 
ATOM     22  H   UNL     1       2.469   6.157  21.268  0.00  0.00    +0.000 HD
ATOM     23  H   UNL     1       2.570   5.890  19.608  0.00  0.00    +0.000 HD
ENDBRANCH  18  21
ENDBRANCH   1  15
BRANCH   3  24
ATOM     24  C   UNL     1       0.583  14.717  21.650  0.00  0.00    +0.000 A 
ATOM     25  C   UNL     1      -0.491  15.226  22.391  0.00  0.00    +0.000 A 
ATOM     26  C   UNL     1      -0.278  16.222  23.345  0.00  0.00    +0.000 A 
ATOM     27  C   UNL     1       1.009  16.715  23.567  0.00  0.00    +0.000 A 
ATOM     28  C   UNL     1       2.083  16.211  22.833  0.00  0.00    +0.000 A 
ATOM     29  C   UNL     1       1.870  15.215  21.876  0.00  0.00    +0.000 A 
ENDBRANCH   3  24
BRANCH   4  30
ATOM     30  C   UNL     1       1.597  14.762  18.547  0.00  0.00    +0.000 A 
ATOM     31  C   UNL     1       2.884  14.474  18.077  0.00  0.00    +0.000 A 
ATOM     32  C   UNL     1       3.697  15.499  17.587  0.00  0.00    +0.000 A 
ATOM     33  C   UNL     1       3.224  16.811  17.553  0.00  0.00    +0.000 A 
ATOM     34  C   UNL     1       1.932  17.099  17.989  0.00  0.00    +0.000 A 
ATOM     35  C   UNL     1       1.120  16.077  18.484  0.00  0.00    +0.000 A 
ENDBRANCH   4  30
TORSDOF 6
ENDMDL
