MODEL 1
REMARK VINA RESULT:      -8.0      0.000      0.000
REMARK  Name = 
REMARK  8 active torsions:
REMARK  status: ('A' for Active; 'I' for Inactive)
REMARK    1  A    between atoms: C_1  and  C_2
REMARK    2  A    between atoms: C_2  and  C_3
REMARK    3  A    between atoms: C_4  and  N_5
REMARK    4  A    between atoms: C_4  and  C_14
REMARK    5  A    between atoms: C_6  and  C_8
REMARK    6  A    between atoms: N_16  and  C_17
REMARK    7  A    between atoms: C_21  and  C_22
REMARK    8  A    between atoms: C_22  and  O_24
REMARK                            x       y       z     vdW  Elec       q    Type
REMARK                         _______ _______ _______ _____ _____    ______ ____
ROOT
ATOM      1  C   UNL     1       1.419   3.769  20.944  0.00  0.00    +0.000 C 
ATOM      2  C   UNL     1       2.692   3.917  20.139  0.00  0.00    +0.000 C 
ATOM      3  C   UNL     1       3.340   2.586  19.803  0.00  0.00    +0.000 C 
ATOM      4  C   UNL     1       3.217   5.120  19.768  0.00  0.00    +0.000 C 
ENDROOT
BRANCH   4   5
ATOM      5  N   UNL     1       2.610   6.305  20.179  0.00  0.00    +0.000 N 
ATOM      6  C   UNL     1       2.178   7.378  19.419  0.00  0.00    +0.000 C 
ATOM      7  O   UNL     1       2.356   7.548  18.221  0.00  0.00    +0.000 OA
ATOM      8  H   UNL     1       2.372   6.346  21.161  0.00  0.00    +0.000 HD
BRANCH   6   9
ATOM      9  C   UNL     1       1.425   8.431  20.149  0.00  0.00    +0.000 A 
ATOM     10  C   UNL     1       0.978   9.597  19.519  0.00  0.00    +0.000 A 
ATOM     11  C   UNL     1       0.308  10.570  20.263  0.00  0.00    +0.000 A 
ATOM     12  C   UNL     1       0.073  10.375  21.625  0.00  0.00    +0.000 A 
ATOM     13  C   UNL     1       0.473   9.191  22.244  0.00  0.00    +0.000 A 
ATOM     14  C   UNL     1       1.139   8.214  21.505  0.00  0.00    +0.000 A 
ENDBRANCH   6   9
ENDBRANCH   4   5
BRANCH   4  15
ATOM     15  C   UNL     1       4.413   5.103  18.816  0.00  0.00    +0.000 C 
ATOM     16  O   UNL     1       5.559   5.166  19.261  0.00  0.00    +0.000 OA
ATOM     17  N   UNL     1       4.125   5.102  17.472  0.00  0.00    +0.000 N 
ATOM     18  H   UNL     1       3.152   5.040  17.191  0.00  0.00    +0.000 HD
BRANCH  17  19
ATOM     19  C   UNL     1       5.090   5.039  16.452  0.00  0.00    +0.000 A 
ATOM     20  C   UNL     1       6.319   5.659  16.674  0.00  0.00    +0.000 A 
ATOM     21  C   UNL     1       7.353   5.502  15.751  0.00  0.00    +0.000 A 
ATOM     22  C   UNL     1       7.136   4.784  14.574  0.00  0.00    +0.000 A 
ATOM     23  C   UNL     1       5.879   4.233  14.304  0.00  0.00    +0.000 A 
ATOM     24  C   UNL     1       4.855   4.366  15.247  0.00  0.00    +0.000 A 
BRANCH  23  25
ATOM     25  C   UNL     1       5.675   3.565  12.992  0.00  0.00    +0.000 C 
ATOM     26  O   UNL     1       4.600   3.552  12.425  0.00  0.00    +0.000 OA
BRANCH  25  27
ATOM     27  O   UNL     1       6.786   3.006  12.467  0.00  0.00    +0.000 OA
ATOM     28  H   UNL     1       7.148   3.457  11.681  0.00  0.00    +0.000 HD
ENDBRANCH  25  27
ENDBRANCH  23  25
ENDBRANCH  17  19
ENDBRANCH   4  15
TORSDOF 6
ENDMDL
MODEL 2
REMARK VINA RESULT:      -7.9      3.391      4.524
REMARK  Name = 
REMARK  8 active torsions:
REMARK  status: ('A' for Active; 'I' for Inactive)
REMARK    1  A    between atoms: C_1  and  C_2
REMARK    2  A    between atoms: C_2  and  C_3
REMARK    3  A    between atoms: C_4  and  N_5
REMARK    4  A    between atoms: C_4  and  C_14
REMARK    5  A    between atoms: C_6  and  C_8
REMARK    6  A    between atoms: N_16  and  C_17
REMARK    7  A    between atoms: C_21  and  C_22
REMARK    8  A    between atoms: C_22  and  O_24
REMARK                            x       y       z     vdW  Elec       q    Type
REMARK                         _______ _______ _______ _____ _____    ______ ____
ROOT
ATOM      1  C   UNL     1       7.157   5.875  20.059  0.00  0.00    +0.000 C 
ATOM      2  C   UNL     1       6.949   5.998  18.565  0.00  0.00    +0.000 C 
ATOM      3  C   UNL     1       8.112   6.669  17.858  0.00  0.00    +0.000 C 
ATOM      4  C   UNL     1       5.825   5.572  17.920  0.00  0.00    +0.000 C 
ENDROOT
BRANCH   4   5
ATOM      5  N   UNL     1       4.763   5.037  18.646  0.00  0.00    +0.000 N 
ATOM      6  C   UNL     1       3.986   3.926  18.370  0.00  0.00    +0.000 C 
ATOM      7  O   UNL     1       4.006   3.249  17.352  0.00  0.00    +0.000 OA
ATOM      8  H   UNL     1       4.596   5.471  19.543  0.00  0.00    +0.000 HD
BRANCH   6   9
ATOM      9  C   UNL     1       3.023   3.527  19.431  0.00  0.00    +0.000 A 
ATOM     10  C   UNL     1       1.659   3.819  19.343  0.00  0.00    +0.000 A 
ATOM     11  C   UNL     1       0.806   3.454  20.387  0.00  0.00    +0.000 A 
ATOM     12  C   UNL     1       1.310   2.788  21.506  0.00  0.00    +0.000 A 
ATOM     13  C   UNL     1       2.662   2.452  21.572  0.00  0.00    +0.000 A 
ATOM     14  C   UNL     1       3.517   2.811  20.531  0.00  0.00    +0.000 A 
ENDBRANCH   6   9
ENDBRANCH   4   5
BRANCH   4  15
ATOM     15  C   UNL     1       5.833   5.612  16.392  0.00  0.00    +0.000 C 
ATOM     16  O   UNL     1       5.276   6.533  15.794  0.00  0.00    +0.000 OA
ATOM     17  N   UNL     1       6.408   4.538  15.756  0.00  0.00    +0.000 N 
ATOM     18  H   UNL     1       6.854   3.827  16.324  0.00  0.00    +0.000 HD
BRANCH  17  19
ATOM     19  C   UNL     1       6.550   4.423  14.362  0.00  0.00    +0.000 A 
ATOM     20  C   UNL     1       7.488   5.239  13.730  0.00  0.00    +0.000 A 
ATOM     21  C   UNL     1       7.762   5.060  12.373  0.00  0.00    +0.000 A 
ATOM     22  C   UNL     1       7.047   4.116  11.634  0.00  0.00    +0.000 A 
ATOM     23  C   UNL     1       6.042   3.355  12.244  0.00  0.00    +0.000 A 
ATOM     24  C   UNL     1       5.794   3.516  13.611  0.00  0.00    +0.000 A 
BRANCH  23  25
ATOM     25  C   UNL     1       5.245   2.437  11.389  0.00  0.00    +0.000 C 
ATOM     26  O   UNL     1       4.165   2.747  10.925  0.00  0.00    +0.000 OA
BRANCH  25  27
ATOM     27  O   UNL     1       5.833   1.247  11.141  0.00  0.00    +0.000 OA
ATOM     28  H   UNL     1       6.804   1.234  11.237  0.00  0.00    +0.000 HD
ENDBRANCH  25  27
ENDBRANCH  23  25
ENDBRANCH  17  19
ENDBRANCH   4  15
TORSDOF 6
ENDMDL
MODEL 3
REMARK VINA RESULT:      -7.9      3.306      4.647
REMARK  Name = 
REMARK  8 active torsions:
REMARK  status: ('A' for Active; 'I' for Inactive)
REMARK    1  A    between atoms: C_1  and  C_2
REMARK    2  A    between atoms: C_2  and  C_3
REMARK    3  A    between atoms: C_4  and  N_5
REMARK    4  A    between atoms: C_4  and  C_14
REMARK    5  A    between atoms: C_6  and  C_8
REMARK    6  A    between atoms: N_16  and  C_17
REMARK    7  A    between atoms: C_21  and  C_22
REMARK    8  A    between atoms: C_22  and  O_24
REMARK                            x       y       z     vdW  Elec       q    Type
REMARK                         _______ _______ _______ _____ _____    ______ ____
ROOT
ATOM      1  C   UNL     1       7.189   5.910  20.013  0.00  0.00    +0.000 C 
ATOM      2  C   UNL     1       6.966   6.024  18.521  0.00  0.00    +0.000 C 
ATOM      3  C   UNL     1       8.121   6.694  17.799  0.00  0.00    +0.000 C 
ATOM      4  C   UNL     1       5.839   5.590  17.889  0.00  0.00    +0.000 C 
ENDROOT
BRANCH   4   5
ATOM      5  N   UNL     1       4.785   5.055  18.628  0.00  0.00    +0.000 N 
ATOM      6  C   UNL     1       4.110   3.860  18.452  0.00  0.00    +0.000 C 
ATOM      7  O   UNL     1       4.235   3.076  17.522  0.00  0.00    +0.000 OA
ATOM      8  H   UNL     1       4.540   5.574  19.460  0.00  0.00    +0.000 HD
BRANCH   6   9
ATOM      9  C   UNL     1       3.129   3.506  19.511  0.00  0.00    +0.000 A 
ATOM     10  C   UNL     1       3.480   2.724  20.617  0.00  0.00    +0.000 A 
ATOM     11  C   UNL     1       2.508   2.390  21.562  0.00  0.00    +0.000 A 
ATOM     12  C   UNL     1       1.197   2.846  21.413  0.00  0.00    +0.000 A 
ATOM     13  C   UNL     1       0.857   3.666  20.338  0.00  0.00    +0.000 A 
ATOM     14  C   UNL     1       1.825   4.006  19.393  0.00  0.00    +0.000 A 
ENDBRANCH   6   9
ENDBRANCH   4   5
BRANCH   4  15
ATOM     15  C   UNL     1       5.832   5.621  16.361  0.00  0.00    +0.000 C 
ATOM     16  O   UNL     1       5.249   6.525  15.763  0.00  0.00    +0.000 OA
ATOM     17  N   UNL     1       6.426   4.557  15.725  0.00  0.00    +0.000 N 
ATOM     18  H   UNL     1       6.893   3.859  16.294  0.00  0.00    +0.000 HD
BRANCH  17  19
ATOM     19  C   UNL     1       6.558   4.437  14.330  0.00  0.00    +0.000 A 
ATOM     20  C   UNL     1       7.482   5.260  13.687  0.00  0.00    +0.000 A 
ATOM     21  C   UNL     1       7.747   5.078  12.329  0.00  0.00    +0.000 A 
ATOM     22  C   UNL     1       7.037   4.122  11.601  0.00  0.00    +0.000 A 
ATOM     23  C   UNL     1       6.046   3.353  12.222  0.00  0.00    +0.000 A 
ATOM     24  C   UNL     1       5.806   3.517  13.590  0.00  0.00    +0.000 A 
BRANCH  23  25
ATOM     25  C   UNL     1       5.253   2.421  11.377  0.00  0.00    +0.000 C 
ATOM     26  O   UNL     1       5.651   1.313  11.075  0.00  0.00    +0.000 OA
BRANCH  25  27
ATOM     27  O   UNL     1       4.044   2.892  11.004  0.00  0.00    +0.000 OA
ATOM     28  H   UNL     1       3.327   2.760  11.653  0.00  0.00    +0.000 HD
ENDBRANCH  25  27
ENDBRANCH  23  25
ENDBRANCH  17  19
ENDBRANCH   4  15
TORSDOF 6
ENDMDL
MODEL 4
REMARK VINA RESULT:      -7.8      1.996      8.173
REMARK  Name = 
REMARK  8 active torsions:
REMARK  status: ('A' for Active; 'I' for Inactive)
REMARK    1  A    between atoms: C_1  and  C_2
REMARK    2  A    between atoms: C_2  and  C_3
REMARK    3  A    between atoms: C_4  and  N_5
REMARK    4  A    between atoms: C_4  and  C_14
REMARK    5  A    between atoms: C_6  and  C_8
REMARK    6  A    between atoms: N_16  and  C_17
REMARK    7  A    between atoms: C_21  and  C_22
REMARK    8  A    between atoms: C_22  and  O_24
REMARK                            x       y       z     vdW  Elec       q    Type
REMARK                         _______ _______ _______ _____ _____    ______ ____
ROOT
ATOM      1  C   UNL     1       3.615   2.030  17.434  0.00  0.00    +0.000 C 
ATOM      2  C   UNL     1       3.319   3.379  18.052  0.00  0.00    +0.000 C 
ATOM      3  C   UNL     1       2.459   3.284  19.300  0.00  0.00    +0.000 C 
ATOM      4  C   UNL     1       3.759   4.562  17.534  0.00  0.00    +0.000 C 
ENDROOT
BRANCH   4   5
ATOM      5  N   UNL     1       4.477   4.577  16.340  0.00  0.00    +0.000 N 
ATOM      6  C   UNL     1       5.847   4.593  16.144  0.00  0.00    +0.000 C 
ATOM      7  O   UNL     1       6.711   4.716  17.000  0.00  0.00    +0.000 OA
ATOM      8  H   UNL     1       3.920   4.474  15.504  0.00  0.00    +0.000 HD
BRANCH   6   9
ATOM      9  C   UNL     1       6.303   4.450  14.736  0.00  0.00    +0.000 A 
ATOM     10  C   UNL     1       7.386   5.176  14.229  0.00  0.00    +0.000 A 
ATOM     11  C   UNL     1       7.746   5.030  12.888  0.00  0.00    +0.000 A 
ATOM     12  C   UNL     1       7.039   4.156  12.061  0.00  0.00    +0.000 A 
ATOM     13  C   UNL     1       5.991   3.395  12.577  0.00  0.00    +0.000 A 
ATOM     14  C   UNL     1       5.628   3.533  13.916  0.00  0.00    +0.000 A 
ENDBRANCH   6   9
ENDBRANCH   4   5
BRANCH   4  15
ATOM     15  C   UNL     1       3.521   5.824  18.362  0.00  0.00    +0.000 C 
ATOM     16  O   UNL     1       4.306   6.135  19.257  0.00  0.00    +0.000 OA
ATOM     17  N   UNL     1       2.361   6.515  18.103  0.00  0.00    +0.000 N 
ATOM     18  H   UNL     1       1.773   6.196  17.341  0.00  0.00    +0.000 HD
BRANCH  17  19
ATOM     19  C   UNL     1       1.998   7.721  18.728  0.00  0.00    +0.000 A 
ATOM     20  C   UNL     1       1.947   8.874  17.946  0.00  0.00    +0.000 A 
ATOM     21  C   UNL     1       1.457  10.062  18.491  0.00  0.00    +0.000 A 
ATOM     22  C   UNL     1       1.085  10.113  19.836  0.00  0.00    +0.000 A 
ATOM     23  C   UNL     1       1.216   8.981  20.648  0.00  0.00    +0.000 A 
ATOM     24  C   UNL     1       1.678   7.785  20.090  0.00  0.00    +0.000 A 
BRANCH  23  25
ATOM     25  C   UNL     1       0.900   9.118  22.095  0.00  0.00    +0.000 C 
ATOM     26  O   UNL     1       1.720   9.493  22.910  0.00  0.00    +0.000 OA
BRANCH  25  27
ATOM     27  O   UNL     1      -0.377   8.828  22.421  0.00  0.00    +0.000 OA
ATOM     28  H   UNL     1      -0.570   8.816  23.377  0.00  0.00    +0.000 HD
ENDBRANCH  25  27
ENDBRANCH  23  25
ENDBRANCH  17  19
ENDBRANCH   4  15
TORSDOF 6
ENDMDL
MODEL 5
REMARK VINA RESULT:      -7.7      2.004      8.027
REMARK  Name = 
REMARK  8 active torsions:
REMARK  status: ('A' for Active; 'I' for Inactive)
REMARK    1  A    between atoms: C_1  and  C_2
REMARK    2  A    between atoms: C_2  and  C_3
REMARK    3  A    between atoms: C_4  and  N_5
REMARK    4  A    between atoms: C_4  and  C_14
REMARK    5  A    between atoms: C_6  and  C_8
REMARK    6  A    between atoms: N_16  and  C_17
REMARK    7  A    between atoms: C_21  and  C_22
REMARK    8  A    between atoms: C_22  and  O_24
REMARK                            x       y       z     vdW  Elec       q    Type
REMARK                         _______ _______ _______ _____ _____    ______ ____
ROOT
ATOM      1  C   UNL     1       4.316   1.818  17.975  0.00  0.00    +0.000 C 
ATOM      2  C   UNL     1       3.371   2.978  18.195  0.00  0.00    +0.000 C 
ATOM      3  C   UNL     1       2.498   2.807  19.425  0.00  0.00    +0.000 C 
ATOM      4  C   UNL     1       3.292   4.058  17.366  0.00  0.00    +0.000 C 
ENDROOT
BRANCH   4   5
ATOM      5  N   UNL     1       4.069   4.110  16.210  0.00  0.00    +0.000 N 
ATOM      6  C   UNL     1       5.208   4.852  15.954  0.00  0.00    +0.000 C 
ATOM      7  O   UNL     1       5.700   5.714  16.669  0.00  0.00    +0.000 OA
ATOM      8  H   UNL     1       3.813   3.447  15.492  0.00  0.00    +0.000 HD
BRANCH   6   9
ATOM      9  C   UNL     1       5.895   4.565  14.667  0.00  0.00    +0.000 A 
ATOM     10  C   UNL     1       7.126   5.143  14.338  0.00  0.00    +0.000 A 
ATOM     11  C   UNL     1       7.707   4.866  13.098  0.00  0.00    +0.000 A 
ATOM     12  C   UNL     1       7.072   4.008  12.200  0.00  0.00    +0.000 A 
ATOM     13  C   UNL     1       5.870   3.393  12.547  0.00  0.00    +0.000 A 
ATOM     14  C   UNL     1       5.286   3.662  13.784  0.00  0.00    +0.000 A 
ENDBRANCH   6   9
ENDBRANCH   4   5
BRANCH   4  15
ATOM     15  C   UNL     1       2.410   5.225  17.810  0.00  0.00    +0.000 C 
ATOM     16  O   UNL     1       1.185   5.146  17.716  0.00  0.00    +0.000 OA
ATOM     17  N   UNL     1       3.063   6.361  18.226  0.00  0.00    +0.000 N 
ATOM     18  H   UNL     1       4.075   6.337  18.283  0.00  0.00    +0.000 HD
BRANCH  17  19
ATOM     19  C   UNL     1       2.421   7.512  18.714  0.00  0.00    +0.000 A 
ATOM     20  C   UNL     1       2.255   8.588  17.843  0.00  0.00    +0.000 A 
ATOM     21  C   UNL     1       1.502   9.694  18.241  0.00  0.00    +0.000 A 
ATOM     22  C   UNL     1       0.976   9.754  19.533  0.00  0.00    +0.000 A 
ATOM     23  C   UNL     1       1.214   8.715  20.441  0.00  0.00    +0.000 A 
ATOM     24  C   UNL     1       1.942   7.595  20.027  0.00  0.00    +0.000 A 
BRANCH  23  25
ATOM     25  C   UNL     1       0.716   8.876  21.832  0.00  0.00    +0.000 C 
ATOM     26  O   UNL     1      -0.408   8.554  22.165  0.00  0.00    +0.000 OA
BRANCH  25  27
ATOM     27  O   UNL     1       1.622   9.373  22.699  0.00  0.00    +0.000 OA
ATOM     28  H   UNL     1       2.555   9.270  22.433  0.00  0.00    +0.000 HD
ENDBRANCH  25  27
ENDBRANCH  23  25
ENDBRANCH  17  19
ENDBRANCH   4  15
TORSDOF 6
ENDMDL
MODEL 6
REMARK VINA RESULT:      -7.6      2.012      8.088
REMARK  Name = 
REMARK  8 active torsions:
REMARK  status: ('A' for Active; 'I' for Inactive)
REMARK    1  A    between atoms: C_1  and  C_2
REMARK    2  A    between atoms: C_2  and  C_3
REMARK    3  A    between atoms: C_4  and  N_5
REMARK    4  A    between atoms: C_4  and  C_14
REMARK    5  A    between atoms: C_6  and  C_8
REMARK    6  A    between atoms: N_16  and  C_17
REMARK    7  A    between atoms: C_21  and  C_22
REMARK    8  A    between atoms: C_22  and  O_24
REMARK                            x       y       z     vdW  Elec       q    Type
REMARK                         _______ _______ _______ _____ _____    ______ ____
ROOT
ATOM      1  C   UNL     1       4.490   1.955  18.107  0.00  0.00    +0.000 C 
ATOM      2  C   UNL     1       3.494   3.077  18.306  0.00  0.00    +0.000 C 
ATOM      3  C   UNL     1       2.672   2.923  19.573  0.00  0.00    +0.000 C 
ATOM      4  C   UNL     1       3.334   4.111  17.431  0.00  0.00    +0.000 C 
ENDROOT
BRANCH   4   5
ATOM      5  N   UNL     1       4.069   4.144  16.247  0.00  0.00    +0.000 N 
ATOM      6  C   UNL     1       5.193   4.890  15.936  0.00  0.00    +0.000 C 
ATOM      7  O   UNL     1       5.702   5.769  16.615  0.00  0.00    +0.000 OA
ATOM      8  H   UNL     1       3.793   3.464  15.553  0.00  0.00    +0.000 HD
BRANCH   6   9
ATOM      9  C   UNL     1       5.836   4.581  14.631  0.00  0.00    +0.000 A 
ATOM     10  C   UNL     1       5.226   3.755  13.681  0.00  0.00    +0.000 A 
ATOM     11  C   UNL     1       5.893   3.468  12.488  0.00  0.00    +0.000 A 
ATOM     12  C   UNL     1       7.154   4.013  12.239  0.00  0.00    +0.000 A 
ATOM     13  C   UNL     1       7.741   4.875  13.164  0.00  0.00    +0.000 A 
ATOM     14  C   UNL     1       7.078   5.168  14.355  0.00  0.00    +0.000 A 
ENDBRANCH   6   9
ENDBRANCH   4   5
BRANCH   4  15
ATOM     15  C   UNL     1       2.410   5.253  17.851  0.00  0.00    +0.000 C 
ATOM     16  O   UNL     1       1.190   5.142  17.724  0.00  0.00    +0.000 OA
ATOM     17  N   UNL     1       3.020   6.406  18.283  0.00  0.00    +0.000 N 
ATOM     18  H   UNL     1       4.031   6.410  18.368  0.00  0.00    +0.000 HD
BRANCH  17  19
ATOM     19  C   UNL     1       2.335   7.540  18.754  0.00  0.00    +0.000 A 
ATOM     20  C   UNL     1       2.003   8.533  17.834  0.00  0.00    +0.000 A 
ATOM     21  C   UNL     1       1.203   9.606  18.228  0.00  0.00    +0.000 A 
ATOM     22  C   UNL     1       0.795   9.722  19.559  0.00  0.00    +0.000 A 
ATOM     23  C   UNL     1       1.199   8.774  20.506  0.00  0.00    +0.000 A 
ATOM     24  C   UNL     1       1.974   7.684  20.099  0.00  0.00    +0.000 A 
BRANCH  23  25
ATOM     25  C   UNL     1       0.820   9.000  21.926  0.00  0.00    +0.000 C 
ATOM     26  O   UNL     1       1.611   9.398  22.758  0.00  0.00    +0.000 OA
BRANCH  25  27
ATOM     27  O   UNL     1      -0.479   8.763  22.206  0.00  0.00    +0.000 OA
ATOM     28  H   UNL     1      -0.718   8.813  23.150  0.00  0.00    +0.000 HD
ENDBRANCH  25  27
ENDBRANCH  23  25
ENDBRANCH  17  19
ENDBRANCH   4  15
TORSDOF 6
ENDMDL
MODEL 7
REMARK VINA RESULT:      -7.6      0.780      1.007
REMARK  Name = 
REMARK  8 active torsions:
REMARK  status: ('A' for Active; 'I' for Inactive)
REMARK    1  A    between atoms: C_1  and  C_2
REMARK    2  A    between atoms: C_2  and  C_3
REMARK    3  A    between atoms: C_4  and  N_5
REMARK    4  A    between atoms: C_4  and  C_14
REMARK    5  A    between atoms: C_6  and  C_8
REMARK    6  A    between atoms: N_16  and  C_17
REMARK    7  A    between atoms: C_21  and  C_22
REMARK    8  A    between atoms: C_22  and  O_24
REMARK                            x       y       z     vdW  Elec       q    Type
REMARK                         _______ _______ _______ _____ _____    ______ ____
ROOT
ATOM      1  C   UNL     1       1.090   3.278  19.953  0.00  0.00    +0.000 C 
ATOM      2  C   UNL     1       2.420   3.388  19.239  0.00  0.00    +0.000 C 
ATOM      3  C   UNL     1       2.971   2.044  18.799  0.00  0.00    +0.000 C 
ATOM      4  C   UNL     1       3.071   4.569  19.029  0.00  0.00    +0.000 C 
ENDROOT
BRANCH   4   5
ATOM      5  N   UNL     1       2.543   5.756  19.532  0.00  0.00    +0.000 N 
ATOM      6  C   UNL     1       2.572   7.028  18.985  0.00  0.00    +0.000 C 
ATOM      7  O   UNL     1       3.183   7.385  17.988  0.00  0.00    +0.000 OA
ATOM      8  H   UNL     1       1.985   5.657  20.369  0.00  0.00    +0.000 HD
BRANCH   6   9
ATOM      9  C   UNL     1       1.778   8.061  19.701  0.00  0.00    +0.000 A 
ATOM     10  C   UNL     1       1.334   9.226  19.067  0.00  0.00    +0.000 A 
ATOM     11  C   UNL     1       0.624  10.181  19.798  0.00  0.00    +0.000 A 
ATOM     12  C   UNL     1       0.346   9.967  21.149  0.00  0.00    +0.000 A 
ATOM     13  C   UNL     1       0.745   8.784  21.770  0.00  0.00    +0.000 A 
ATOM     14  C   UNL     1       1.451   7.825  21.044  0.00  0.00    +0.000 A 
ENDBRANCH   6   9
ENDBRANCH   4   5
BRANCH   4  15
ATOM     15  C   UNL     1       4.319   4.537  18.149  0.00  0.00    +0.000 C 
ATOM     16  O   UNL     1       5.425   4.330  18.649  0.00  0.00    +0.000 OA
ATOM     17  N   UNL     1       4.137   4.836  16.820  0.00  0.00    +0.000 N 
ATOM     18  H   UNL     1       3.191   4.985  16.487  0.00  0.00    +0.000 HD
BRANCH  17  19
ATOM     19  C   UNL     1       5.157   4.809  15.852  0.00  0.00    +0.000 A 
ATOM     20  C   UNL     1       6.353   5.464  16.144  0.00  0.00    +0.000 A 
ATOM     21  C   UNL     1       7.439   5.346  15.276  0.00  0.00    +0.000 A 
ATOM     22  C   UNL     1       7.307   4.632  14.084  0.00  0.00    +0.000 A 
ATOM     23  C   UNL     1       6.082   4.046  13.744  0.00  0.00    +0.000 A 
ATOM     24  C   UNL     1       5.006   4.141  14.632  0.00  0.00    +0.000 A 
BRANCH  23  25
ATOM     25  C   UNL     1       5.969   3.384  12.417  0.00  0.00    +0.000 C 
ATOM     26  O   UNL     1       6.923   2.886  11.851  0.00  0.00    +0.000 OA
BRANCH  25  27
ATOM     27  O   UNL     1       4.718   3.349  11.912  0.00  0.00    +0.000 OA
ATOM     28  H   UNL     1       4.413   2.472  11.614  0.00  0.00    +0.000 HD
ENDBRANCH  25  27
ENDBRANCH  23  25
ENDBRANCH  17  19
ENDBRANCH   4  15
TORSDOF 6
ENDMDL
MODEL 8
REMARK VINA RESULT:      -7.6      2.333      8.035
REMARK  Name = 
REMARK  8 active torsions:
REMARK  status: ('A' for Active; 'I' for Inactive)
REMARK    1  A    between atoms: C_1  and  C_2
REMARK    2  A    between atoms: C_2  and  C_3
REMARK    3  A    between atoms: C_4  and  N_5
REMARK    4  A    between atoms: C_4  and  C_14
REMARK    5  A    between atoms: C_6  and  C_8
REMARK    6  A    between atoms: N_16  and  C_17
REMARK    7  A    between atoms: C_21  and  C_22
REMARK    8  A    between atoms: C_22  and  O_24
REMARK                            x       y       z     vdW  Elec       q    Type
REMARK                         _______ _______ _______ _____ _____    ______ ____
ROOT
ATOM      1  C   UNL     1       4.091   2.308  20.549  0.00  0.00    +0.000 C 
ATOM      2  C   UNL     1       3.060   3.410  20.658  0.00  0.00    +0.000 C 
ATOM      3  C   UNL     1       2.097   3.208  21.815  0.00  0.00    +0.000 C 
ATOM      4  C   UNL     1       2.986   4.466  19.798  0.00  0.00    +0.000 C 
ENDROOT
BRANCH   4   5
ATOM      5  N   UNL     1       3.855   4.543  18.712  0.00  0.00    +0.000 N 
ATOM      6  C   UNL     1       3.674   4.100  17.413  0.00  0.00    +0.000 C 
ATOM      7  O   UNL     1       2.741   3.434  16.987  0.00  0.00    +0.000 OA
ATOM      8  H   UNL     1       4.698   5.077  18.874  0.00  0.00    +0.000 HD
BRANCH   6   9
ATOM      9  C   UNL     1       4.738   4.474  16.444  0.00  0.00    +0.000 A 
ATOM     10  C   UNL     1       5.057   5.809  16.172  0.00  0.00    +0.000 A 
ATOM     11  C   UNL     1       6.040   6.103  15.225  0.00  0.00    +0.000 A 
ATOM     12  C   UNL     1       6.710   5.072  14.563  0.00  0.00    +0.000 A 
ATOM     13  C   UNL     1       6.427   3.742  14.870  0.00  0.00    +0.000 A 
ATOM     14  C   UNL     1       5.450   3.442  15.818  0.00  0.00    +0.000 A 
ENDBRANCH   6   9
ENDBRANCH   4   5
BRANCH   4  15
ATOM     15  C   UNL     1       1.999   5.582  20.137  0.00  0.00    +0.000 C 
ATOM     16  O   UNL     1       0.860   5.308  20.513  0.00  0.00    +0.000 OA
ATOM     17  N   UNL     1       2.431   6.868  19.916  0.00  0.00    +0.000 N 
ATOM     18  H   UNL     1       3.390   7.006  19.614  0.00  0.00    +0.000 HD
BRANCH  17  19
ATOM     19  C   UNL     1       1.683   8.020  20.213  0.00  0.00    +0.000 A 
ATOM     20  C   UNL     1       1.401   8.905  19.172  0.00  0.00    +0.000 A 
ATOM     21  C   UNL     1       0.546   9.985  19.391  0.00  0.00    +0.000 A 
ATOM     22  C   UNL     1       0.029  10.221  20.666  0.00  0.00    +0.000 A 
ATOM     23  C   UNL     1       0.378   9.387  21.734  0.00  0.00    +0.000 A 
ATOM     24  C   UNL     1       1.210   8.287  21.503  0.00  0.00    +0.000 A 
BRANCH  23  25
ATOM     25  C   UNL     1      -0.120   9.742  23.089  0.00  0.00    +0.000 C 
ATOM     26  O   UNL     1      -1.234  10.191  23.279  0.00  0.00    +0.000 OA
BRANCH  25  27
ATOM     27  O   UNL     1       0.749   9.492  24.091  0.00  0.00    +0.000 OA
ATOM     28  H   UNL     1       0.506   8.752  24.680  0.00  0.00    +0.000 HD
ENDBRANCH  25  27
ENDBRANCH  23  25
ENDBRANCH  17  19
ENDBRANCH   4  15
TORSDOF 6
ENDMDL
MODEL 9
REMARK VINA RESULT:      -7.6      4.090      8.346
REMARK  Name = 
REMARK  8 active torsions:
REMARK  status: ('A' for Active; 'I' for Inactive)
REMARK    1  A    between atoms: C_1  and  C_2
REMARK    2  A    between atoms: C_2  and  C_3
REMARK    3  A    between atoms: C_4  and  N_5
REMARK    4  A    between atoms: C_4  and  C_14
REMARK    5  A    between atoms: C_6  and  C_8
REMARK    6  A    between atoms: N_16  and  C_17
REMARK    7  A    between atoms: C_21  and  C_22
REMARK    8  A    between atoms: C_22  and  O_24
REMARK                            x       y       z     vdW  Elec       q    Type
REMARK                         _______ _______ _______ _____ _____    ______ ____
ROOT
ATOM      1  C   UNL     1       1.585   9.541  22.279  0.00  0.00    +0.000 C 
ATOM      2  C   UNL     1       0.618  10.042  21.229  0.00  0.00    +0.000 C 
ATOM      3  C   UNL     1      -0.328  11.107  21.755  0.00  0.00    +0.000 C 
ATOM      4  C   UNL     1       0.581   9.575  19.948  0.00  0.00    +0.000 C 
ENDROOT
BRANCH   4   5
ATOM      5  N   UNL     1       1.428   8.540  19.558  0.00  0.00    +0.000 N 
ATOM      6  C   UNL     1       2.144   8.390  18.382  0.00  0.00    +0.000 C 
ATOM      7  O   UNL     1       2.079   9.098  17.388  0.00  0.00    +0.000 OA
ATOM      8  H   UNL     1       1.613   7.846  20.269  0.00  0.00    +0.000 HD
BRANCH   6   9
ATOM      9  C   UNL     1       3.083   7.238  18.336  0.00  0.00    +0.000 A 
ATOM     10  C   UNL     1       4.011   7.078  17.302  0.00  0.00    +0.000 A 
ATOM     11  C   UNL     1       4.843   5.957  17.289  0.00  0.00    +0.000 A 
ATOM     12  C   UNL     1       4.760   5.008  18.309  0.00  0.00    +0.000 A 
ATOM     13  C   UNL     1       3.870   5.191  19.367  0.00  0.00    +0.000 A 
ATOM     14  C   UNL     1       3.039   6.311  19.387  0.00  0.00    +0.000 A 
ENDBRANCH   6   9
ENDBRANCH   4   5
BRANCH   4  15
ATOM     15  C   UNL     1      -0.336  10.296  18.961  0.00  0.00    +0.000 C 
ATOM     16  O   UNL     1      -0.015  11.394  18.506  0.00  0.00    +0.000 OA
ATOM     17  N   UNL     1      -1.543   9.695  18.697  0.00  0.00    +0.000 N 
ATOM     18  H   UNL     1      -1.724   8.785  19.106  0.00  0.00    +0.000 HD
BRANCH  17  19
ATOM     19  C   UNL     1      -2.492  10.184  17.782  0.00  0.00    +0.000 A 
ATOM     20  C   UNL     1      -3.441  11.094  18.247  0.00  0.00    +0.000 A 
ATOM     21  C   UNL     1      -4.310  11.711  17.348  0.00  0.00    +0.000 A 
ATOM     22  C   UNL     1      -4.278  11.366  15.996  0.00  0.00    +0.000 A 
ATOM     23  C   UNL     1      -3.387  10.390  15.537  0.00  0.00    +0.000 A 
ATOM     24  C   UNL     1      -2.496   9.797  16.437  0.00  0.00    +0.000 A 
BRANCH  23  25
ATOM     25  C   UNL     1      -3.464   9.989  14.107  0.00  0.00    +0.000 C 
ATOM     26  O   UNL     1      -2.474   9.817  13.423  0.00  0.00    +0.000 OA
BRANCH  25  27
ATOM     27  O   UNL     1      -4.717   9.800  13.643  0.00  0.00    +0.000 OA
ATOM     28  H   UNL     1      -4.982   8.868  13.525  0.00  0.00    +0.000 HD
ENDBRANCH  25  27
ENDBRANCH  23  25
ENDBRANCH  17  19
ENDBRANCH   4  15
TORSDOF 6
ENDMDL
