MODEL 1
REMARK VINA RESULT:      -7.0      0.000      0.000
REMARK  Name = 
REMARK  12 active torsions:
REMARK  status: ('A' for Active; 'I' for Inactive)
REMARK    1  A    between atoms: C_1  and  O_2
REMARK    2  A    between atoms: O_2  and  C_3
REMARK    3  A    between atoms: C_3  and  C_4
REMARK    4  A    between atoms: C_4  and  C_5
REMARK    5  A    between atoms: C_5  and  N_6
REMARK    6  A    between atoms: N_6  and  C_7
REMARK    7  A    between atoms: C_7  and  C_8
REMARK    8  A    between atoms: C_8  and  C_10
REMARK    9  A    between atoms: C_11  and  N_12
REMARK   10  A    between atoms: N_13  and  C_14
REMARK   11  A    between atoms: C_14  and  C_15
REMARK   12  A    between atoms: N_23  and  C_24
REMARK                            x       y       z     vdW  Elec       q    Type
REMARK                         _______ _______ _______ _____ _____    ______ ____
ROOT
ATOM      1  C   UNL     1       5.328   4.906  18.742  0.00  0.00    +0.000 A 
ATOM      2  C   UNL     1       4.638   5.951  18.231  0.00  0.00    +0.000 A 
ATOM      3  N   UNL     1       3.252   5.839  18.089  0.00  0.00    +0.000 N 
ATOM      4  C   UNL     1       2.557   4.650  18.291  0.00  0.00    +0.000 A 
ATOM      5  O   UNL     1       1.376   4.507  17.966  0.00  0.00    +0.000 OA
ATOM      6  N   UNL     1       3.264   3.634  18.906  0.00  0.00    +0.000 N 
ATOM      7  C   UNL     1       2.568   2.424  19.313  0.00  0.00    +0.000 C 
ATOM      8  C   UNL     1       4.613   3.692  19.190  0.00  0.00    +0.000 A 
ATOM      9  O   UNL     1       5.191   2.808  19.818  0.00  0.00    +0.000 OA
ENDROOT
BRANCH   2  10
ATOM     10  N   UNL     1       5.278   7.103  17.793  0.00  0.00    +0.000 N 
ATOM     11  H   UNL     1       4.692   7.659  17.158  0.00  0.00    +0.000 HD
ATOM     12  H   UNL     1       6.177   6.921  17.351  0.00  0.00    +0.000 HD
ENDBRANCH   2  10
BRANCH   1  13
ATOM     13  C   UNL     1       6.829   4.975  18.836  0.00  0.00    +0.000 C 
ATOM     14  O   UNL     1       7.381   5.431  19.846  0.00  0.00    +0.000 OA
BRANCH  13  15
ATOM     15  C   UNL     1       7.669   4.551  17.634  0.00  0.00    +0.000 C 
BRANCH  15  16
ATOM     16  N   UNL     1       7.519   5.498  16.517  0.00  0.00    +0.000 NA
ATOM     17  H   UNL     1       6.749   6.134  16.727  0.00  0.00    +0.000 HD
BRANCH  16  18
ATOM     18  C   UNL     1       7.268   4.809  15.253  0.00  0.00    +0.000 C 
BRANCH  18  19
ATOM     19  C   UNL     1       5.924   4.095  15.307  0.00  0.00    +0.000 C 
BRANCH  19  20
ATOM     20  C   UNL     1       5.367   3.944  13.899  0.00  0.00    +0.000 C 
BRANCH  20  22
ATOM     21  C   UNL     1       6.080   2.976  11.883  0.00  0.00    +0.000 C 
ATOM     22  O   UNL     1       6.453   3.782  12.993  0.00  0.00    +0.000 OA
ENDBRANCH  20  22
ENDBRANCH  19  20
ENDBRANCH  18  19
ENDBRANCH  16  18
ENDBRANCH  15  16
ENDBRANCH  13  15
ENDBRANCH   1  13
BRANCH   3  23
ATOM     23  C   UNL     1       2.462   6.988  17.600  0.00  0.00    +0.000 C 
BRANCH  23  24
ATOM     24  C   UNL     1       2.006   7.964  18.678  0.00  0.00    +0.000 A 
ATOM     25  C   UNL     1       1.510   9.222  18.296  0.00  0.00    +0.000 A 
ATOM     26  C   UNL     1       0.895  10.066  19.228  0.00  0.00    +0.000 A 
ATOM     27  C   UNL     1       0.772   9.666  20.557  0.00  0.00    +0.000 A 
ATOM     28  C   UNL     1       1.294   8.441  20.962  0.00  0.00    +0.000 A 
ATOM     29  C   UNL     1       1.911   7.598  20.033  0.00  0.00    +0.000 A 
ENDBRANCH  23  24
ENDBRANCH   3  23
TORSDOF 10
ENDMDL
MODEL 2
REMARK VINA RESULT:      -6.5      0.511      1.072
REMARK  Name = 
REMARK  12 active torsions:
REMARK  status: ('A' for Active; 'I' for Inactive)
REMARK    1  A    between atoms: C_1  and  O_2
REMARK    2  A    between atoms: O_2  and  C_3
REMARK    3  A    between atoms: C_3  and  C_4
REMARK    4  A    between atoms: C_4  and  C_5
REMARK    5  A    between atoms: C_5  and  N_6
REMARK    6  A    between atoms: N_6  and  C_7
REMARK    7  A    between atoms: C_7  and  C_8
REMARK    8  A    between atoms: C_8  and  C_10
REMARK    9  A    between atoms: C_11  and  N_12
REMARK   10  A    between atoms: N_13  and  C_14
REMARK   11  A    between atoms: C_14  and  C_15
REMARK   12  A    between atoms: N_23  and  C_24
REMARK                            x       y       z     vdW  Elec       q    Type
REMARK                         _______ _______ _______ _____ _____    ______ ____
ROOT
ATOM      1  C   UNL     1       5.381   4.991  18.756  0.00  0.00    +0.000 A 
ATOM      2  C   UNL     1       4.766   6.058  18.197  0.00  0.00    +0.000 A 
ATOM      3  N   UNL     1       3.395   5.987  17.938  0.00  0.00    +0.000 N 
ATOM      4  C   UNL     1       2.652   4.816  18.071  0.00  0.00    +0.000 A 
ATOM      5  O   UNL     1       1.499   4.709  17.647  0.00  0.00    +0.000 OA
ATOM      6  N   UNL     1       3.276   3.776  18.734  0.00  0.00    +0.000 N 
ATOM      7  C   UNL     1       2.515   2.585  19.072  0.00  0.00    +0.000 C 
ATOM      8  C   UNL     1       4.598   3.795  19.131  0.00  0.00    +0.000 A 
ATOM      9  O   UNL     1       5.096   2.890  19.799  0.00  0.00    +0.000 OA
ENDROOT
BRANCH   2  10
ATOM     10  N   UNL     1       5.473   7.193  17.824  0.00  0.00    +0.000 N 
ATOM     11  H   UNL     1       6.491   7.049  17.857  0.00  0.00    +0.000 HD
ATOM     12  H   UNL     1       5.231   8.017  18.372  0.00  0.00    +0.000 HD
ENDBRANCH   2  10
BRANCH   1  13
ATOM     13  C   UNL     1       6.871   5.016  18.975  0.00  0.00    +0.000 C 
ATOM     14  O   UNL     1       7.348   5.468  20.024  0.00  0.00    +0.000 OA
BRANCH  13  15
ATOM     15  C   UNL     1       7.795   4.552  17.853  0.00  0.00    +0.000 C 
BRANCH  15  16
ATOM     16  N   UNL     1       7.029   4.132  16.669  0.00  0.00    +0.000 NA
ATOM     17  H   UNL     1       7.299   3.178  16.425  0.00  0.00    +0.000 HD
BRANCH  16  18
ATOM     18  C   UNL     1       7.259   5.022  15.532  0.00  0.00    +0.000 C 
BRANCH  18  19
ATOM     19  C   UNL     1       6.009   5.094  14.666  0.00  0.00    +0.000 C 
BRANCH  19  20
ATOM     20  C   UNL     1       5.633   3.697  14.192  0.00  0.00    +0.000 C 
BRANCH  20  22
ATOM     21  C   UNL     1       6.686   3.524  12.102  0.00  0.00    +0.000 C 
ATOM     22  O   UNL     1       5.453   3.726  12.780  0.00  0.00    +0.000 OA
ENDBRANCH  20  22
ENDBRANCH  19  20
ENDBRANCH  18  19
ENDBRANCH  16  18
ENDBRANCH  15  16
ENDBRANCH  13  15
ENDBRANCH   1  13
BRANCH   3  23
ATOM     23  C   UNL     1       2.681   7.160  17.395  0.00  0.00    +0.000 C 
BRANCH  23  24
ATOM     24  C   UNL     1       1.929   7.994  18.425  0.00  0.00    +0.000 A 
ATOM     25  C   UNL     1       1.974   7.615  19.777  0.00  0.00    +0.000 A 
ATOM     26  C   UNL     1       1.473   8.456  20.777  0.00  0.00    +0.000 A 
ATOM     27  C   UNL     1       0.916   9.687  20.439  0.00  0.00    +0.000 A 
ATOM     28  C   UNL     1       0.825  10.061  19.102  0.00  0.00    +0.000 A 
ATOM     29  C   UNL     1       1.322   9.221  18.101  0.00  0.00    +0.000 A 
ENDBRANCH  23  24
ENDBRANCH   3  23
TORSDOF 10
ENDMDL
MODEL 3
REMARK VINA RESULT:      -6.3      2.594      4.709
REMARK  Name = 
REMARK  12 active torsions:
REMARK  status: ('A' for Active; 'I' for Inactive)
REMARK    1  A    between atoms: C_1  and  O_2
REMARK    2  A    between atoms: O_2  and  C_3
REMARK    3  A    between atoms: C_3  and  C_4
REMARK    4  A    between atoms: C_4  and  C_5
REMARK    5  A    between atoms: C_5  and  N_6
REMARK    6  A    between atoms: N_6  and  C_7
REMARK    7  A    between atoms: C_7  and  C_8
REMARK    8  A    between atoms: C_8  and  C_10
REMARK    9  A    between atoms: C_11  and  N_12
REMARK   10  A    between atoms: N_13  and  C_14
REMARK   11  A    between atoms: C_14  and  C_15
REMARK   12  A    between atoms: N_23  and  C_24
REMARK                            x       y       z     vdW  Elec       q    Type
REMARK                         _______ _______ _______ _____ _____    ______ ____
ROOT
ATOM      1  C   UNL     1       6.008   4.876  16.354  0.00  0.00    +0.000 A 
ATOM      2  C   UNL     1       5.400   4.109  17.287  0.00  0.00    +0.000 A 
ATOM      3  N   UNL     1       5.686   4.335  18.637  0.00  0.00    +0.000 N 
ATOM      4  C   UNL     1       6.688   5.199  19.071  0.00  0.00    +0.000 A 
ATOM      5  O   UNL     1       7.071   5.237  20.243  0.00  0.00    +0.000 OA
ATOM      6  N   UNL     1       7.220   6.039  18.111  0.00  0.00    +0.000 N 
ATOM      7  C   UNL     1       8.141   7.089  18.512  0.00  0.00    +0.000 C 
ATOM      8  C   UNL     1       6.916   5.968  16.767  0.00  0.00    +0.000 A 
ATOM      9  O   UNL     1       7.338   6.788  15.953  0.00  0.00    +0.000 OA
ENDROOT
BRANCH   2  10
ATOM     10  N   UNL     1       4.549   3.071  16.935  0.00  0.00    +0.000 N 
ATOM     11  H   UNL     1       3.578   3.386  16.808  0.00  0.00    +0.000 HD
ATOM     12  H   UNL     1       4.568   2.292  17.591  0.00  0.00    +0.000 HD
ENDBRANCH   2  10
BRANCH   1  13
ATOM     13  C   UNL     1       5.774   4.603  14.892  0.00  0.00    +0.000 C 
ATOM     14  O   UNL     1       4.633   4.653  14.413  0.00  0.00    +0.000 OA
BRANCH  13  15
ATOM     15  C   UNL     1       6.951   4.181  14.017  0.00  0.00    +0.000 C 
BRANCH  15  16
ATOM     16  N   UNL     1       6.568   3.103  13.090  0.00  0.00    +0.000 NA
ATOM     17  H   UNL     1       7.392   2.535  12.891  0.00  0.00    +0.000 HD
BRANCH  16  18
ATOM     18  C   UNL     1       6.012   3.632  11.846  0.00  0.00    +0.000 C 
BRANCH  18  19
ATOM     19  C   UNL     1       4.895   2.725  11.347  0.00  0.00    +0.000 C 
BRANCH  19  20
ATOM     20  C   UNL     1       3.642   3.550  11.092  0.00  0.00    +0.000 C 
BRANCH  20  22
ATOM     21  C   UNL     1       2.558   4.574   9.279  0.00  0.00    +0.000 C 
ATOM     22  O   UNL     1       3.296   3.440   9.715  0.00  0.00    +0.000 OA
ENDBRANCH  20  22
ENDBRANCH  19  20
ENDBRANCH  18  19
ENDBRANCH  16  18
ENDBRANCH  15  16
ENDBRANCH  13  15
ENDBRANCH   1  13
BRANCH   3  23
ATOM     23  C   UNL     1       4.985   3.562  19.682  0.00  0.00    +0.000 C 
BRANCH  23  24
ATOM     24  C   UNL     1       3.502   3.876  19.834  0.00  0.00    +0.000 A 
ATOM     25  C   UNL     1       2.587   2.818  19.964  0.00  0.00    +0.000 A 
ATOM     26  C   UNL     1       1.252   3.058  20.307  0.00  0.00    +0.000 A 
ATOM     27  C   UNL     1       0.810   4.362  20.520  0.00  0.00    +0.000 A 
ATOM     28  C   UNL     1       1.691   5.426  20.356  0.00  0.00    +0.000 A 
ATOM     29  C   UNL     1       3.025   5.188  20.010  0.00  0.00    +0.000 A 
ENDBRANCH  23  24
ENDBRANCH   3  23
TORSDOF 10
ENDMDL
MODEL 4
REMARK VINA RESULT:      -6.2      1.928      6.630
REMARK  Name = 
REMARK  12 active torsions:
REMARK  status: ('A' for Active; 'I' for Inactive)
REMARK    1  A    between atoms: C_1  and  O_2
REMARK    2  A    between atoms: O_2  and  C_3
REMARK    3  A    between atoms: C_3  and  C_4
REMARK    4  A    between atoms: C_4  and  C_5
REMARK    5  A    between atoms: C_5  and  N_6
REMARK    6  A    between atoms: N_6  and  C_7
REMARK    7  A    between atoms: C_7  and  C_8
REMARK    8  A    between atoms: C_8  and  C_10
REMARK    9  A    between atoms: C_11  and  N_12
REMARK   10  A    between atoms: N_13  and  C_14
REMARK   11  A    between atoms: C_14  and  C_15
REMARK   12  A    between atoms: N_23  and  C_24
REMARK                            x       y       z     vdW  Elec       q    Type
REMARK                         _______ _______ _______ _____ _____    ______ ____
ROOT
ATOM      1  C   UNL     1       5.301   4.584  18.651  0.00  0.00    +0.000 A 
ATOM      2  C   UNL     1       4.879   4.781  17.381  0.00  0.00    +0.000 A 
ATOM      3  N   UNL     1       5.565   5.694  16.576  0.00  0.00    +0.000 N 
ATOM      4  C   UNL     1       6.562   6.538  17.058  0.00  0.00    +0.000 A 
ATOM      5  O   UNL     1       7.015   7.477  16.398  0.00  0.00    +0.000 OA
ATOM      6  N   UNL     1       7.041   6.248  18.322  0.00  0.00    +0.000 N 
ATOM      7  C   UNL     1       8.199   6.966  18.830  0.00  0.00    +0.000 C 
ATOM      8  C   UNL     1       6.501   5.287  19.152  0.00  0.00    +0.000 A 
ATOM      9  O   UNL     1       7.007   4.993  20.233  0.00  0.00    +0.000 OA
ENDROOT
BRANCH   2  10
ATOM     10  N   UNL     1       3.751   4.144  16.881  0.00  0.00    +0.000 N 
ATOM     11  H   UNL     1       2.897   4.399  17.395  0.00  0.00    +0.000 HD
ATOM     12  H   UNL     1       3.839   3.130  16.856  0.00  0.00    +0.000 HD
ENDBRANCH   2  10
BRANCH   1  13
ATOM     13  C   UNL     1       4.533   3.662  19.560  0.00  0.00    +0.000 C 
ATOM     14  O   UNL     1       4.921   2.503  19.760  0.00  0.00    +0.000 OA
BRANCH  13  15
ATOM     15  C   UNL     1       3.222   4.144  20.173  0.00  0.00    +0.000 C 
BRANCH  15  16
ATOM     16  N   UNL     1       3.215   5.607  20.337  0.00  0.00    +0.000 NA
ATOM     17  H   UNL     1       3.341   5.826  21.326  0.00  0.00    +0.000 HD
BRANCH  16  18
ATOM     18  C   UNL     1       1.971   6.200  19.848  0.00  0.00    +0.000 C 
BRANCH  18  19
ATOM     19  C   UNL     1       2.215   7.640  19.418  0.00  0.00    +0.000 C 
BRANCH  19  20
ATOM     20  C   UNL     1       2.727   7.667  17.985  0.00  0.00    +0.000 C 
BRANCH  20  22
ATOM     21  C   UNL     1       1.325   9.541  18.156  0.00  0.00    +0.000 C 
ATOM     22  O   UNL     1       2.318   8.888  17.377  0.00  0.00    +0.000 OA
ENDBRANCH  20  22
ENDBRANCH  19  20
ENDBRANCH  18  19
ENDBRANCH  16  18
ENDBRANCH  15  16
ENDBRANCH  13  15
ENDBRANCH   1  13
BRANCH   3  23
ATOM     23  C   UNL     1       5.173   5.879  15.164  0.00  0.00    +0.000 C 
BRANCH  23  24
ATOM     24  C   UNL     1       5.896   4.980  14.169  0.00  0.00    +0.000 A 
ATOM     25  C   UNL     1       5.182   3.953  13.529  0.00  0.00    +0.000 A 
ATOM     26  C   UNL     1       5.745   3.238  12.467  0.00  0.00    +0.000 A 
ATOM     27  C   UNL     1       7.034   3.536  12.031  0.00  0.00    +0.000 A 
ATOM     28  C   UNL     1       7.773   4.522  12.679  0.00  0.00    +0.000 A 
ATOM     29  C   UNL     1       7.212   5.236  13.743  0.00  0.00    +0.000 A 
ENDBRANCH  23  24
ENDBRANCH   3  23
TORSDOF 10
ENDMDL
MODEL 5
REMARK VINA RESULT:      -6.2      0.982      1.420
REMARK  Name = 
REMARK  12 active torsions:
REMARK  status: ('A' for Active; 'I' for Inactive)
REMARK    1  A    between atoms: C_1  and  O_2
REMARK    2  A    between atoms: O_2  and  C_3
REMARK    3  A    between atoms: C_3  and  C_4
REMARK    4  A    between atoms: C_4  and  C_5
REMARK    5  A    between atoms: C_5  and  N_6
REMARK    6  A    between atoms: N_6  and  C_7
REMARK    7  A    between atoms: C_7  and  C_8
REMARK    8  A    between atoms: C_8  and  C_10
REMARK    9  A    between atoms: C_11  and  N_12
REMARK   10  A    between atoms: N_13  and  C_14
REMARK   11  A    between atoms: C_14  and  C_15
REMARK   12  A    between atoms: N_23  and  C_24
REMARK                            x       y       z     vdW  Elec       q    Type
REMARK                         _______ _______ _______ _____ _____    ______ ____
ROOT
ATOM      1  C   UNL     1       5.241   4.964  18.906  0.00  0.00    +0.000 A 
ATOM      2  C   UNL     1       4.577   6.021  18.384  0.00  0.00    +0.000 A 
ATOM      3  N   UNL     1       3.195   5.924  18.197  0.00  0.00    +0.000 N 
ATOM      4  C   UNL     1       2.484   4.739  18.364  0.00  0.00    +0.000 A 
ATOM      5  O   UNL     1       1.312   4.611  18.000  0.00  0.00    +0.000 OA
ATOM      6  N   UNL     1       3.161   3.710  18.990  0.00  0.00    +0.000 N 
ATOM      7  C   UNL     1       2.442   2.502  19.362  0.00  0.00    +0.000 C 
ATOM      8  C   UNL     1       4.501   3.752  19.318  0.00  0.00    +0.000 A 
ATOM      9  O   UNL     1       5.050   2.856  19.954  0.00  0.00    +0.000 OA
ENDROOT
BRANCH   2  10
ATOM     10  N   UNL     1       5.241   7.171  17.980  0.00  0.00    +0.000 N 
ATOM     11  H   UNL     1       4.800   7.610  17.161  0.00  0.00    +0.000 HD
ATOM     12  H   UNL     1       6.230   7.020  17.790  0.00  0.00    +0.000 HD
ENDBRANCH   2  10
BRANCH   1  13
ATOM     13  C   UNL     1       6.739   5.018  19.048  0.00  0.00    +0.000 C 
ATOM     14  O   UNL     1       7.262   5.463  20.078  0.00  0.00    +0.000 OA
BRANCH  13  15
ATOM     15  C   UNL     1       7.612   4.591  17.872  0.00  0.00    +0.000 C 
BRANCH  15  16
ATOM     16  N   UNL     1       6.809   3.964  16.809  0.00  0.00    +0.000 NA
ATOM     17  H   UNL     1       7.223   3.062  16.575  0.00  0.00    +0.000 HD
BRANCH  16  18
ATOM     18  C   UNL     1       6.738   4.806  15.616  0.00  0.00    +0.000 C 
BRANCH  18  19
ATOM     19  C   UNL     1       6.253   3.988  14.428  0.00  0.00    +0.000 C 
BRANCH  19  20
ATOM     20  C   UNL     1       6.991   4.424  13.170  0.00  0.00    +0.000 C 
BRANCH  20  22
ATOM     21  C   UNL     1       8.469   6.067  12.379  0.00  0.00    +0.000 C 
ATOM     22  O   UNL     1       7.971   5.393  13.528  0.00  0.00    +0.000 OA
ENDBRANCH  20  22
ENDBRANCH  19  20
ENDBRANCH  18  19
ENDBRANCH  16  18
ENDBRANCH  15  16
ENDBRANCH  13  15
ENDBRANCH   1  13
BRANCH   3  23
ATOM     23  C   UNL     1       2.432   7.085  17.696  0.00  0.00    +0.000 C 
BRANCH  23  24
ATOM     24  C   UNL     1       1.789   7.949  18.773  0.00  0.00    +0.000 A 
ATOM     25  C   UNL     1       1.799   7.504  20.105  0.00  0.00    +0.000 A 
ATOM     26  C   UNL     1       1.406   8.348  21.149  0.00  0.00    +0.000 A 
ATOM     27  C   UNL     1       0.991   9.650  20.877  0.00  0.00    +0.000 A 
ATOM     28  C   UNL     1       0.935  10.096  19.560  0.00  0.00    +0.000 A 
ATOM     29  C   UNL     1       1.325   9.252  18.514  0.00  0.00    +0.000 A 
ENDBRANCH  23  24
ENDBRANCH   3  23
TORSDOF 10
ENDMDL
MODEL 6
REMARK VINA RESULT:      -6.2      2.600      6.573
REMARK  Name = 
REMARK  12 active torsions:
REMARK  status: ('A' for Active; 'I' for Inactive)
REMARK    1  A    between atoms: C_1  and  O_2
REMARK    2  A    between atoms: O_2  and  C_3
REMARK    3  A    between atoms: C_3  and  C_4
REMARK    4  A    between atoms: C_4  and  C_5
REMARK    5  A    between atoms: C_5  and  N_6
REMARK    6  A    between atoms: N_6  and  C_7
REMARK    7  A    between atoms: C_7  and  C_8
REMARK    8  A    between atoms: C_8  and  C_10
REMARK    9  A    between atoms: C_11  and  N_12
REMARK   10  A    between atoms: N_13  and  C_14
REMARK   11  A    between atoms: C_14  and  C_15
REMARK   12  A    between atoms: N_23  and  C_24
REMARK                            x       y       z     vdW  Elec       q    Type
REMARK                         _______ _______ _______ _____ _____    ______ ____
ROOT
ATOM      1  C   UNL     1       5.532   4.625  18.745  0.00  0.00    +0.000 A 
ATOM      2  C   UNL     1       5.064   4.809  17.490  0.00  0.00    +0.000 A 
ATOM      3  N   UNL     1       5.679   5.761  16.673  0.00  0.00    +0.000 N 
ATOM      4  C   UNL     1       6.646   6.651  17.133  0.00  0.00    +0.000 A 
ATOM      5  O   UNL     1       7.032   7.615  16.468  0.00  0.00    +0.000 OA
ATOM      6  N   UNL     1       7.176   6.377  18.380  0.00  0.00    +0.000 N 
ATOM      7  C   UNL     1       8.311   7.149  18.860  0.00  0.00    +0.000 C 
ATOM      8  C   UNL     1       6.710   5.384  19.217  0.00  0.00    +0.000 A 
ATOM      9  O   UNL     1       7.261   5.109  20.281  0.00  0.00    +0.000 OA
ENDROOT
BRANCH   2  10
ATOM     10  N   UNL     1       3.956   4.118  17.018  0.00  0.00    +0.000 N 
ATOM     11  H   UNL     1       3.984   3.119  17.260  0.00  0.00    +0.000 HD
ATOM     12  H   UNL     1       3.815   4.219  16.014  0.00  0.00    +0.000 HD
ENDBRANCH   2  10
BRANCH   1  13
ATOM     13  C   UNL     1       4.839   3.659  19.669  0.00  0.00    +0.000 C 
ATOM     14  O   UNL     1       5.093   2.448  19.625  0.00  0.00    +0.000 OA
BRANCH  13  15
ATOM     15  C   UNL     1       3.755   4.177  20.609  0.00  0.00    +0.000 C 
BRANCH  15  16
ATOM     16  N   UNL     1       2.881   5.150  19.933  0.00  0.00    +0.000 NA
ATOM     17  H   UNL     1       3.255   6.087  20.086  0.00  0.00    +0.000 HD
BRANCH  16  18
ATOM     18  C   UNL     1       1.506   5.075  20.422  0.00  0.00    +0.000 C 
BRANCH  18  19
ATOM     19  C   UNL     1       1.096   3.619  20.600  0.00  0.00    +0.000 C 
BRANCH  19  20
ATOM     20  C   UNL     1       0.443   3.111  19.323  0.00  0.00    +0.000 C 
BRANCH  20  22
ATOM     21  C   UNL     1       2.032   1.600  18.486  0.00  0.00    +0.000 C 
ATOM     22  O   UNL     1       1.457   2.893  18.347  0.00  0.00    +0.000 OA
ENDBRANCH  20  22
ENDBRANCH  19  20
ENDBRANCH  18  19
ENDBRANCH  16  18
ENDBRANCH  15  16
ENDBRANCH  13  15
ENDBRANCH   1  13
BRANCH   3  23
ATOM     23  C   UNL     1       5.237   5.935  15.275  0.00  0.00    +0.000 C 
BRANCH  23  24
ATOM     24  C   UNL     1       5.960   5.064  14.254  0.00  0.00    +0.000 A 
ATOM     25  C   UNL     1       5.265   4.011  13.637  0.00  0.00    +0.000 A 
ATOM     26  C   UNL     1       5.819   3.319  12.555  0.00  0.00    +0.000 A 
ATOM     27  C   UNL     1       7.080   3.666  12.077  0.00  0.00    +0.000 A 
ATOM     28  C   UNL     1       7.802   4.680  12.701  0.00  0.00    +0.000 A 
ATOM     29  C   UNL     1       7.250   5.371  13.785  0.00  0.00    +0.000 A 
ENDBRANCH  23  24
ENDBRANCH   3  23
TORSDOF 10
ENDMDL
MODEL 7
REMARK VINA RESULT:      -6.1      2.567      4.371
REMARK  Name = 
REMARK  12 active torsions:
REMARK  status: ('A' for Active; 'I' for Inactive)
REMARK    1  A    between atoms: C_1  and  O_2
REMARK    2  A    between atoms: O_2  and  C_3
REMARK    3  A    between atoms: C_3  and  C_4
REMARK    4  A    between atoms: C_4  and  C_5
REMARK    5  A    between atoms: C_5  and  N_6
REMARK    6  A    between atoms: N_6  and  C_7
REMARK    7  A    between atoms: C_7  and  C_8
REMARK    8  A    between atoms: C_8  and  C_10
REMARK    9  A    between atoms: C_11  and  N_12
REMARK   10  A    between atoms: N_13  and  C_14
REMARK   11  A    between atoms: C_14  and  C_15
REMARK   12  A    between atoms: N_23  and  C_24
REMARK                            x       y       z     vdW  Elec       q    Type
REMARK                         _______ _______ _______ _____ _____    ______ ____
ROOT
ATOM      1  C   UNL     1       5.544   5.097  16.558  0.00  0.00    +0.000 A 
ATOM      2  C   UNL     1       4.635   4.167  16.930  0.00  0.00    +0.000 A 
ATOM      3  N   UNL     1       3.423   4.591  17.481  0.00  0.00    +0.000 N 
ATOM      4  C   UNL     1       3.162   5.916  17.822  0.00  0.00    +0.000 A 
ATOM      5  O   UNL     1       2.181   6.248  18.493  0.00  0.00    +0.000 OA
ATOM      6  N   UNL     1       4.058   6.852  17.343  0.00  0.00    +0.000 N 
ATOM      7  C   UNL     1       3.767   8.268  17.503  0.00  0.00    +0.000 C 
ATOM      8  C   UNL     1       5.230   6.536  16.687  0.00  0.00    +0.000 A 
ATOM      9  O   UNL     1       5.960   7.394  16.195  0.00  0.00    +0.000 OA
ENDROOT
BRANCH   2  10
ATOM     10  N   UNL     1       4.901   2.808  16.830  0.00  0.00    +0.000 N 
ATOM     11  H   UNL     1       5.553   2.482  17.555  0.00  0.00    +0.000 HD
ATOM     12  H   UNL     1       5.249   2.531  15.914  0.00  0.00    +0.000 HD
ENDBRANCH   2  10
BRANCH   1  13
ATOM     13  C   UNL     1       6.886   4.663  16.031  0.00  0.00    +0.000 C 
ATOM     14  O   UNL     1       7.840   4.483  16.800  0.00  0.00    +0.000 OA
BRANCH  13  15
ATOM     15  C   UNL     1       7.085   4.524  14.525  0.00  0.00    +0.000 C 
BRANCH  15  16
ATOM     16  N   UNL     1       5.833   4.133  13.855  0.00  0.00    +0.000 NA
ATOM     17  H   UNL     1       5.301   3.530  14.482  0.00  0.00    +0.000 HD
BRANCH  16  18
ATOM     18  C   UNL     1       6.089   3.441  12.593  0.00  0.00    +0.000 C 
BRANCH  18  19
ATOM     19  C   UNL     1       5.031   3.822  11.567  0.00  0.00    +0.000 C 
BRANCH  19  20
ATOM     20  C   UNL     1       4.282   2.576  11.117  0.00  0.00    +0.000 C 
BRANCH  20  22
ATOM     21  C   UNL     1       3.086   4.090   9.781  0.00  0.00    +0.000 C 
ATOM     22  O   UNL     1       2.996   2.962  10.642  0.00  0.00    +0.000 OA
ENDBRANCH  20  22
ENDBRANCH  19  20
ENDBRANCH  18  19
ENDBRANCH  16  18
ENDBRANCH  15  16
ENDBRANCH  13  15
ENDBRANCH   1  13
BRANCH   3  23
ATOM     23  C   UNL     1       2.382   3.604  17.830  0.00  0.00    +0.000 C 
BRANCH  23  24
ATOM     24  C   UNL     1       2.251   3.300  19.317  0.00  0.00    +0.000 A 
ATOM     25  C   UNL     1       0.980   3.338  19.915  0.00  0.00    +0.000 A 
ATOM     26  C   UNL     1       0.785   2.872  21.220  0.00  0.00    +0.000 A 
ATOM     27  C   UNL     1       1.858   2.365  21.948  0.00  0.00    +0.000 A 
ATOM     28  C   UNL     1       3.132   2.357  21.388  0.00  0.00    +0.000 A 
ATOM     29  C   UNL     1       3.330   2.825  20.085  0.00  0.00    +0.000 A 
ENDBRANCH  23  24
ENDBRANCH   3  23
TORSDOF 10
ENDMDL
MODEL 8
REMARK VINA RESULT:      -6.1      3.267      5.353
REMARK  Name = 
REMARK  12 active torsions:
REMARK  status: ('A' for Active; 'I' for Inactive)
REMARK    1  A    between atoms: C_1  and  O_2
REMARK    2  A    between atoms: O_2  and  C_3
REMARK    3  A    between atoms: C_3  and  C_4
REMARK    4  A    between atoms: C_4  and  C_5
REMARK    5  A    between atoms: C_5  and  N_6
REMARK    6  A    between atoms: N_6  and  C_7
REMARK    7  A    between atoms: C_7  and  C_8
REMARK    8  A    between atoms: C_8  and  C_10
REMARK    9  A    between atoms: C_11  and  N_12
REMARK   10  A    between atoms: N_13  and  C_14
REMARK   11  A    between atoms: C_14  and  C_15
REMARK   12  A    between atoms: N_23  and  C_24
REMARK                            x       y       z     vdW  Elec       q    Type
REMARK                         _______ _______ _______ _____ _____    ______ ____
ROOT
ATOM      1  C   UNL     1       6.545   5.282  18.290  0.00  0.00    +0.000 A 
ATOM      2  C   UNL     1       5.221   5.482  18.485  0.00  0.00    +0.000 A 
ATOM      3  N   UNL     1       4.320   5.021  17.521  0.00  0.00    +0.000 N 
ATOM      4  C   UNL     1       4.716   4.511  16.288  0.00  0.00    +0.000 A 
ATOM      5  O   UNL     1       3.921   4.302  15.369  0.00  0.00    +0.000 OA
ATOM      6  N   UNL     1       6.062   4.225  16.155  0.00  0.00    +0.000 N 
ATOM      7  C   UNL     1       6.532   3.529  14.969  0.00  0.00    +0.000 C 
ATOM      8  C   UNL     1       7.016   4.540  17.101  0.00  0.00    +0.000 A 
ATOM      9  O   UNL     1       8.190   4.192  16.992  0.00  0.00    +0.000 OA
ENDROOT
BRANCH   2  10
ATOM     10  N   UNL     1       4.745   6.181  19.586  0.00  0.00    +0.000 N 
ATOM     11  H   UNL     1       5.161   7.118  19.665  0.00  0.00    +0.000 HD
ATOM     12  H   UNL     1       4.867   5.682  20.465  0.00  0.00    +0.000 HD
ENDBRANCH   2  10
BRANCH   1  13
ATOM     13  C   UNL     1       7.539   5.834  19.277  0.00  0.00    +0.000 C 
ATOM     14  O   UNL     1       7.700   5.297  20.381  0.00  0.00    +0.000 OA
BRANCH  13  15
ATOM     15  C   UNL     1       8.290   7.118  18.936  0.00  0.00    +0.000 C 
BRANCH  15  16
ATOM     16  N   UNL     1       7.821   7.690  17.663  0.00  0.00    +0.000 NA
ATOM     17  H   UNL     1       8.408   7.335  16.908  0.00  0.00    +0.000 HD
BRANCH  16  18
ATOM     18  C   UNL     1       7.858   9.151  17.681  0.00  0.00    +0.000 C 
BRANCH  18  19
ATOM     19  C   UNL     1       8.868   9.634  18.712  0.00  0.00    +0.000 C 
BRANCH  19  20
ATOM     20  C   UNL     1       9.624  10.836  18.165  0.00  0.00    +0.000 C 
BRANCH  20  22
ATOM     21  C   UNL     1       9.355  13.142  17.815  0.00  0.00    +0.000 C 
ATOM     22  O   UNL     1       8.694  11.888  17.921  0.00  0.00    +0.000 OA
ENDBRANCH  20  22
ENDBRANCH  19  20
ENDBRANCH  18  19
ENDBRANCH  16  18
ENDBRANCH  15  16
ENDBRANCH  13  15
ENDBRANCH   1  13
BRANCH   3  23
ATOM     23  C   UNL     1       2.866   5.161  17.739  0.00  0.00    +0.000 C 
BRANCH  23  24
ATOM     24  C   UNL     1       2.271   4.204  18.765  0.00  0.00    +0.000 A 
ATOM     25  C   UNL     1       2.433   2.820  18.585  0.00  0.00    +0.000 A 
ATOM     26  C   UNL     1       2.085   1.918  19.596  0.00  0.00    +0.000 A 
ATOM     27  C   UNL     1       1.564   2.385  20.800  0.00  0.00    +0.000 A 
ATOM     28  C   UNL     1       1.358   3.749  20.981  0.00  0.00    +0.000 A 
ATOM     29  C   UNL     1       1.703   4.653  19.971  0.00  0.00    +0.000 A 
ENDBRANCH  23  24
ENDBRANCH   3  23
TORSDOF 10
ENDMDL
MODEL 9
REMARK VINA RESULT:      -6.1      3.605      5.869
REMARK  Name = 
REMARK  12 active torsions:
REMARK  status: ('A' for Active; 'I' for Inactive)
REMARK    1  A    between atoms: C_1  and  O_2
REMARK    2  A    between atoms: O_2  and  C_3
REMARK    3  A    between atoms: C_3  and  C_4
REMARK    4  A    between atoms: C_4  and  C_5
REMARK    5  A    between atoms: C_5  and  N_6
REMARK    6  A    between atoms: N_6  and  C_7
REMARK    7  A    between atoms: C_7  and  C_8
REMARK    8  A    between atoms: C_8  and  C_10
REMARK    9  A    between atoms: C_11  and  N_12
REMARK   10  A    between atoms: N_13  and  C_14
REMARK   11  A    between atoms: C_14  and  C_15
REMARK   12  A    between atoms: N_23  and  C_24
REMARK                            x       y       z     vdW  Elec       q    Type
REMARK                         _______ _______ _______ _____ _____    ______ ____
ROOT
ATOM      1  C   UNL     1       6.918   5.735  17.676  0.00  0.00    +0.000 A 
ATOM      2  C   UNL     1       6.223   4.997  18.571  0.00  0.00    +0.000 A 
ATOM      3  N   UNL     1       5.340   4.021  18.100  0.00  0.00    +0.000 N 
ATOM      4  C   UNL     1       5.010   3.876  16.755  0.00  0.00    +0.000 A 
ATOM      5  O   UNL     1       4.083   3.158  16.372  0.00  0.00    +0.000 OA
ATOM      6  N   UNL     1       5.804   4.567  15.859  0.00  0.00    +0.000 N 
ATOM      7  C   UNL     1       5.643   4.335  14.433  0.00  0.00    +0.000 C 
ATOM      8  C   UNL     1       6.780   5.471  16.228  0.00  0.00    +0.000 A 
ATOM      9  O   UNL     1       7.528   6.001  15.409  0.00  0.00    +0.000 OA
ENDROOT
BRANCH   2  10
ATOM     10  N   UNL     1       6.323   5.224  19.937  0.00  0.00    +0.000 N 
ATOM     11  H   UNL     1       5.403   5.258  20.397  0.00  0.00    +0.000 HD
ATOM     12  H   UNL     1       6.848   6.065  20.169  0.00  0.00    +0.000 HD
ENDBRANCH   2  10
BRANCH   1  13
ATOM     13  C   UNL     1       7.819   6.841  18.158  0.00  0.00    +0.000 C 
ATOM     14  O   UNL     1       8.613   6.651  19.088  0.00  0.00    +0.000 OA
BRANCH  13  15
ATOM     15  C   UNL     1       7.685   8.230  17.541  0.00  0.00    +0.000 C 
BRANCH  15  16
ATOM     16  N   UNL     1       8.388   9.243  18.346  0.00  0.00    +0.000 NA
ATOM     17  H   UNL     1       7.959   9.280  19.271  0.00  0.00    +0.000 HD
BRANCH  16  18
ATOM     18  C   UNL     1       8.338  10.562  17.719  0.00  0.00    +0.000 C 
BRANCH  18  19
ATOM     19  C   UNL     1       9.359  11.486  18.368  0.00  0.00    +0.000 C 
BRANCH  19  20
ATOM     20  C   UNL     1      10.017  10.778  19.544  0.00  0.00    +0.000 C 
BRANCH  20  22
ATOM     21  C   UNL     1       9.411  12.262  21.257  0.00  0.00    +0.000 C 
ATOM     22  O   UNL     1       9.211  10.970  20.702  0.00  0.00    +0.000 OA
ENDBRANCH  20  22
ENDBRANCH  19  20
ENDBRANCH  18  19
ENDBRANCH  16  18
ENDBRANCH  15  16
ENDBRANCH  13  15
ENDBRANCH   1  13
BRANCH   3  23
ATOM     23  C   UNL     1       4.620   3.151  19.051  0.00  0.00    +0.000 C 
BRANCH  23  24
ATOM     24  C   UNL     1       3.218   3.619  19.423  0.00  0.00    +0.000 A 
ATOM     25  C   UNL     1       2.139   2.730  19.281  0.00  0.00    +0.000 A 
ATOM     26  C   UNL     1       0.877   3.043  19.796  0.00  0.00    +0.000 A 
ATOM     27  C   UNL     1       0.673   4.252  20.458  0.00  0.00    +0.000 A 
ATOM     28  C   UNL     1       1.719   5.162  20.573  0.00  0.00    +0.000 A 
ATOM     29  C   UNL     1       2.981   4.853  20.056  0.00  0.00    +0.000 A 
ENDBRANCH  23  24
ENDBRANCH   3  23
TORSDOF 10
ENDMDL
