MODEL 1
REMARK VINA RESULT:      -8.0      0.000      0.000
REMARK  Name = 
REMARK  6 active torsions:
REMARK  status: ('A' for Active; 'I' for Inactive)
REMARK    1  A    between atoms: C_1  and  C_2
REMARK    2  A    between atoms: C_2  and  N_3
REMARK    3  A    between atoms: C_5  and  C_6
REMARK    4  A    between atoms: C_6  and  O_8
REMARK    5  A    between atoms: C_15  and  N_16
REMARK    6  A    between atoms: C_19  and  N_20
REMARK                            x       y       z     vdW  Elec       q    Type
REMARK                         _______ _______ _______ _____ _____    ______ ____
ROOT
ATOM      1  N   UNL     1       3.802   4.844  18.932  0.00  0.00    +0.000 N 
ATOM      2  C   UNL     1       4.717   4.284  18.043  0.00  0.00    +0.000 A 
ATOM      3  C   UNL     1       5.264   4.874  16.974  0.00  0.00    +0.000 A 
ATOM      4  C   UNL     1       4.850   6.259  16.703  0.00  0.00    +0.000 A 
ATOM      5  O   UNL     1       5.323   6.872  15.749  0.00  0.00    +0.000 OA
ATOM      6  C   UNL     1       3.850   6.883  17.597  0.00  0.00    +0.000 A 
ATOM      7  C   UNL     1       3.422   8.179  17.285  0.00  0.00    +0.000 A 
ATOM      8  C   UNL     1       2.491   8.806  18.094  0.00  0.00    +0.000 A 
ATOM      9  F   UNL     1       2.145  10.062  17.783  0.00  0.00    +0.000 F 
ATOM     10  C   UNL     1       2.001   8.172  19.231  0.00  0.00    +0.000 A 
ATOM     11  C   UNL     1       2.426   6.863  19.522  0.00  0.00    +0.000 A 
ATOM     12  F   UNL     1       1.871   6.243  20.572  0.00  0.00    +0.000 F 
ATOM     13  C   UNL     1       3.352   6.170  18.711  0.00  0.00    +0.000 A 
ENDROOT
BRANCH  10  14
ATOM     14  N   UNL     1       1.093   8.842  20.086  0.00  0.00    +0.000 N 
ATOM     15  C   UNL     1      -0.034   9.548  19.713  0.00  0.00    +0.000 A 
ATOM     16  N   UNL     1      -0.693  10.033  20.741  0.00  0.00    +0.000 NA
ATOM     17  C   UNL     1       0.038   9.639  21.838  0.00  0.00    +0.000 A 
ATOM     18  C   UNL     1       1.137   8.898  21.460  0.00  0.00    +0.000 A 
BRANCH  17  19
ATOM     19  N   UNL     1      -0.349  10.007  23.179  0.00  0.00    +0.000 N 
ATOM     20  O   UNL     1      -1.380  10.688  23.295  0.00  0.00    +0.000 OA
ATOM     21  O   UNL     1       0.367   9.619  24.112  0.00  0.00    +0.000 OA
ENDBRANCH  17  19
ENDBRANCH  10  14
BRANCH   1  23
ATOM     22  C   UNL     1       2.279   2.954  19.409  0.00  0.00    +0.000 C 
ATOM     23  C   UNL     1       3.207   4.010  19.998  0.00  0.00    +0.000 C 
ENDBRANCH   1  23
BRANCH   3  24
ATOM     24  C   UNL     1       6.220   4.132  16.125  0.00  0.00    +0.000 C 
ATOM     25  O   UNL     1       5.893   3.189  15.418  0.00  0.00    +0.000 OA
BRANCH  24  26
ATOM     26  O   UNL     1       7.492   4.582  16.183  0.00  0.00    +0.000 OA
ATOM     27  H   UNL     1       8.093   4.195  15.502  0.00  0.00    +0.000 HD
ENDBRANCH  24  26
ENDBRANCH   3  24
TORSDOF 5
ENDMDL
MODEL 2
REMARK VINA RESULT:      -7.9      1.305      1.454
REMARK  Name = 
REMARK  6 active torsions:
REMARK  status: ('A' for Active; 'I' for Inactive)
REMARK    1  A    between atoms: C_1  and  C_2
REMARK    2  A    between atoms: C_2  and  N_3
REMARK    3  A    between atoms: C_5  and  C_6
REMARK    4  A    between atoms: C_6  and  O_8
REMARK    5  A    between atoms: C_15  and  N_16
REMARK    6  A    between atoms: C_19  and  N_20
REMARK                            x       y       z     vdW  Elec       q    Type
REMARK                         _______ _______ _______ _____ _____    ______ ____
ROOT
ATOM      1  N   UNL     1       2.922   5.484  19.832  0.00  0.00    +0.000 N 
ATOM      2  C   UNL     1       3.851   4.715  19.132  0.00  0.00    +0.000 A 
ATOM      3  C   UNL     1       4.516   5.068  18.026  0.00  0.00    +0.000 A 
ATOM      4  C   UNL     1       4.230   6.405  17.485  0.00  0.00    +0.000 A 
ATOM      5  O   UNL     1       4.816   6.805  16.480  0.00  0.00    +0.000 OA
ATOM      6  C   UNL     1       3.222   7.242  18.170  0.00  0.00    +0.000 A 
ATOM      7  C   UNL     1       2.920   8.486  17.603  0.00  0.00    +0.000 A 
ATOM      8  C   UNL     1       1.986   9.307  18.211  0.00  0.00    +0.000 A 
ATOM      9  F   UNL     1       1.761  10.506  17.659  0.00  0.00    +0.000 F 
ATOM     10  C   UNL     1       1.369   8.919  19.396  0.00  0.00    +0.000 A 
ATOM     11  C   UNL     1       1.670   7.660  19.945  0.00  0.00    +0.000 A 
ATOM     12  F   UNL     1       0.996   7.275  21.037  0.00  0.00    +0.000 F 
ATOM     13  C   UNL     1       2.594   6.775  19.346  0.00  0.00    +0.000 A 
ENDROOT
BRANCH  10  14
ATOM     14  N   UNL     1       0.458   9.789  20.044  0.00  0.00    +0.000 N 
ATOM     15  C   UNL     1      -0.678  10.357  19.501  0.00  0.00    +0.000 A 
ATOM     16  N   UNL     1      -1.336  11.098  20.364  0.00  0.00    +0.000 NA
ATOM     17  C   UNL     1      -0.596  11.024  21.520  0.00  0.00    +0.000 A 
ATOM     18  C   UNL     1       0.509  10.218  21.350  0.00  0.00    +0.000 A 
BRANCH  17  19
ATOM     19  N   UNL     1      -0.979  11.740  22.714  0.00  0.00    +0.000 N 
ATOM     20  O   UNL     1      -1.889  11.241  23.395  0.00  0.00    +0.000 OA
ATOM     21  O   UNL     1      -0.378  12.790  22.974  0.00  0.00    +0.000 OA
ENDBRANCH  17  19
ENDBRANCH  10  14
BRANCH   1  23
ATOM     22  C   UNL     1       1.089   3.959  20.490  0.00  0.00    +0.000 C 
ATOM     23  C   UNL     1       2.191   4.894  20.974  0.00  0.00    +0.000 C 
ENDBRANCH   1  23
BRANCH   3  24
ATOM     24  C   UNL     1       5.468   4.125  17.400  0.00  0.00    +0.000 C 
ATOM     25  O   UNL     1       5.226   3.519  16.367  0.00  0.00    +0.000 OA
BRANCH  24  26
ATOM     26  O   UNL     1       6.639   3.989  18.059  0.00  0.00    +0.000 OA
ATOM     27  H   UNL     1       7.088   3.120  17.917  0.00  0.00    +0.000 HD
ENDBRANCH  24  26
ENDBRANCH   3  24
TORSDOF 5
ENDMDL
MODEL 3
REMARK VINA RESULT:      -7.6      2.953      4.018
REMARK  Name = 
REMARK  6 active torsions:
REMARK  status: ('A' for Active; 'I' for Inactive)
REMARK    1  A    between atoms: C_1  and  C_2
REMARK    2  A    between atoms: C_2  and  N_3
REMARK    3  A    between atoms: C_5  and  C_6
REMARK    4  A    between atoms: C_6  and  O_8
REMARK    5  A    between atoms: C_15  and  N_16
REMARK    6  A    between atoms: C_19  and  N_20
REMARK                            x       y       z     vdW  Elec       q    Type
REMARK                         _______ _______ _______ _____ _____    ______ ____
ROOT
ATOM      1  N   UNL     1       3.757   5.871  17.991  0.00  0.00    +0.000 N 
ATOM      2  C   UNL     1       4.121   4.544  18.210  0.00  0.00    +0.000 A 
ATOM      3  C   UNL     1       3.673   3.737  19.180  0.00  0.00    +0.000 A 
ATOM      4  C   UNL     1       2.701   4.315  20.119  0.00  0.00    +0.000 A 
ATOM      5  O   UNL     1       2.232   3.629  21.026  0.00  0.00    +0.000 OA
ATOM      6  C   UNL     1       2.315   5.733  19.951  0.00  0.00    +0.000 A 
ATOM      7  C   UNL     1       1.436   6.280  20.893  0.00  0.00    +0.000 A 
ATOM      8  C   UNL     1       1.042   7.602  20.775  0.00  0.00    +0.000 A 
ATOM      9  F   UNL     1       0.165   8.071  21.672  0.00  0.00    +0.000 F 
ATOM     10  C   UNL     1       1.487   8.380  19.710  0.00  0.00    +0.000 A 
ATOM     11  C   UNL     1       2.383   7.820  18.781  0.00  0.00    +0.000 A 
ATOM     12  F   UNL     1       2.865   8.618  17.818  0.00  0.00    +0.000 F 
ATOM     13  C   UNL     1       2.837   6.486  18.876  0.00  0.00    +0.000 A 
ENDROOT
BRANCH  10  14
ATOM     14  N   UNL     1       1.034   9.713  19.563  0.00  0.00    +0.000 N 
ATOM     15  C   UNL     1       1.429  10.812  20.300  0.00  0.00    +0.000 A 
ATOM     16  N   UNL     1       0.850  11.923  19.905  0.00  0.00    +0.000 NA
ATOM     17  C   UNL     1       0.030  11.538  18.871  0.00  0.00    +0.000 A 
ATOM     18  C   UNL     1       0.131  10.183  18.637  0.00  0.00    +0.000 A 
BRANCH  17  19
ATOM     19  N   UNL     1      -0.815  12.483  18.179  0.00  0.00    +0.000 N 
ATOM     20  O   UNL     1      -1.854  12.033  17.671  0.00  0.00    +0.000 OA
ATOM     21  O   UNL     1      -0.448  13.665  18.143  0.00  0.00    +0.000 OA
ENDBRANCH  17  19
ENDBRANCH  10  14
BRANCH   1  23
ATOM     22  C   UNL     1       5.187   5.741  15.976  0.00  0.00    +0.000 C 
ATOM     23  C   UNL     1       4.438   6.655  16.939  0.00  0.00    +0.000 C 
ENDBRANCH   1  23
BRANCH   3  24
ATOM     24  C   UNL     1       4.169   2.347  19.277  0.00  0.00    +0.000 C 
ATOM     25  O   UNL     1       3.688   1.420  18.642  0.00  0.00    +0.000 OA
BRANCH  24  26
ATOM     26  O   UNL     1       5.207   2.178  20.124  0.00  0.00    +0.000 OA
ATOM     27  H   UNL     1       6.056   2.576  19.812  0.00  0.00    +0.000 HD
ENDBRANCH  24  26
ENDBRANCH   3  24
TORSDOF 5
ENDMDL
MODEL 4
REMARK VINA RESULT:      -7.5      1.698      2.161
REMARK  Name = 
REMARK  6 active torsions:
REMARK  status: ('A' for Active; 'I' for Inactive)
REMARK    1  A    between atoms: C_1  and  C_2
REMARK    2  A    between atoms: C_2  and  N_3
REMARK    3  A    between atoms: C_5  and  C_6
REMARK    4  A    between atoms: C_6  and  O_8
REMARK    5  A    between atoms: C_15  and  N_16
REMARK    6  A    between atoms: C_19  and  N_20
REMARK                            x       y       z     vdW  Elec       q    Type
REMARK                         _______ _______ _______ _____ _____    ______ ____
ROOT
ATOM      1  N   UNL     1       2.820   5.565  19.861  0.00  0.00    +0.000 N 
ATOM      2  C   UNL     1       3.694   4.743  19.154  0.00  0.00    +0.000 A 
ATOM      3  C   UNL     1       4.352   5.048  18.028  0.00  0.00    +0.000 A 
ATOM      4  C   UNL     1       4.120   6.391  17.475  0.00  0.00    +0.000 A 
ATOM      5  O   UNL     1       4.703   6.749  16.453  0.00  0.00    +0.000 OA
ATOM      6  C   UNL     1       3.168   7.285  18.169  0.00  0.00    +0.000 A 
ATOM      7  C   UNL     1       2.915   8.534  17.591  0.00  0.00    +0.000 A 
ATOM      8  C   UNL     1       2.035   9.408  18.206  0.00  0.00    +0.000 A 
ATOM      9  F   UNL     1       1.857  10.610  17.642  0.00  0.00    +0.000 F 
ATOM     10  C   UNL     1       1.426   9.066  19.409  0.00  0.00    +0.000 A 
ATOM     11  C   UNL     1       1.677   7.801  19.969  0.00  0.00    +0.000 A 
ATOM     12  F   UNL     1       1.009   7.464  21.081  0.00  0.00    +0.000 F 
ATOM     13  C   UNL     1       2.544   6.864  19.364  0.00  0.00    +0.000 A 
ENDROOT
BRANCH  10  14
ATOM     14  N   UNL     1       0.572   9.988  20.063  0.00  0.00    +0.000 N 
ATOM     15  C   UNL     1       0.757  10.551  21.311  0.00  0.00    +0.000 A 
ATOM     16  N   UNL     1      -0.197  11.396  21.632  0.00  0.00    +0.000 NA
ATOM     17  C   UNL     1      -1.052  11.380  20.555  0.00  0.00    +0.000 A 
ATOM     18  C   UNL     1      -0.596  10.526  19.574  0.00  0.00    +0.000 A 
BRANCH  17  19
ATOM     19  N   UNL     1      -2.262  12.168  20.535  0.00  0.00    +0.000 N 
ATOM     20  O   UNL     1      -2.568  12.746  21.589  0.00  0.00    +0.000 OA
ATOM     21  O   UNL     1      -2.902  12.213  19.476  0.00  0.00    +0.000 OA
ENDBRANCH  17  19
ENDBRANCH  10  14
BRANCH   1  23
ATOM     22  C   UNL     1       1.046   4.002  20.589  0.00  0.00    +0.000 C 
ATOM     23  C   UNL     1       2.085   5.027  21.026  0.00  0.00    +0.000 C 
ENDBRANCH   1  23
BRANCH   3  24
ATOM     24  C   UNL     1       5.244   4.053  17.397  0.00  0.00    +0.000 C 
ATOM     25  O   UNL     1       4.940   3.426  16.392  0.00  0.00    +0.000 OA
BRANCH  24  26
ATOM     26  O   UNL     1       6.433   3.890  18.015  0.00  0.00    +0.000 OA
ATOM     27  H   UNL     1       7.080   3.335  17.516  0.00  0.00    +0.000 HD
ENDBRANCH  24  26
ENDBRANCH   3  24
TORSDOF 5
ENDMDL
MODEL 5
REMARK VINA RESULT:      -7.4      2.680      3.698
REMARK  Name = 
REMARK  6 active torsions:
REMARK  status: ('A' for Active; 'I' for Inactive)
REMARK    1  A    between atoms: C_1  and  C_2
REMARK    2  A    between atoms: C_2  and  N_3
REMARK    3  A    between atoms: C_5  and  C_6
REMARK    4  A    between atoms: C_6  and  O_8
REMARK    5  A    between atoms: C_15  and  N_16
REMARK    6  A    between atoms: C_19  and  N_20
REMARK                            x       y       z     vdW  Elec       q    Type
REMARK                         _______ _______ _______ _____ _____    ______ ____
ROOT
ATOM      1  N   UNL     1       3.754   5.832  17.923  0.00  0.00    +0.000 N 
ATOM      2  C   UNL     1       4.104   4.498  18.120  0.00  0.00    +0.000 A 
ATOM      3  C   UNL     1       3.655   3.682  19.081  0.00  0.00    +0.000 A 
ATOM      4  C   UNL     1       2.697   4.257  20.037  0.00  0.00    +0.000 A 
ATOM      5  O   UNL     1       2.227   3.563  20.936  0.00  0.00    +0.000 OA
ATOM      6  C   UNL     1       2.325   5.682  19.892  0.00  0.00    +0.000 A 
ATOM      7  C   UNL     1       1.460   6.225  20.849  0.00  0.00    +0.000 A 
ATOM      8  C   UNL     1       1.080   7.552  20.754  0.00  0.00    +0.000 A 
ATOM      9  F   UNL     1       0.216   8.018  21.665  0.00  0.00    +0.000 F 
ATOM     10  C   UNL     1       1.526   8.341  19.697  0.00  0.00    +0.000 A 
ATOM     11  C   UNL     1       2.408   7.786  18.753  0.00  0.00    +0.000 A 
ATOM     12  F   UNL     1       2.891   8.592  17.798  0.00  0.00    +0.000 F 
ATOM     13  C   UNL     1       2.848   6.445  18.825  0.00  0.00    +0.000 A 
ENDROOT
BRANCH  10  14
ATOM     14  N   UNL     1       1.087   9.681  19.573  0.00  0.00    +0.000 N 
ATOM     15  C   UNL     1       0.256  10.197  18.598  0.00  0.00    +0.000 A 
ATOM     16  N   UNL     1       0.005  11.476  18.769  0.00  0.00    +0.000 NA
ATOM     17  C   UNL     1       0.711  11.819  19.898  0.00  0.00    +0.000 A 
ATOM     18  C   UNL     1       1.378  10.730  20.416  0.00  0.00    +0.000 A 
BRANCH  17  19
ATOM     19  N   UNL     1       0.718  13.171  20.407  0.00  0.00    +0.000 N 
ATOM     20  O   UNL     1       0.348  14.061  19.626  0.00  0.00    +0.000 OA
ATOM     21  O   UNL     1       1.088  13.345  21.575  0.00  0.00    +0.000 OA
ENDBRANCH  17  19
ENDBRANCH  10  14
BRANCH   1  23
ATOM     22  C   UNL     1       5.277   5.728  15.976  0.00  0.00    +0.000 C 
ATOM     23  C   UNL     1       4.436   6.625  16.877  0.00  0.00    +0.000 C 
ENDBRANCH   1  23
BRANCH   3  24
ATOM     24  C   UNL     1       4.135   2.286  19.154  0.00  0.00    +0.000 C 
ATOM     25  O   UNL     1       3.724   1.399  18.421  0.00  0.00    +0.000 OA
BRANCH  24  26
ATOM     26  O   UNL     1       5.077   2.064  20.096  0.00  0.00    +0.000 OA
ATOM     27  H   UNL     1       5.866   1.563  19.775  0.00  0.00    +0.000 HD
ENDBRANCH  24  26
ENDBRANCH   3  24
TORSDOF 5
ENDMDL
MODEL 6
REMARK VINA RESULT:      -7.4      1.822      8.023
REMARK  Name = 
REMARK  6 active torsions:
REMARK  status: ('A' for Active; 'I' for Inactive)
REMARK    1  A    between atoms: C_1  and  C_2
REMARK    2  A    between atoms: C_2  and  N_3
REMARK    3  A    between atoms: C_5  and  C_6
REMARK    4  A    between atoms: C_6  and  O_8
REMARK    5  A    between atoms: C_15  and  N_16
REMARK    6  A    between atoms: C_19  and  N_20
REMARK                            x       y       z     vdW  Elec       q    Type
REMARK                         _______ _______ _______ _____ _____    ______ ____
ROOT
ATOM      1  N   UNL     1       1.341  10.179  19.177  0.00  0.00    +0.000 N 
ATOM      2  C   UNL     1       0.498  10.939  19.985  0.00  0.00    +0.000 A 
ATOM      3  C   UNL     1      -0.100  10.548  21.116  0.00  0.00    +0.000 A 
ATOM      4  C   UNL     1       0.152   9.165  21.549  0.00  0.00    +0.000 A 
ATOM      5  O   UNL     1      -0.349   8.739  22.587  0.00  0.00    +0.000 OA
ATOM      6  C   UNL     1       1.009   8.307  20.702  0.00  0.00    +0.000 A 
ATOM      7  C   UNL     1       1.186   6.976  21.099  0.00  0.00    +0.000 A 
ATOM      8  C   UNL     1       1.983   6.136  20.342  0.00  0.00    +0.000 A 
ATOM      9  F   UNL     1       2.160   4.883  20.783  0.00  0.00    +0.000 F 
ATOM     10  C   UNL     1       2.634   6.611  19.208  0.00  0.00    +0.000 A 
ATOM     11  C   UNL     1       2.433   7.945  18.812  0.00  0.00    +0.000 A 
ATOM     12  F   UNL     1       3.001   8.351  17.668  0.00  0.00    +0.000 F 
ATOM     13  C   UNL     1       1.606   8.833  19.535  0.00  0.00    +0.000 A 
ENDROOT
BRANCH  10  14
ATOM     14  N   UNL     1       3.494   5.761  18.471  0.00  0.00    +0.000 N 
ATOM     15  C   UNL     1       3.123   4.744  17.613  0.00  0.00    +0.000 A 
ATOM     16  N   UNL     1       4.154   4.153  17.052  0.00  0.00    +0.000 NA
ATOM     17  C   UNL     1       5.250   4.800  17.571  0.00  0.00    +0.000 A 
ATOM     18  C   UNL     1       4.869   5.799  18.441  0.00  0.00    +0.000 A 
BRANCH  17  19
ATOM     19  N   UNL     1       6.597   4.416  17.218  0.00  0.00    +0.000 N 
ATOM     20  O   UNL     1       7.434   4.417  18.134  0.00  0.00    +0.000 OA
ATOM     21  O   UNL     1       6.819   4.113  16.038  0.00  0.00    +0.000 OA
ENDBRANCH  17  19
ENDBRANCH  10  14
BRANCH   1  23
ATOM     22  C   UNL     1       2.391  12.135  18.085  0.00  0.00    +0.000 C 
ATOM     23  C   UNL     1       1.826  10.732  17.894  0.00  0.00    +0.000 C 
ENDBRANCH   1  23
BRANCH   3  24
ATOM     24  C   UNL     1      -0.976  11.482  21.855  0.00  0.00    +0.000 C 
ATOM     25  O   UNL     1      -1.912  12.073  21.335  0.00  0.00    +0.000 OA
BRANCH  24  26
ATOM     26  O   UNL     1      -0.666  11.630  23.161  0.00  0.00    +0.000 OA
ATOM     27  H   UNL     1       0.296  11.539  23.365  0.00  0.00    +0.000 HD
ENDBRANCH  24  26
ENDBRANCH   3  24
TORSDOF 5
ENDMDL
MODEL 7
REMARK VINA RESULT:      -7.3      0.879      1.275
REMARK  Name = 
REMARK  6 active torsions:
REMARK  status: ('A' for Active; 'I' for Inactive)
REMARK    1  A    between atoms: C_1  and  C_2
REMARK    2  A    between atoms: C_2  and  N_3
REMARK    3  A    between atoms: C_5  and  C_6
REMARK    4  A    between atoms: C_6  and  O_8
REMARK    5  A    between atoms: C_15  and  N_16
REMARK    6  A    between atoms: C_19  and  N_20
REMARK                            x       y       z     vdW  Elec       q    Type
REMARK                         _______ _______ _______ _____ _____    ______ ____
ROOT
ATOM      1  N   UNL     1       4.217   4.638  18.843  0.00  0.00    +0.000 N 
ATOM      2  C   UNL     1       5.139   4.200  17.894  0.00  0.00    +0.000 A 
ATOM      3  C   UNL     1       5.565   4.870  16.817  0.00  0.00    +0.000 A 
ATOM      4  C   UNL     1       4.992   6.208  16.607  0.00  0.00    +0.000 A 
ATOM      5  O   UNL     1       5.348   6.891  15.648  0.00  0.00    +0.000 OA
ATOM      6  C   UNL     1       3.980   6.701  17.566  0.00  0.00    +0.000 A 
ATOM      7  C   UNL     1       3.402   7.950  17.312  0.00  0.00    +0.000 A 
ATOM      8  C   UNL     1       2.453   8.456  18.184  0.00  0.00    +0.000 A 
ATOM      9  F   UNL     1       1.960   9.674  17.927  0.00  0.00    +0.000 F 
ATOM     10  C   UNL     1       2.092   7.746  19.325  0.00  0.00    +0.000 A 
ATOM     11  C   UNL     1       2.668   6.484  19.557  0.00  0.00    +0.000 A 
ATOM     12  F   UNL     1       2.237   5.784  20.615  0.00  0.00    +0.000 F 
ATOM     13  C   UNL     1       3.619   5.913  18.682  0.00  0.00    +0.000 A 
ENDROOT
BRANCH  10  14
ATOM     14  N   UNL     1       1.164   8.294  20.242  0.00  0.00    +0.000 N 
ATOM     15  C   UNL     1       0.266   7.602  21.031  0.00  0.00    +0.000 A 
ATOM     16  N   UNL     1      -0.444   8.392  21.805  0.00  0.00    +0.000 NA
ATOM     17  C   UNL     1      -0.003   9.659  21.505  0.00  0.00    +0.000 A 
ATOM     18  C   UNL     1       0.992   9.624  20.552  0.00  0.00    +0.000 A 
BRANCH  17  19
ATOM     19  N   UNL     1      -0.568  10.829  22.135  0.00  0.00    +0.000 N 
ATOM     20  O   UNL     1      -0.446  10.912  23.367  0.00  0.00    +0.000 OA
ATOM     21  O   UNL     1      -1.128  11.661  21.409  0.00  0.00    +0.000 OA
ENDBRANCH  17  19
ENDBRANCH  10  14
BRANCH   1  23
ATOM     22  C   UNL     1       3.393   2.359  19.339  0.00  0.00    +0.000 C 
ATOM     23  C   UNL     1       3.770   3.720  19.912  0.00  0.00    +0.000 C 
ENDBRANCH   1  23
BRANCH   3  24
ATOM     24  C   UNL     1       6.548   4.255  15.900  0.00  0.00    +0.000 C 
ATOM     25  O   UNL     1       7.743   4.508  15.935  0.00  0.00    +0.000 OA
BRANCH  24  26
ATOM     26  O   UNL     1       6.022   3.379  15.017  0.00  0.00    +0.000 OA
ATOM     27  H   UNL     1       6.691   2.874  14.495  0.00  0.00    +0.000 HD
ENDBRANCH  24  26
ENDBRANCH   3  24
TORSDOF 5
ENDMDL
MODEL 8
REMARK VINA RESULT:      -7.2      2.750      7.482
REMARK  Name = 
REMARK  6 active torsions:
REMARK  status: ('A' for Active; 'I' for Inactive)
REMARK    1  A    between atoms: C_1  and  C_2
REMARK    2  A    between atoms: C_2  and  N_3
REMARK    3  A    between atoms: C_5  and  C_6
REMARK    4  A    between atoms: C_6  and  O_8
REMARK    5  A    between atoms: C_15  and  N_16
REMARK    6  A    between atoms: C_19  and  N_20
REMARK                            x       y       z     vdW  Elec       q    Type
REMARK                         _______ _______ _______ _____ _____    ______ ____
ROOT
ATOM      1  N   UNL     1       0.161   9.540  21.061  0.00  0.00    +0.000 N 
ATOM      2  C   UNL     1      -0.301  10.852  20.976  0.00  0.00    +0.000 A 
ATOM      3  C   UNL     1      -0.064  11.726  19.991  0.00  0.00    +0.000 A 
ATOM      4  C   UNL     1       0.783  11.255  18.885  0.00  0.00    +0.000 A 
ATOM      5  O   UNL     1       1.031  11.997  17.935  0.00  0.00    +0.000 OA
ATOM      6  C   UNL     1       1.331   9.883  18.950  0.00  0.00    +0.000 A 
ATOM      7  C   UNL     1       2.185   9.477  17.918  0.00  0.00    +0.000 A 
ATOM      8  C   UNL     1       2.719   8.200  17.933  0.00  0.00    +0.000 A 
ATOM      9  F   UNL     1       3.495   7.839  16.903  0.00  0.00    +0.000 F 
ATOM     10  C   UNL     1       2.389   7.308  18.949  0.00  0.00    +0.000 A 
ATOM     11  C   UNL     1       1.543   7.736  19.988  0.00  0.00    +0.000 A 
ATOM     12  F   UNL     1       1.313   6.886  20.998  0.00  0.00    +0.000 F 
ATOM     13  C   UNL     1       0.997   9.038  20.032  0.00  0.00    +0.000 A 
ENDROOT
BRANCH  10  14
ATOM     14  N   UNL     1       2.892   5.985  18.927  0.00  0.00    +0.000 N 
ATOM     15  C   UNL     1       4.073   5.535  19.484  0.00  0.00    +0.000 A 
ATOM     16  N   UNL     1       4.251   4.243  19.323  0.00  0.00    +0.000 NA
ATOM     17  C   UNL     1       3.145   3.826  18.621  0.00  0.00    +0.000 A 
ATOM     18  C   UNL     1       2.290   4.879  18.372  0.00  0.00    +0.000 A 
BRANCH  17  19
ATOM     19  N   UNL     1       2.977   2.451  18.214  0.00  0.00    +0.000 N 
ATOM     20  O   UNL     1       3.673   1.608  18.802  0.00  0.00    +0.000 OA
ATOM     21  O   UNL     1       2.158   2.210  17.319  0.00  0.00    +0.000 OA
ENDBRANCH  17  19
ENDBRANCH  10  14
BRANCH   1  23
ATOM     22  C   UNL     1      -0.216   9.648  23.503  0.00  0.00    +0.000 C 
ATOM     23  C   UNL     1      -0.101   8.746  22.280  0.00  0.00    +0.000 C 
ENDBRANCH   1  23
BRANCH   3  24
ATOM     24  C   UNL     1      -0.628  13.091  20.057  0.00  0.00    +0.000 C 
ATOM     25  O   UNL     1      -0.454  13.840  21.007  0.00  0.00    +0.000 OA
BRANCH  24  26
ATOM     26  O   UNL     1      -1.352  13.453  18.976  0.00  0.00    +0.000 OA
ATOM     27  H   UNL     1      -0.839  13.483  18.132  0.00  0.00    +0.000 HD
ENDBRANCH  24  26
ENDBRANCH   3  24
TORSDOF 5
ENDMDL
MODEL 9
REMARK VINA RESULT:      -7.2      2.885      7.073
REMARK  Name = 
REMARK  6 active torsions:
REMARK  status: ('A' for Active; 'I' for Inactive)
REMARK    1  A    between atoms: C_1  and  C_2
REMARK    2  A    between atoms: C_2  and  N_3
REMARK    3  A    between atoms: C_5  and  C_6
REMARK    4  A    between atoms: C_6  and  O_8
REMARK    5  A    between atoms: C_15  and  N_16
REMARK    6  A    between atoms: C_19  and  N_20
REMARK                            x       y       z     vdW  Elec       q    Type
REMARK                         _______ _______ _______ _____ _____    ______ ____
ROOT
ATOM      1  N   UNL     1       0.897   9.198  20.755  0.00  0.00    +0.000 N 
ATOM      2  C   UNL     1       0.735  10.544  20.433  0.00  0.00    +0.000 A 
ATOM      3  C   UNL     1       1.148  11.160  19.319  0.00  0.00    +0.000 A 
ATOM      4  C   UNL     1       1.858  10.330  18.334  0.00  0.00    +0.000 A 
ATOM      5  O   UNL     1       2.253  10.822  17.279  0.00  0.00    +0.000 OA
ATOM      6  C   UNL     1       2.090   8.903  18.650  0.00  0.00    +0.000 A 
ATOM      7  C   UNL     1       2.821   8.147  17.727  0.00  0.00    +0.000 A 
ATOM      8  C   UNL     1       3.060   6.806  17.976  0.00  0.00    +0.000 A 
ATOM      9  F   UNL     1       3.725   6.110  17.045  0.00  0.00    +0.000 F 
ATOM     10  C   UNL     1       2.552   6.199  19.120  0.00  0.00    +0.000 A 
ATOM     11  C   UNL     1       1.834   6.976  20.046  0.00  0.00    +0.000 A 
ATOM     12  F   UNL     1       1.433   6.386  21.181  0.00  0.00    +0.000 F 
ATOM     13  C   UNL     1       1.589   8.353  19.851  0.00  0.00    +0.000 A 
ENDROOT
BRANCH  10  14
ATOM     14  N   UNL     1       2.750   4.814  19.340  0.00  0.00    +0.000 N 
ATOM     15  C   UNL     1       1.795   3.819  19.285  0.00  0.00    +0.000 A 
ATOM     16  N   UNL     1       2.293   2.623  19.508  0.00  0.00    +0.000 NA
ATOM     17  C   UNL     1       3.633   2.843  19.730  0.00  0.00    +0.000 A 
ATOM     18  C   UNL     1       3.939   4.182  19.625  0.00  0.00    +0.000 A 
BRANCH  17  19
ATOM     19  N   UNL     1       4.537   1.762  20.045  0.00  0.00    +0.000 N 
ATOM     20  O   UNL     1       5.141   1.840  21.127  0.00  0.00    +0.000 OA
ATOM     21  O   UNL     1       4.643   0.841  19.225  0.00  0.00    +0.000 OA
ENDBRANCH  17  19
ENDBRANCH  10  14
BRANCH   1  23
ATOM     22  C   UNL     1      -0.286   9.779  22.849  0.00  0.00    +0.000 C 
ATOM     23  C   UNL     1       0.479   8.704  22.085  0.00  0.00    +0.000 C 
ENDBRANCH   1  23
BRANCH   3  24
ATOM     24  C   UNL     1       0.900  12.605  19.134  0.00  0.00    +0.000 C 
ATOM     25  O   UNL     1       1.277  13.454  19.928  0.00  0.00    +0.000 OA
BRANCH  24  26
ATOM     26  O   UNL     1       0.225  12.921  18.008  0.00  0.00    +0.000 OA
ATOM     27  H   UNL     1      -0.594  12.388  17.861  0.00  0.00    +0.000 HD
ENDBRANCH  24  26
ENDBRANCH   3  24
TORSDOF 5
ENDMDL
