MODEL 1
REMARK VINA RESULT:      -7.3      0.000      0.000
REMARK  Name = 
REMARK  7 active torsions:
REMARK  status: ('A' for Active; 'I' for Inactive)
REMARK    1  A    between atoms: C_1  and  O_2
REMARK    2  A    between atoms: O_2  and  C_3
REMARK    3  A    between atoms: C_8  and  C_9
REMARK    4  A    between atoms: C_10  and  O_11
REMARK    5  A    between atoms: C_12  and  O_13
REMARK    6  A    between atoms: C_21  and  O_22
REMARK    7  A    between atoms: O_22  and  C_23
REMARK                            x       y       z     vdW  Elec       q    Type
REMARK                         _______ _______ _______ _____ _____    ______ ____
ROOT
ATOM      1  C   UNL     1       6.281   5.023  16.222  0.00  0.00    +0.000 A 
ATOM      2  C   UNL     1       5.204   4.145  16.469  0.00  0.00    +0.000 A 
ATOM      3  C   UNL     1       4.085   4.639  17.146  0.00  0.00    +0.000 A 
ATOM      4  N   UNL     1       2.870   4.048  17.417  0.00  0.00    +0.000 N 
ATOM      5  C   UNL     1       2.050   4.932  18.076  0.00  0.00    +0.000 A 
ATOM      6  C   UNL     1       2.750   6.105  18.232  0.00  0.00    +0.000 A 
ATOM      7  C   UNL     1       4.037   5.933  17.655  0.00  0.00    +0.000 A 
ATOM      8  C   UNL     1       5.167   6.755  17.502  0.00  0.00    +0.000 A 
ATOM      9  C   UNL     1       6.287   6.310  16.780  0.00  0.00    +0.000 A 
ATOM     10  H   UNL     1       2.606   3.116  17.122  0.00  0.00    +0.000 HD
ENDROOT
BRANCH   6  11
ATOM     11  C   UNL     1       2.260   7.295  18.844  0.00  0.00    +0.000 C 
ATOM     12  C   UNL     1       2.076   8.454  18.182  0.00  0.00    +0.000 C 
ATOM     13  C   UNL     1       1.506   9.633  18.793  0.00  0.00    +0.000 C 
ATOM     14  C   UNL     1       1.047   9.667  20.045  0.00  0.00    +0.000 C 
ATOM     15  C   UNL     1       1.145   8.457  20.875  0.00  0.00    +0.000 C 
ATOM     16  O   UNL     1       0.670   8.435  22.001  0.00  0.00    +0.000 OA
ATOM     17  C   UNL     1       1.854   7.238  20.287  0.00  0.00    +0.000 C 
ATOM     18  O   UNL     1       2.074   6.265  20.997  0.00  0.00    +0.000 OA
BRANCH  12  19
ATOM     19  O   UNL     1       2.386   8.644  16.845  0.00  0.00    +0.000 OA
ATOM     20  H   UNL     1       2.187   9.575  16.614  0.00  0.00    +0.000 HD
ENDBRANCH  12  19
BRANCH  13  21
ATOM     21  O   UNL     1       1.415  10.743  17.982  0.00  0.00    +0.000 OA
ATOM     22  H   UNL     1       1.014  10.428  17.144  0.00  0.00    +0.000 HD
ENDBRANCH  13  21
ENDBRANCH   6  11
BRANCH   1  24
ATOM     23  C   UNL     1       7.235   4.891  14.057  0.00  0.00    +0.000 C 
ATOM     24  O   UNL     1       7.342   4.612  15.454  0.00  0.00    +0.000 OA
ENDBRANCH   1  24
BRANCH   9  25
ATOM     25  O   UNL     1       7.247   7.285  16.715  0.00  0.00    +0.000 OA
ATOM     26  C   UNL     1       7.841   7.765  17.907  0.00  0.00    +0.000 C 
ENDBRANCH   9  25
TORSDOF 5
ENDMDL
MODEL 2
REMARK VINA RESULT:      -7.1      0.225      2.232
REMARK  Name = 
REMARK  7 active torsions:
REMARK  status: ('A' for Active; 'I' for Inactive)
REMARK    1  A    between atoms: C_1  and  O_2
REMARK    2  A    between atoms: O_2  and  C_3
REMARK    3  A    between atoms: C_8  and  C_9
REMARK    4  A    between atoms: C_10  and  O_11
REMARK    5  A    between atoms: C_12  and  O_13
REMARK    6  A    between atoms: C_21  and  O_22
REMARK    7  A    between atoms: O_22  and  C_23
REMARK                            x       y       z     vdW  Elec       q    Type
REMARK                         _______ _______ _______ _____ _____    ______ ____
ROOT
ATOM      1  C   UNL     1       6.306   5.151  16.200  0.00  0.00    +0.000 A 
ATOM      2  C   UNL     1       5.251   4.239  16.413  0.00  0.00    +0.000 A 
ATOM      3  C   UNL     1       4.119   4.681  17.107  0.00  0.00    +0.000 A 
ATOM      4  N   UNL     1       2.919   4.052  17.355  0.00  0.00    +0.000 N 
ATOM      5  C   UNL     1       2.078   4.891  18.045  0.00  0.00    +0.000 A 
ATOM      6  C   UNL     1       2.750   6.074  18.244  0.00  0.00    +0.000 A 
ATOM      7  C   UNL     1       4.040   5.954  17.663  0.00  0.00    +0.000 A 
ATOM      8  C   UNL     1       5.151   6.808  17.541  0.00  0.00    +0.000 A 
ATOM      9  C   UNL     1       6.281   6.416  16.805  0.00  0.00    +0.000 A 
ATOM     10  H   UNL     1       2.678   3.126  17.026  0.00  0.00    +0.000 HD
ENDROOT
BRANCH   6  11
ATOM     11  C   UNL     1       2.232   7.229  18.898  0.00  0.00    +0.000 C 
ATOM     12  C   UNL     1       1.958   7.281  20.215  0.00  0.00    +0.000 C 
ATOM     13  C   UNL     1       1.507   8.481  20.884  0.00  0.00    +0.000 C 
ATOM     14  C   UNL     1       1.384   9.662  20.277  0.00  0.00    +0.000 C 
ATOM     15  C   UNL     1       1.692   9.764  18.843  0.00  0.00    +0.000 C 
ATOM     16  O   UNL     1       1.658  10.846  18.275  0.00  0.00    +0.000 OA
ATOM     17  C   UNL     1       2.053   8.483  18.093  0.00  0.00    +0.000 C 
ATOM     18  O   UNL     1       2.180   8.509  16.875  0.00  0.00    +0.000 OA
BRANCH  12  19
ATOM     19  O   UNL     1       2.096   6.210  21.082  0.00  0.00    +0.000 OA
ATOM     20  H   UNL     1       3.013   5.872  21.009  0.00  0.00    +0.000 HD
ENDBRANCH  12  19
BRANCH  13  21
ATOM     21  O   UNL     1       1.243   8.353  22.230  0.00  0.00    +0.000 OA
ATOM     22  H   UNL     1       0.797   9.186  22.493  0.00  0.00    +0.000 HD
ENDBRANCH  13  21
ENDBRANCH   6  11
BRANCH   1  24
ATOM     23  C   UNL     1       7.132   4.772  14.012  0.00  0.00    +0.000 C 
ATOM     24  O   UNL     1       7.377   4.793  15.419  0.00  0.00    +0.000 OA
ENDBRANCH   1  24
BRANCH   9  25
ATOM     25  O   UNL     1       7.218   7.416  16.777  0.00  0.00    +0.000 OA
ATOM     26  C   UNL     1       7.884   7.787  17.970  0.00  0.00    +0.000 C 
ENDBRANCH   9  25
TORSDOF 5
ENDMDL
MODEL 3
REMARK VINA RESULT:      -6.8      3.032      4.695
REMARK  Name = 
REMARK  7 active torsions:
REMARK  status: ('A' for Active; 'I' for Inactive)
REMARK    1  A    between atoms: C_1  and  O_2
REMARK    2  A    between atoms: O_2  and  C_3
REMARK    3  A    between atoms: C_8  and  C_9
REMARK    4  A    between atoms: C_10  and  O_11
REMARK    5  A    between atoms: C_12  and  O_13
REMARK    6  A    between atoms: C_21  and  O_22
REMARK    7  A    between atoms: O_22  and  C_23
REMARK                            x       y       z     vdW  Elec       q    Type
REMARK                         _______ _______ _______ _____ _____    ______ ____
ROOT
ATOM      1  C   UNL     1       7.006   4.641  14.253  0.00  0.00    +0.000 A 
ATOM      2  C   UNL     1       7.653   5.015  15.450  0.00  0.00    +0.000 A 
ATOM      3  C   UNL     1       6.939   4.924  16.649  0.00  0.00    +0.000 A 
ATOM      4  N   UNL     1       7.348   5.112  17.952  0.00  0.00    +0.000 N 
ATOM      5  C   UNL     1       6.307   4.873  18.815  0.00  0.00    +0.000 A 
ATOM      6  C   UNL     1       5.213   4.529  18.055  0.00  0.00    +0.000 A 
ATOM      7  C   UNL     1       5.596   4.562  16.687  0.00  0.00    +0.000 A 
ATOM      8  C   UNL     1       4.936   4.308  15.472  0.00  0.00    +0.000 A 
ATOM      9  C   UNL     1       5.637   4.337  14.254  0.00  0.00    +0.000 A 
ATOM     10  H   UNL     1       8.295   5.340  18.228  0.00  0.00    +0.000 HD
ENDROOT
BRANCH   6  11
ATOM     11  C   UNL     1       3.926   4.175  18.554  0.00  0.00    +0.000 C 
ATOM     12  C   UNL     1       3.415   2.932  18.487  0.00  0.00    +0.000 C 
ATOM     13  C   UNL     1       2.142   2.566  19.067  0.00  0.00    +0.000 C 
ATOM     14  C   UNL     1       1.387   3.404  19.777  0.00  0.00    +0.000 C 
ATOM     15  C   UNL     1       1.843   4.789  19.969  0.00  0.00    +0.000 C 
ATOM     16  O   UNL     1       1.208   5.561  20.674  0.00  0.00    +0.000 OA
ATOM     17  C   UNL     1       3.125   5.227  19.264  0.00  0.00    +0.000 C 
ATOM     18  O   UNL     1       3.458   6.406  19.289  0.00  0.00    +0.000 OA
BRANCH  12  19
ATOM     19  O   UNL     1       4.052   1.860  17.883  0.00  0.00    +0.000 OA
ATOM     20  H   UNL     1       3.791   1.841  16.939  0.00  0.00    +0.000 HD
ENDBRANCH  12  19
BRANCH  13  21
ATOM     21  O   UNL     1       1.754   1.257  18.882  0.00  0.00    +0.000 OA
ATOM     22  H   UNL     1       1.897   1.070  17.930  0.00  0.00    +0.000 HD
ENDBRANCH  13  21
ENDBRANCH   6  11
BRANCH   1  24
ATOM     23  C   UNL     1       8.287   5.837  12.659  0.00  0.00    +0.000 C 
ATOM     24  O   UNL     1       7.710   4.598  13.075  0.00  0.00    +0.000 OA
ENDBRANCH   1  24
BRANCH   9  25
ATOM     25  O   UNL     1       4.813   4.013  13.208  0.00  0.00    +0.000 OA
ATOM     26  C   UNL     1       5.292   3.176  12.172  0.00  0.00    +0.000 C 
ENDBRANCH   9  25
TORSDOF 5
ENDMDL
MODEL 4
REMARK VINA RESULT:      -6.8      2.742      4.257
REMARK  Name = 
REMARK  7 active torsions:
REMARK  status: ('A' for Active; 'I' for Inactive)
REMARK    1  A    between atoms: C_1  and  O_2
REMARK    2  A    between atoms: O_2  and  C_3
REMARK    3  A    between atoms: C_8  and  C_9
REMARK    4  A    between atoms: C_10  and  O_11
REMARK    5  A    between atoms: C_12  and  O_13
REMARK    6  A    between atoms: C_21  and  O_22
REMARK    7  A    between atoms: O_22  and  C_23
REMARK                            x       y       z     vdW  Elec       q    Type
REMARK                         _______ _______ _______ _____ _____    ______ ____
ROOT
ATOM      1  C   UNL     1       6.564   7.080  17.411  0.00  0.00    +0.000 A 
ATOM      2  C   UNL     1       5.403   7.821  17.105  0.00  0.00    +0.000 A 
ATOM      3  C   UNL     1       4.163   7.311  17.506  0.00  0.00    +0.000 A 
ATOM      4  N   UNL     1       2.904   7.866  17.441  0.00  0.00    +0.000 N 
ATOM      5  C   UNL     1       1.981   7.014  17.997  0.00  0.00    +0.000 A 
ATOM      6  C   UNL     1       2.659   5.895  18.422  0.00  0.00    +0.000 A 
ATOM      7  C   UNL     1       4.035   6.066  18.114  0.00  0.00    +0.000 A 
ATOM      8  C   UNL     1       5.192   5.290  18.303  0.00  0.00    +0.000 A 
ATOM      9  C   UNL     1       6.458   5.794  17.962  0.00  0.00    +0.000 A 
ATOM     10  H   UNL     1       2.703   8.792  17.084  0.00  0.00    +0.000 HD
ENDROOT
BRANCH   6  11
ATOM     11  C   UNL     1       2.083   4.770  19.081  0.00  0.00    +0.000 C 
ATOM     12  C   UNL     1       1.490   3.749  18.433  0.00  0.00    +0.000 C 
ATOM     13  C   UNL     1       0.979   2.575  19.104  0.00  0.00    +0.000 C 
ATOM     14  C   UNL     1       1.105   2.360  20.415  0.00  0.00    +0.000 C 
ATOM     15  C   UNL     1       1.773   3.375  21.243  0.00  0.00    +0.000 C 
ATOM     16  O   UNL     1       1.967   3.176  22.434  0.00  0.00    +0.000 OA
ATOM     17  C   UNL     1       2.212   4.676  20.573  0.00  0.00    +0.000 C 
ATOM     18  O   UNL     1       2.643   5.595  21.257  0.00  0.00    +0.000 OA
BRANCH  12  19
ATOM     19  O   UNL     1       1.321   3.691  17.059  0.00  0.00    +0.000 OA
ATOM     20  H   UNL     1       2.036   4.214  16.640  0.00  0.00    +0.000 HD
ENDBRANCH  12  19
BRANCH  13  21
ATOM     21  O   UNL     1       0.375   1.638  18.295  0.00  0.00    +0.000 OA
ATOM     22  H   UNL     1       0.749   0.772  18.566  0.00  0.00    +0.000 HD
ENDBRANCH  13  21
ENDBRANCH   6  11
BRANCH   1  24
ATOM     23  C   UNL     1       8.132   8.799  17.855  0.00  0.00    +0.000 C 
ATOM     24  O   UNL     1       7.804   7.604  17.145  0.00  0.00    +0.000 OA
ENDBRANCH   1  24
BRANCH   9  25
ATOM     25  O   UNL     1       7.443   4.894  18.274  0.00  0.00    +0.000 OA
ATOM     26  C   UNL     1       8.264   5.116  19.406  0.00  0.00    +0.000 C 
ENDBRANCH   9  25
TORSDOF 5
ENDMDL
MODEL 5
REMARK VINA RESULT:      -6.7      2.660      6.312
REMARK  Name = 
REMARK  7 active torsions:
REMARK  status: ('A' for Active; 'I' for Inactive)
REMARK    1  A    between atoms: C_1  and  O_2
REMARK    2  A    between atoms: O_2  and  C_3
REMARK    3  A    between atoms: C_8  and  C_9
REMARK    4  A    between atoms: C_10  and  O_11
REMARK    5  A    between atoms: C_12  and  O_13
REMARK    6  A    between atoms: C_21  and  O_22
REMARK    7  A    between atoms: O_22  and  C_23
REMARK                            x       y       z     vdW  Elec       q    Type
REMARK                         _______ _______ _______ _____ _____    ______ ____
ROOT
ATOM      1  C   UNL     1       1.787   9.433  19.017  0.00  0.00    +0.000 A 
ATOM      2  C   UNL     1       2.739   9.269  17.989  0.00  0.00    +0.000 A 
ATOM      3  C   UNL     1       3.218   7.982  17.724  0.00  0.00    +0.000 A 
ATOM      4  N   UNL     1       4.050   7.524  16.725  0.00  0.00    +0.000 N 
ATOM      5  C   UNL     1       4.217   6.165  16.834  0.00  0.00    +0.000 A 
ATOM      6  C   UNL     1       3.484   5.746  17.920  0.00  0.00    +0.000 A 
ATOM      7  C   UNL     1       2.854   6.882  18.494  0.00  0.00    +0.000 A 
ATOM      8  C   UNL     1       1.996   7.086  19.589  0.00  0.00    +0.000 A 
ATOM      9  C   UNL     1       1.453   8.355  19.850  0.00  0.00    +0.000 A 
ATOM     10  H   UNL     1       4.434   8.102  15.989  0.00  0.00    +0.000 HD
ENDROOT
BRANCH   6  11
ATOM     11  C   UNL     1       3.358   4.401  18.374  0.00  0.00    +0.000 C 
ATOM     12  C   UNL     1       4.314   3.756  19.071  0.00  0.00    +0.000 C 
ATOM     13  C   UNL     1       4.146   2.420  19.595  0.00  0.00    +0.000 C 
ATOM     14  C   UNL     1       3.011   1.726  19.498  0.00  0.00    +0.000 C 
ATOM     15  C   UNL     1       1.865   2.325  18.798  0.00  0.00    +0.000 C 
ATOM     16  O   UNL     1       0.790   1.744  18.754  0.00  0.00    +0.000 OA
ATOM     17  C   UNL     1       2.061   3.686  18.133  0.00  0.00    +0.000 C 
ATOM     18  O   UNL     1       1.174   4.149  17.427  0.00  0.00    +0.000 OA
BRANCH  12  19
ATOM     19  O   UNL     1       5.549   4.299  19.385  0.00  0.00    +0.000 OA
ATOM     20  H   UNL     1       5.665   4.257  20.356  0.00  0.00    +0.000 HD
ENDBRANCH  12  19
BRANCH  13  21
ATOM     21  O   UNL     1       5.233   1.896  20.259  0.00  0.00    +0.000 OA
ATOM     22  H   UNL     1       5.476   1.081  19.769  0.00  0.00    +0.000 HD
ENDBRANCH  13  21
ENDBRANCH   6  11
BRANCH   1  24
ATOM     23  C   UNL     1       1.820  11.755  18.551  0.00  0.00    +0.000 C 
ATOM     24  O   UNL     1       1.202  10.657  19.224  0.00  0.00    +0.000 OA
ENDBRANCH   1  24
BRANCH   9  25
ATOM     25  O   UNL     1       0.610   8.314  20.929  0.00  0.00    +0.000 OA
ATOM     26  C   UNL     1       0.996   8.926  22.145  0.00  0.00    +0.000 C 
ENDBRANCH   9  25
TORSDOF 5
ENDMDL
MODEL 6
REMARK VINA RESULT:      -6.7      2.917      4.674
REMARK  Name = 
REMARK  7 active torsions:
REMARK  status: ('A' for Active; 'I' for Inactive)
REMARK    1  A    between atoms: C_1  and  O_2
REMARK    2  A    between atoms: O_2  and  C_3
REMARK    3  A    between atoms: C_8  and  C_9
REMARK    4  A    between atoms: C_10  and  O_11
REMARK    5  A    between atoms: C_12  and  O_13
REMARK    6  A    between atoms: C_21  and  O_22
REMARK    7  A    between atoms: O_22  and  C_23
REMARK                            x       y       z     vdW  Elec       q    Type
REMARK                         _______ _______ _______ _____ _____    ______ ____
ROOT
ATOM      1  C   UNL     1       3.461   4.486  19.413  0.00  0.00    +0.000 A 
ATOM      2  C   UNL     1       3.718   5.408  18.377  0.00  0.00    +0.000 A 
ATOM      3  C   UNL     1       3.116   6.669  18.444  0.00  0.00    +0.000 A 
ATOM      4  N   UNL     1       3.276   7.781  17.645  0.00  0.00    +0.000 N 
ATOM      5  C   UNL     1       2.505   8.816  18.116  0.00  0.00    +0.000 A 
ATOM      6  C   UNL     1       1.840   8.361  19.230  0.00  0.00    +0.000 A 
ATOM      7  C   UNL     1       2.211   7.006  19.445  0.00  0.00    +0.000 A 
ATOM      8  C   UNL     1       1.877   6.032  20.402  0.00  0.00    +0.000 A 
ATOM      9  C   UNL     1       2.504   4.775  20.397  0.00  0.00    +0.000 A 
ATOM     10  H   UNL     1       3.912   7.837  16.861  0.00  0.00    +0.000 HD
ENDROOT
BRANCH   6  11
ATOM     11  C   UNL     1       0.951   9.123  20.042  0.00  0.00    +0.000 C 
ATOM     12  C   UNL     1       1.038   9.190  21.384  0.00  0.00    +0.000 C 
ATOM     13  C   UNL     1       0.182  10.028  22.193  0.00  0.00    +0.000 C 
ATOM     14  C   UNL     1      -0.729  10.861  21.686  0.00  0.00    +0.000 C 
ATOM     15  C   UNL     1      -0.904  10.924  20.227  0.00  0.00    +0.000 C 
ATOM     16  O   UNL     1      -1.679  11.727  19.728  0.00  0.00    +0.000 OA
ATOM     17  C   UNL     1      -0.094   9.959  19.363  0.00  0.00    +0.000 C 
ATOM     18  O   UNL     1      -0.316   9.889  18.161  0.00  0.00    +0.000 OA
BRANCH  12  19
ATOM     19  O   UNL     1       1.965   8.491  22.140  0.00  0.00    +0.000 OA
ATOM     20  H   UNL     1       2.814   8.480  21.652  0.00  0.00    +0.000 HD
ENDBRANCH  12  19
BRANCH  13  21
ATOM     21  O   UNL     1       0.385   9.956  23.553  0.00  0.00    +0.000 OA
ATOM     22  H   UNL     1       0.778   9.072  23.717  0.00  0.00    +0.000 HD
ENDBRANCH  13  21
ENDBRANCH   6  11
BRANCH   1  24
ATOM     23  C   UNL     1       3.695   2.313  18.498  0.00  0.00    +0.000 C 
ATOM     24  O   UNL     1       4.129   3.287  19.449  0.00  0.00    +0.000 OA
ENDBRANCH   1  24
BRANCH   9  25
ATOM     25  O   UNL     1       2.065   4.005  21.441  0.00  0.00    +0.000 OA
ATOM     26  C   UNL     1       1.228   2.891  21.189  0.00  0.00    +0.000 C 
ENDBRANCH   9  25
TORSDOF 5
ENDMDL
MODEL 7
REMARK VINA RESULT:      -6.7      2.617      6.400
REMARK  Name = 
REMARK  7 active torsions:
REMARK  status: ('A' for Active; 'I' for Inactive)
REMARK    1  A    between atoms: C_1  and  O_2
REMARK    2  A    between atoms: O_2  and  C_3
REMARK    3  A    between atoms: C_8  and  C_9
REMARK    4  A    between atoms: C_10  and  O_11
REMARK    5  A    between atoms: C_12  and  O_13
REMARK    6  A    between atoms: C_21  and  O_22
REMARK    7  A    between atoms: O_22  and  C_23
REMARK                            x       y       z     vdW  Elec       q    Type
REMARK                         _______ _______ _______ _____ _____    ______ ____
ROOT
ATOM      1  C   UNL     1       1.457   9.617  19.232  0.00  0.00    +0.000 A 
ATOM      2  C   UNL     1       2.389   9.468  18.183  0.00  0.00    +0.000 A 
ATOM      3  C   UNL     1       2.893   8.190  17.918  0.00  0.00    +0.000 A 
ATOM      4  N   UNL     1       3.712   7.744  16.903  0.00  0.00    +0.000 N 
ATOM      5  C   UNL     1       3.914   6.390  17.019  0.00  0.00    +0.000 A 
ATOM      6  C   UNL     1       3.216   5.963  18.124  0.00  0.00    +0.000 A 
ATOM      7  C   UNL     1       2.572   7.088  18.704  0.00  0.00    +0.000 A 
ATOM      8  C   UNL     1       1.734   7.281  19.817  0.00  0.00    +0.000 A 
ATOM      9  C   UNL     1       1.167   8.539  20.080  0.00  0.00    +0.000 A 
ATOM     10  H   UNL     1       4.066   8.325  16.154  0.00  0.00    +0.000 HD
ENDROOT
BRANCH   6  11
ATOM     11  C   UNL     1       3.133   4.619  18.592  0.00  0.00    +0.000 C 
ATOM     12  C   UNL     1       2.141   3.772  18.258  0.00  0.00    +0.000 C 
ATOM     13  C   UNL     1       2.107   2.388  18.674  0.00  0.00    +0.000 C 
ATOM     14  C   UNL     1       3.083   1.802  19.369  0.00  0.00    +0.000 C 
ATOM     15  C   UNL     1       4.253   2.599  19.767  0.00  0.00    +0.000 C 
ATOM     16  O   UNL     1       5.196   2.074  20.343  0.00  0.00    +0.000 OA
ATOM     17  C   UNL     1       4.251   4.091  19.442  0.00  0.00    +0.000 C 
ATOM     18  O   UNL     1       5.143   4.808  19.879  0.00  0.00    +0.000 OA
BRANCH  12  19
ATOM     19  O   UNL     1       1.058   4.116  17.465  0.00  0.00    +0.000 OA
ATOM     20  H   UNL     1       0.246   4.052  18.009  0.00  0.00    +0.000 HD
ENDBRANCH  12  19
BRANCH  13  21
ATOM     21  O   UNL     1       1.004   1.668  18.269  0.00  0.00    +0.000 OA
ATOM     22  H   UNL     1       1.329   1.052  17.579  0.00  0.00    +0.000 HD
ENDBRANCH  13  21
ENDBRANCH   6  11
BRANCH   1  24
ATOM     23  C   UNL     1      -0.436  10.986  18.836  0.00  0.00    +0.000 C 
ATOM     24  O   UNL     1       0.848  10.829  19.443  0.00  0.00    +0.000 OA
ENDBRANCH   1  24
BRANCH   9  25
ATOM     25  O   UNL     1       0.350   8.487  21.178  0.00  0.00    +0.000 OA
ATOM     26  C   UNL     1       0.744   9.129  22.377  0.00  0.00    +0.000 C 
ENDBRANCH   9  25
TORSDOF 5
ENDMDL
MODEL 8
REMARK VINA RESULT:      -6.7      2.803      4.605
REMARK  Name = 
REMARK  7 active torsions:
REMARK  status: ('A' for Active; 'I' for Inactive)
REMARK    1  A    between atoms: C_1  and  O_2
REMARK    2  A    between atoms: O_2  and  C_3
REMARK    3  A    between atoms: C_8  and  C_9
REMARK    4  A    between atoms: C_10  and  O_11
REMARK    5  A    between atoms: C_12  and  O_13
REMARK    6  A    between atoms: C_21  and  O_22
REMARK    7  A    between atoms: O_22  and  C_23
REMARK                            x       y       z     vdW  Elec       q    Type
REMARK                         _______ _______ _______ _____ _____    ______ ____
ROOT
ATOM      1  C   UNL     1       6.625   7.203  17.349  0.00  0.00    +0.000 A 
ATOM      2  C   UNL     1       5.427   7.899  17.087  0.00  0.00    +0.000 A 
ATOM      3  C   UNL     1       4.219   7.320  17.490  0.00  0.00    +0.000 A 
ATOM      4  N   UNL     1       2.934   7.818  17.463  0.00  0.00    +0.000 N 
ATOM      5  C   UNL     1       2.061   6.906  18.004  0.00  0.00    +0.000 A 
ATOM      6  C   UNL     1       2.796   5.806  18.380  0.00  0.00    +0.000 A 
ATOM      7  C   UNL     1       4.157   6.051  18.056  0.00  0.00    +0.000 A 
ATOM      8  C   UNL     1       5.352   5.323  18.200  0.00  0.00    +0.000 A 
ATOM      9  C   UNL     1       6.588   5.896  17.857  0.00  0.00    +0.000 A 
ATOM     10  H   UNL     1       2.685   8.745  17.141  0.00  0.00    +0.000 HD
ENDROOT
BRANCH   6  11
ATOM     11  C   UNL     1       2.284   4.633  19.008  0.00  0.00    +0.000 C 
ATOM     12  C   UNL     1       2.318   4.423  20.337  0.00  0.00    +0.000 C 
ATOM     13  C   UNL     1       1.726   3.268  20.972  0.00  0.00    +0.000 C 
ATOM     14  C   UNL     1       1.035   2.336  20.313  0.00  0.00    +0.000 C 
ATOM     15  C   UNL     1       0.879   2.461  18.856  0.00  0.00    +0.000 C 
ATOM     16  O   UNL     1       0.191   1.663  18.234  0.00  0.00    +0.000 OA
ATOM     17  C   UNL     1       1.598   3.609  18.151  0.00  0.00    +0.000 C 
ATOM     18  O   UNL     1       1.604   3.662  16.928  0.00  0.00    +0.000 OA
BRANCH  12  19
ATOM     19  O   UNL     1       2.898   5.291  21.248  0.00  0.00    +0.000 OA
ATOM     20  H   UNL     1       2.860   4.876  22.134  0.00  0.00    +0.000 HD
ENDBRANCH  12  19
BRANCH  13  21
ATOM     21  O   UNL     1       1.877   3.192  22.339  0.00  0.00    +0.000 OA
ATOM     22  H   UNL     1       2.594   3.823  22.562  0.00  0.00    +0.000 HD
ENDBRANCH  13  21
ENDBRANCH   6  11
BRANCH   1  24
ATOM     23  C   UNL     1       8.169   8.912  17.904  0.00  0.00    +0.000 C 
ATOM     24  O   UNL     1       7.836   7.793  17.082  0.00  0.00    +0.000 OA
ENDBRANCH   1  24
BRANCH   9  25
ATOM     25  O   UNL     1       7.618   5.033  18.123  0.00  0.00    +0.000 OA
ATOM     26  C   UNL     1       8.327   5.140  19.343  0.00  0.00    +0.000 C 
ENDBRANCH   9  25
TORSDOF 5
ENDMDL
MODEL 9
REMARK VINA RESULT:      -6.4      3.126      6.916
REMARK  Name = 
REMARK  7 active torsions:
REMARK  status: ('A' for Active; 'I' for Inactive)
REMARK    1  A    between atoms: C_1  and  O_2
REMARK    2  A    between atoms: O_2  and  C_3
REMARK    3  A    between atoms: C_8  and  C_9
REMARK    4  A    between atoms: C_10  and  O_11
REMARK    5  A    between atoms: C_12  and  O_13
REMARK    6  A    between atoms: C_21  and  O_22
REMARK    7  A    between atoms: O_22  and  C_23
REMARK                            x       y       z     vdW  Elec       q    Type
REMARK                         _______ _______ _______ _____ _____    ______ ____
ROOT
ATOM      1  C   UNL     1       0.848  10.419  20.568  0.00  0.00    +0.000 A 
ATOM      2  C   UNL     1       1.230  10.197  19.229  0.00  0.00    +0.000 A 
ATOM      3  C   UNL     1       1.703   8.929  18.873  0.00  0.00    +0.000 A 
ATOM      4  N   UNL     1       2.032   8.411  17.639  0.00  0.00    +0.000 N 
ATOM      5  C   UNL     1       2.413   7.097  17.765  0.00  0.00    +0.000 A 
ATOM      6  C   UNL     1       2.329   6.769  19.098  0.00  0.00    +0.000 A 
ATOM      7  C   UNL     1       1.888   7.917  19.809  0.00  0.00    +0.000 A 
ATOM      8  C   UNL     1       1.613   8.195  21.159  0.00  0.00    +0.000 A 
ATOM      9  C   UNL     1       1.086   9.439  21.544  0.00  0.00    +0.000 A 
ATOM     10  H   UNL     1       1.951   8.914  16.765  0.00  0.00    +0.000 HD
ENDROOT
BRANCH   6  11
ATOM     11  C   UNL     1       2.611   5.492  19.664  0.00  0.00    +0.000 C 
ATOM     12  C   UNL     1       1.685   4.721  20.265  0.00  0.00    +0.000 C 
ATOM     13  C   UNL     1       1.964   3.394  20.766  0.00  0.00    +0.000 C 
ATOM     14  C   UNL     1       3.141   2.783  20.623  0.00  0.00    +0.000 C 
ATOM     15  C   UNL     1       4.236   3.493  19.945  0.00  0.00    +0.000 C 
ATOM     16  O   UNL     1       5.304   2.934  19.736  0.00  0.00    +0.000 OA
ATOM     17  C   UNL     1       3.998   4.939  19.516  0.00  0.00    +0.000 C 
ATOM     18  O   UNL     1       4.930   5.603  19.077  0.00  0.00    +0.000 OA
BRANCH  12  19
ATOM     19  O   UNL     1       0.364   5.093  20.451  0.00  0.00    +0.000 OA
ATOM     20  H   UNL     1      -0.143   4.299  20.721  0.00  0.00    +0.000 HD
ENDBRANCH  12  19
BRANCH  13  21
ATOM     21  O   UNL     1       0.911   2.752  21.380  0.00  0.00    +0.000 OA
ATOM     22  H   UNL     1       0.891   1.849  20.997  0.00  0.00    +0.000 HD
ENDBRANCH  13  21
ENDBRANCH   6  11
BRANCH   1  24
ATOM     23  C   UNL     1      -0.985  11.896  20.300  0.00  0.00    +0.000 C 
ATOM     24  O   UNL     1       0.265  11.608  20.929  0.00  0.00    +0.000 OA
ENDBRANCH   1  24
BRANCH   9  25
ATOM     25  O   UNL     1       0.851   9.476  22.893  0.00  0.00    +0.000 OA
ATOM     26  C   UNL     1      -0.473   9.629  23.371  0.00  0.00    +0.000 C 
ENDBRANCH   9  25
TORSDOF 5
ENDMDL
