MODEL 1
REMARK VINA RESULT:      -8.6      0.000      0.000
REMARK  Name = 
REMARK  6 active torsions:
REMARK  status: ('A' for Active; 'I' for Inactive)
REMARK    1  A    between atoms: C_6  and  C_7
REMARK    2  A    between atoms: C_12  and  C_13
REMARK    3  A    between atoms: C_13  and  C_14
REMARK    4  A    between atoms: C_14  and  O_15
REMARK    5  A    between atoms: O_15  and  C_16
REMARK    6  A    between atoms: C_16  and  C_17
REMARK                            x       y       z     vdW  Elec       q    Type
REMARK                         _______ _______ _______ _____ _____    ______ ____
ROOT
ATOM      1  C   UNL     1       2.093   6.670  20.217  0.00  0.00    +0.000 A 
ATOM      2  C   UNL     1       1.756   5.597  21.033  0.00  0.00    +0.000 A 
ATOM      3  C   UNL     1       2.495   4.466  20.611  0.00  0.00    +0.000 A 
ATOM      4  C   UNL     1       3.294   4.884  19.568  0.00  0.00    +0.000 A 
ATOM      5  N   UNL     1       3.071   6.217  19.350  0.00  0.00    +0.000 N 
ATOM      6  C   UNL     1       4.220   3.999  18.796  0.00  0.00    +0.000 C 
ATOM      7  C   UNL     1       4.510   2.751  19.678  0.00  0.00    +0.000 C 
ATOM      8  N   UNL     1       3.355   2.247  20.417  0.00  0.00    +0.000 N 
ATOM      9  C   UNL     1       2.476   3.088  21.075  0.00  0.00    +0.000 C 
ATOM     10  O   UNL     1       1.736   2.678  21.960  0.00  0.00    +0.000 OA
ATOM     11  H   UNL     1       3.488   6.792  18.626  0.00  0.00    +0.000 HD
ATOM     12  H   UNL     1       3.398   1.324  20.829  0.00  0.00    +0.000 HD
ENDROOT
BRANCH   1  18
ATOM     13  N   UNL     1       1.578  10.631  17.745  0.00  0.00    +0.000 N 
ATOM     14  C   UNL     1       1.342   9.933  18.912  0.00  0.00    +0.000 A 
ATOM     15  N   UNL     1       0.674  10.570  19.875  0.00  0.00    +0.000 NA
ATOM     16  C   UNL     1       0.450   9.882  21.008  0.00  0.00    +0.000 A 
ATOM     17  C   UNL     1       0.879   8.596  21.205  0.00  0.00    +0.000 A 
ATOM     18  C   UNL     1       1.581   8.038  20.159  0.00  0.00    +0.000 A 
ATOM     19  N   UNL     1       1.833   8.693  19.006  0.00  0.00    +0.000 NA
ATOM     20  H   UNL     1       1.538  11.622  17.935  0.00  0.00    +0.000 HD
ATOM     21  H   UNL     1       2.404  10.276  17.285  0.00  0.00    +0.000 HD
ENDBRANCH   1  18
BRANCH   6  22
ATOM     22  C   UNL     1       3.608   3.583  17.446  0.00  0.00    +0.000 C 
BRANCH  22  23
ATOM     23  C   UNL     1       4.381   4.120  16.237  0.00  0.00    +0.000 C 
BRANCH  23  24
ATOM     24  O   UNL     1       5.620   3.437  16.037  0.00  0.00    +0.000 OA
BRANCH  24  25
ATOM     25  C   UNL     1       6.655   4.299  15.561  0.00  0.00    +0.000 C 
BRANCH  25  26
ATOM     26  C   UNL     1       7.157   5.210  16.652  0.00  0.00    +0.000 A 
ATOM     27  C   UNL     1       7.096   6.606  16.542  0.00  0.00    +0.000 A 
ATOM     28  C   UNL     1       7.520   7.420  17.594  0.00  0.00    +0.000 A 
ATOM     29  C   UNL     1       7.997   6.848  18.772  0.00  0.00    +0.000 A 
ATOM     30  C   UNL     1       8.045   5.462  18.901  0.00  0.00    +0.000 A 
ATOM     31  C   UNL     1       7.623   4.648  17.851  0.00  0.00    +0.000 A 
ENDBRANCH  25  26
ENDBRANCH  24  25
ENDBRANCH  23  24
ENDBRANCH  22  23
ENDBRANCH   6  22
TORSDOF 6
ENDMDL
MODEL 2
REMARK VINA RESULT:      -8.5      3.688      6.634
REMARK  Name = 
REMARK  6 active torsions:
REMARK  status: ('A' for Active; 'I' for Inactive)
REMARK    1  A    between atoms: C_6  and  C_7
REMARK    2  A    between atoms: C_12  and  C_13
REMARK    3  A    between atoms: C_13  and  C_14
REMARK    4  A    between atoms: C_14  and  O_15
REMARK    5  A    between atoms: O_15  and  C_16
REMARK    6  A    between atoms: C_16  and  C_17
REMARK                            x       y       z     vdW  Elec       q    Type
REMARK                         _______ _______ _______ _____ _____    ______ ____
ROOT
ATOM      1  C   UNL     1       8.422   8.831  18.154  0.00  0.00    +0.000 A 
ATOM      2  C   UNL     1       8.432   7.827  19.114  0.00  0.00    +0.000 A 
ATOM      3  C   UNL     1       7.845   6.668  18.555  0.00  0.00    +0.000 A 
ATOM      4  C   UNL     1       7.522   6.980  17.251  0.00  0.00    +0.000 A 
ATOM      5  N   UNL     1       7.895   8.274  17.004  0.00  0.00    +0.000 N 
ATOM      6  C   UNL     1       6.846   6.051  16.294  0.00  0.00    +0.000 C 
ATOM      7  C   UNL     1       7.065   4.603  16.821  0.00  0.00    +0.000 C 
ATOM      8  N   UNL     1       6.970   4.464  18.272  0.00  0.00    +0.000 N 
ATOM      9  C   UNL     1       7.552   5.369  19.140  0.00  0.00    +0.000 C 
ATOM     10  O   UNL     1       7.776   5.084  20.310  0.00  0.00    +0.000 OA
ATOM     11  H   UNL     1       7.754   8.793  16.143  0.00  0.00    +0.000 HD
ATOM     12  H   UNL     1       6.875   3.540  18.673  0.00  0.00    +0.000 HD
ENDROOT
BRANCH   1  18
ATOM     13  N   UNL     1       7.549  13.291  16.966  0.00  0.00    +0.000 N 
ATOM     14  C   UNL     1       8.351  12.385  17.630  0.00  0.00    +0.000 A 
ATOM     15  N   UNL     1       9.419  12.873  18.265  0.00  0.00    +0.000 NA
ATOM     16  C   UNL     1      10.195  11.983  18.908  0.00  0.00    +0.000 A 
ATOM     17  C   UNL     1       9.941  10.637  18.925  0.00  0.00    +0.000 A 
ATOM     18  C   UNL     1       8.828  10.234  18.219  0.00  0.00    +0.000 A 
ATOM     19  N   UNL     1       8.024  11.091  17.555  0.00  0.00    +0.000 NA
ATOM     20  H   UNL     1       8.087  14.119  16.752  0.00  0.00    +0.000 HD
ATOM     21  H   UNL     1       7.065  12.837  16.206  0.00  0.00    +0.000 HD
ENDBRANCH   1  18
BRANCH   6  22
ATOM     22  C   UNL     1       5.344   6.364  16.169  0.00  0.00    +0.000 C 
BRANCH  22  23
ATOM     23  C   UNL     1       4.770   7.083  17.395  0.00  0.00    +0.000 C 
BRANCH  23  24
ATOM     24  O   UNL     1       4.220   6.174  18.350  0.00  0.00    +0.000 OA
BRANCH  24  25
ATOM     25  C   UNL     1       2.812   6.341  18.524  0.00  0.00    +0.000 C 
BRANCH  25  26
ATOM     26  C   UNL     1       2.160   5.065  18.991  0.00  0.00    +0.000 A 
ATOM     27  C   UNL     1       1.809   4.855  20.332  0.00  0.00    +0.000 A 
ATOM     28  C   UNL     1       1.158   3.683  20.720  0.00  0.00    +0.000 A 
ATOM     29  C   UNL     1       0.837   2.715  19.771  0.00  0.00    +0.000 A 
ATOM     30  C   UNL     1       1.161   2.920  18.432  0.00  0.00    +0.000 A 
ATOM     31  C   UNL     1       1.814   4.089  18.043  0.00  0.00    +0.000 A 
ENDBRANCH  25  26
ENDBRANCH  24  25
ENDBRANCH  23  24
ENDBRANCH  22  23
ENDBRANCH   6  22
TORSDOF 6
ENDMDL
MODEL 3
REMARK VINA RESULT:      -8.2      4.069      6.859
REMARK  Name = 
REMARK  6 active torsions:
REMARK  status: ('A' for Active; 'I' for Inactive)
REMARK    1  A    between atoms: C_6  and  C_7
REMARK    2  A    between atoms: C_12  and  C_13
REMARK    3  A    between atoms: C_13  and  C_14
REMARK    4  A    between atoms: C_14  and  O_15
REMARK    5  A    between atoms: O_15  and  C_16
REMARK    6  A    between atoms: C_16  and  C_17
REMARK                            x       y       z     vdW  Elec       q    Type
REMARK                         _______ _______ _______ _____ _____    ______ ____
ROOT
ATOM      1  C   UNL     1       8.455   8.928  18.241  0.00  0.00    +0.000 A 
ATOM      2  C   UNL     1       8.507   7.908  19.183  0.00  0.00    +0.000 A 
ATOM      3  C   UNL     1       7.905   6.755  18.627  0.00  0.00    +0.000 A 
ATOM      4  C   UNL     1       7.530   7.087  17.343  0.00  0.00    +0.000 A 
ATOM      5  N   UNL     1       7.886   8.386  17.103  0.00  0.00    +0.000 N 
ATOM      6  C   UNL     1       6.822   6.169  16.397  0.00  0.00    +0.000 C 
ATOM      7  C   UNL     1       7.069   4.715  16.891  0.00  0.00    +0.000 C 
ATOM      8  N   UNL     1       7.032   4.551  18.342  0.00  0.00    +0.000 N 
ATOM      9  C   UNL     1       7.643   5.445  19.202  0.00  0.00    +0.000 C 
ATOM     10  O   UNL     1       7.914   5.142  20.357  0.00  0.00    +0.000 OA
ATOM     11  H   UNL     1       7.708   8.919  16.257  0.00  0.00    +0.000 HD
ATOM     12  H   UNL     1       6.958   3.620  18.731  0.00  0.00    +0.000 HD
ENDROOT
BRANCH   1  18
ATOM     13  N   UNL     1      11.281  12.173  20.124  0.00  0.00    +0.000 N 
ATOM     14  C   UNL     1      10.263  11.867  19.245  0.00  0.00    +0.000 A 
ATOM     15  N   UNL     1       9.739  12.878  18.549  0.00  0.00    +0.000 NA
ATOM     16  C   UNL     1       8.746  12.570  17.696  0.00  0.00    +0.000 A 
ATOM     17  C   UNL     1       8.263  11.299  17.530  0.00  0.00    +0.000 A 
ATOM     18  C   UNL     1       8.855  10.332  18.314  0.00  0.00    +0.000 A 
ATOM     19  N   UNL     1       9.851  10.596  19.186  0.00  0.00    +0.000 NA
ATOM     20  H   UNL     1      11.223  13.149  20.376  0.00  0.00    +0.000 HD
ATOM     21  H   UNL     1      11.313  11.496  20.872  0.00  0.00    +0.000 HD
ENDBRANCH   1  18
BRANCH   6  22
ATOM     22  C   UNL     1       5.314   6.476  16.337  0.00  0.00    +0.000 C 
BRANCH  22  23
ATOM     23  C   UNL     1       4.465   5.514  17.175  0.00  0.00    +0.000 C 
BRANCH  23  24
ATOM     24  O   UNL     1       4.204   6.020  18.486  0.00  0.00    +0.000 OA
BRANCH  24  25
ATOM     25  C   UNL     1       2.808   6.146  18.761  0.00  0.00    +0.000 C 
BRANCH  25  26
ATOM     26  C   UNL     1       2.269   4.918  19.447  0.00  0.00    +0.000 A 
ATOM     27  C   UNL     1       2.425   4.704  20.823  0.00  0.00    +0.000 A 
ATOM     28  C   UNL     1       1.866   3.581  21.435  0.00  0.00    +0.000 A 
ATOM     29  C   UNL     1       1.132   2.667  20.682  0.00  0.00    +0.000 A 
ATOM     30  C   UNL     1       0.951   2.878  19.317  0.00  0.00    +0.000 A 
ATOM     31  C   UNL     1       1.511   3.998  18.704  0.00  0.00    +0.000 A 
ENDBRANCH  25  26
ENDBRANCH  24  25
ENDBRANCH  23  24
ENDBRANCH  22  23
ENDBRANCH   6  22
TORSDOF 6
ENDMDL
MODEL 4
REMARK VINA RESULT:      -8.1      3.732      6.678
REMARK  Name = 
REMARK  6 active torsions:
REMARK  status: ('A' for Active; 'I' for Inactive)
REMARK    1  A    between atoms: C_6  and  C_7
REMARK    2  A    between atoms: C_12  and  C_13
REMARK    3  A    between atoms: C_13  and  C_14
REMARK    4  A    between atoms: C_14  and  O_15
REMARK    5  A    between atoms: O_15  and  C_16
REMARK    6  A    between atoms: C_16  and  C_17
REMARK                            x       y       z     vdW  Elec       q    Type
REMARK                         _______ _______ _______ _____ _____    ______ ____
ROOT
ATOM      1  C   UNL     1       8.539   8.917  18.255  0.00  0.00    +0.000 A 
ATOM      2  C   UNL     1       8.593   7.909  19.210  0.00  0.00    +0.000 A 
ATOM      3  C   UNL     1       7.957   6.760  18.683  0.00  0.00    +0.000 A 
ATOM      4  C   UNL     1       7.561   7.082  17.402  0.00  0.00    +0.000 A 
ATOM      5  N   UNL     1       7.936   8.371  17.137  0.00  0.00    +0.000 N 
ATOM      6  C   UNL     1       6.815   6.166  16.485  0.00  0.00    +0.000 C 
ATOM      7  C   UNL     1       7.045   4.713  16.993  0.00  0.00    +0.000 C 
ATOM      8  N   UNL     1       7.036   4.569  18.446  0.00  0.00    +0.000 N 
ATOM      9  C   UNL     1       7.682   5.463  19.281  0.00  0.00    +0.000 C 
ATOM     10  O   UNL     1       7.972   5.170  20.434  0.00  0.00    +0.000 OA
ATOM     11  H   UNL     1       7.750   8.896  16.288  0.00  0.00    +0.000 HD
ATOM     12  H   UNL     1       6.953   3.646  18.850  0.00  0.00    +0.000 HD
ENDROOT
BRANCH   1  18
ATOM     13  N   UNL     1       7.679  13.387  17.100  0.00  0.00    +0.000 N 
ATOM     14  C   UNL     1       8.496  12.471  17.729  0.00  0.00    +0.000 A 
ATOM     15  N   UNL     1       9.598  12.944  18.315  0.00  0.00    +0.000 NA
ATOM     16  C   UNL     1      10.388  12.043  18.925  0.00  0.00    +0.000 A 
ATOM     17  C   UNL     1      10.116  10.701  18.956  0.00  0.00    +0.000 A 
ATOM     18  C   UNL     1       8.968  10.314  18.300  0.00  0.00    +0.000 A 
ATOM     19  N   UNL     1       8.147  11.181  17.671  0.00  0.00    +0.000 NA
ATOM     20  H   UNL     1       8.218  14.207  16.861  0.00  0.00    +0.000 HD
ATOM     21  H   UNL     1       7.155  12.940  16.362  0.00  0.00    +0.000 HD
ENDBRANCH   1  18
BRANCH   6  22
ATOM     22  C   UNL     1       5.312   6.500  16.452  0.00  0.00    +0.000 C 
BRANCH  22  23
ATOM     23  C   UNL     1       4.467   5.586  17.346  0.00  0.00    +0.000 C 
BRANCH  23  24
ATOM     24  O   UNL     1       3.638   6.322  18.247  0.00  0.00    +0.000 OA
BRANCH  24  25
ATOM     25  C   UNL     1       2.263   5.946  18.165  0.00  0.00    +0.000 C 
BRANCH  25  26
ATOM     26  C   UNL     1       1.945   4.814  19.108  0.00  0.00    +0.000 A 
ATOM     27  C   UNL     1       1.371   3.615  18.665  0.00  0.00    +0.000 A 
ATOM     28  C   UNL     1       1.139   2.567  19.557  0.00  0.00    +0.000 A 
ATOM     29  C   UNL     1       1.492   2.700  20.899  0.00  0.00    +0.000 A 
ATOM     30  C   UNL     1       2.082   3.879  21.348  0.00  0.00    +0.000 A 
ATOM     31  C   UNL     1       2.312   4.927  20.459  0.00  0.00    +0.000 A 
ENDBRANCH  25  26
ENDBRANCH  24  25
ENDBRANCH  23  24
ENDBRANCH  22  23
ENDBRANCH   6  22
TORSDOF 6
ENDMDL
MODEL 5
REMARK VINA RESULT:      -8.1      3.700      6.594
REMARK  Name = 
REMARK  6 active torsions:
REMARK  status: ('A' for Active; 'I' for Inactive)
REMARK    1  A    between atoms: C_6  and  C_7
REMARK    2  A    between atoms: C_12  and  C_13
REMARK    3  A    between atoms: C_13  and  C_14
REMARK    4  A    between atoms: C_14  and  O_15
REMARK    5  A    between atoms: O_15  and  C_16
REMARK    6  A    between atoms: C_16  and  C_17
REMARK                            x       y       z     vdW  Elec       q    Type
REMARK                         _______ _______ _______ _____ _____    ______ ____
ROOT
ATOM      1  C   UNL     1       8.459   8.983  18.224  0.00  0.00    +0.000 A 
ATOM      2  C   UNL     1       8.659   7.941  19.121  0.00  0.00    +0.000 A 
ATOM      3  C   UNL     1       7.947   6.810  18.658  0.00  0.00    +0.000 A 
ATOM      4  C   UNL     1       7.356   7.177  17.467  0.00  0.00    +0.000 A 
ATOM      5  N   UNL     1       7.687   8.477  17.195  0.00  0.00    +0.000 N 
ATOM      6  C   UNL     1       6.474   6.292  16.644  0.00  0.00    +0.000 C 
ATOM      7  C   UNL     1       6.778   4.823  17.056  0.00  0.00    +0.000 C 
ATOM      8  N   UNL     1       6.996   4.626  18.487  0.00  0.00    +0.000 N 
ATOM      9  C   UNL     1       7.767   5.491  19.243  0.00  0.00    +0.000 C 
ATOM     10  O   UNL     1       8.233   5.157  20.325  0.00  0.00    +0.000 OA
ATOM     11  H   UNL     1       7.372   9.032  16.405  0.00  0.00    +0.000 HD
ATOM     12  H   UNL     1       6.975   3.688  18.864  0.00  0.00    +0.000 HD
ENDROOT
BRANCH   1  18
ATOM     13  N   UNL     1       7.626  13.440  16.997  0.00  0.00    +0.000 N 
ATOM     14  C   UNL     1       8.433  12.530  17.647  0.00  0.00    +0.000 A 
ATOM     15  N   UNL     1       9.531  13.007  18.237  0.00  0.00    +0.000 NA
ATOM     16  C   UNL     1      10.313  12.113  18.867  0.00  0.00    +0.000 A 
ATOM     17  C   UNL     1      10.036  10.772  18.914  0.00  0.00    +0.000 A 
ATOM     18  C   UNL     1       8.892  10.379  18.253  0.00  0.00    +0.000 A 
ATOM     19  N   UNL     1       8.081  11.241  17.604  0.00  0.00    +0.000 NA
ATOM     20  H   UNL     1       8.170  14.254  16.751  0.00  0.00    +0.000 HD
ATOM     21  H   UNL     1       7.107  12.984  16.261  0.00  0.00    +0.000 HD
ENDBRANCH   1  18
BRANCH   6  22
ATOM     22  C   UNL     1       4.985   6.622  16.860  0.00  0.00    +0.000 C 
BRANCH  22  23
ATOM     23  C   UNL     1       4.273   5.634  17.788  0.00  0.00    +0.000 C 
BRANCH  23  24
ATOM     24  O   UNL     1       3.385   4.767  17.081  0.00  0.00    +0.000 OA
BRANCH  24  25
ATOM     25  C   UNL     1       3.449   3.416  17.540  0.00  0.00    +0.000 C 
BRANCH  25  26
ATOM     26  C   UNL     1       2.761   3.253  18.871  0.00  0.00    +0.000 A 
ATOM     27  C   UNL     1       3.435   2.776  20.004  0.00  0.00    +0.000 A 
ATOM     28  C   UNL     1       2.782   2.689  21.234  0.00  0.00    +0.000 A 
ATOM     29  C   UNL     1       1.453   3.091  21.349  0.00  0.00    +0.000 A 
ATOM     30  C   UNL     1       0.777   3.586  20.237  0.00  0.00    +0.000 A 
ATOM     31  C   UNL     1       1.428   3.672  19.006  0.00  0.00    +0.000 A 
ENDBRANCH  25  26
ENDBRANCH  24  25
ENDBRANCH  23  24
ENDBRANCH  22  23
ENDBRANCH   6  22
TORSDOF 6
ENDMDL
MODEL 6
REMARK VINA RESULT:      -8.0      0.777      1.314
REMARK  Name = 
REMARK  6 active torsions:
REMARK  status: ('A' for Active; 'I' for Inactive)
REMARK    1  A    between atoms: C_6  and  C_7
REMARK    2  A    between atoms: C_12  and  C_13
REMARK    3  A    between atoms: C_13  and  C_14
REMARK    4  A    between atoms: C_14  and  O_15
REMARK    5  A    between atoms: O_15  and  C_16
REMARK    6  A    between atoms: C_16  and  C_17
REMARK                            x       y       z     vdW  Elec       q    Type
REMARK                         _______ _______ _______ _____ _____    ______ ____
ROOT
ATOM      1  C   UNL     1       2.049   7.010  19.918  0.00  0.00    +0.000 A 
ATOM      2  C   UNL     1       1.748   6.012  20.837  0.00  0.00    +0.000 A 
ATOM      3  C   UNL     1       2.466   4.846  20.482  0.00  0.00    +0.000 A 
ATOM      4  C   UNL     1       3.219   5.170  19.373  0.00  0.00    +0.000 A 
ATOM      5  N   UNL     1       2.987   6.479  19.052  0.00  0.00    +0.000 N 
ATOM      6  C   UNL     1       4.110   4.218  18.640  0.00  0.00    +0.000 C 
ATOM      7  C   UNL     1       4.438   3.048  19.612  0.00  0.00    +0.000 C 
ATOM      8  N   UNL     1       3.316   2.615  20.442  0.00  0.00    +0.000 N 
ATOM      9  C   UNL     1       2.468   3.512  21.063  0.00  0.00    +0.000 C 
ATOM     10  O   UNL     1       1.766   3.183  22.011  0.00  0.00    +0.000 OA
ATOM     11  H   UNL     1       3.373   6.989  18.264  0.00  0.00    +0.000 HD
ATOM     12  H   UNL     1       3.376   1.730  20.928  0.00  0.00    +0.000 HD
ENDROOT
BRANCH   1  18
ATOM     13  N   UNL     1       0.050  10.760  21.918  0.00  0.00    +0.000 N 
ATOM     14  C   UNL     1       0.579  10.171  20.788  0.00  0.00    +0.000 A 
ATOM     15  N   UNL     1       0.570  10.894  19.667  0.00  0.00    +0.000 NA
ATOM     16  C   UNL     1       1.087  10.311  18.571  0.00  0.00    +0.000 A 
ATOM     17  C   UNL     1       1.596   9.040  18.564  0.00  0.00    +0.000 A 
ATOM     18  C   UNL     1       1.536   8.370  19.766  0.00  0.00    +0.000 A 
ATOM     19  N   UNL     1       1.022   8.913  20.890  0.00  0.00    +0.000 NA
ATOM     20  H   UNL     1      -0.590  11.492  21.644  0.00  0.00    +0.000 HD
ATOM     21  H   UNL     1      -0.290  10.054  22.554  0.00  0.00    +0.000 HD
ENDBRANCH   1  18
BRANCH   6  22
ATOM     22  C   UNL     1       3.438   3.690  17.358  0.00  0.00    +0.000 C 
BRANCH  22  23
ATOM     23  C   UNL     1       4.439   3.209  16.303  0.00  0.00    +0.000 C 
BRANCH  23  24
ATOM     24  O   UNL     1       5.151   4.289  15.696  0.00  0.00    +0.000 OA
BRANCH  24  25
ATOM     25  C   UNL     1       6.567   4.163  15.833  0.00  0.00    +0.000 C 
BRANCH  25  26
ATOM     26  C   UNL     1       7.117   5.168  16.814  0.00  0.00    +0.000 A 
ATOM     27  C   UNL     1       7.064   6.548  16.574  0.00  0.00    +0.000 A 
ATOM     28  C   UNL     1       7.534   7.452  17.528  0.00  0.00    +0.000 A 
ATOM     29  C   UNL     1       8.048   6.988  18.737  0.00  0.00    +0.000 A 
ATOM     30  C   UNL     1       8.088   5.620  18.996  0.00  0.00    +0.000 A 
ATOM     31  C   UNL     1       7.621   4.716  18.043  0.00  0.00    +0.000 A 
ENDBRANCH  25  26
ENDBRANCH  24  25
ENDBRANCH  23  24
ENDBRANCH  22  23
ENDBRANCH   6  22
TORSDOF 6
ENDMDL
MODEL 7
REMARK VINA RESULT:      -7.9      3.757      6.532
REMARK  Name = 
REMARK  6 active torsions:
REMARK  status: ('A' for Active; 'I' for Inactive)
REMARK    1  A    between atoms: C_6  and  C_7
REMARK    2  A    between atoms: C_12  and  C_13
REMARK    3  A    between atoms: C_13  and  C_14
REMARK    4  A    between atoms: C_14  and  O_15
REMARK    5  A    between atoms: O_15  and  C_16
REMARK    6  A    between atoms: C_16  and  C_17
REMARK                            x       y       z     vdW  Elec       q    Type
REMARK                         _______ _______ _______ _____ _____    ______ ____
ROOT
ATOM      1  C   UNL     1       8.526   8.935  18.290  0.00  0.00    +0.000 A 
ATOM      2  C   UNL     1       8.625   7.934  19.249  0.00  0.00    +0.000 A 
ATOM      3  C   UNL     1       8.043   6.755  18.726  0.00  0.00    +0.000 A 
ATOM      4  C   UNL     1       7.634   7.053  17.444  0.00  0.00    +0.000 A 
ATOM      5  N   UNL     1       7.949   8.357  17.173  0.00  0.00    +0.000 N 
ATOM      6  C   UNL     1       6.932   6.100  16.529  0.00  0.00    +0.000 C 
ATOM      7  C   UNL     1       7.228   4.662  17.044  0.00  0.00    +0.000 C 
ATOM      8  N   UNL     1       7.225   4.523  18.498  0.00  0.00    +0.000 N 
ATOM      9  C   UNL     1       7.828   5.449  19.329  0.00  0.00    +0.000 C 
ATOM     10  O   UNL     1       8.130   5.175  20.484  0.00  0.00    +0.000 OA
ATOM     11  H   UNL     1       7.740   8.869  16.322  0.00  0.00    +0.000 HD
ATOM     12  H   UNL     1       7.184   3.598  18.905  0.00  0.00    +0.000 HD
ENDROOT
BRANCH   1  18
ATOM     13  N   UNL     1       7.573  13.332  16.942  0.00  0.00    +0.000 N 
ATOM     14  C   UNL     1       8.374  12.469  17.661  0.00  0.00    +0.000 A 
ATOM     15  N   UNL     1       9.403  13.005  18.320  0.00  0.00    +0.000 NA
ATOM     16  C   UNL     1      10.179  12.156  19.017  0.00  0.00    +0.000 A 
ATOM     17  C   UNL     1       9.963  10.805  19.064  0.00  0.00    +0.000 A 
ATOM     18  C   UNL     1       8.889  10.350  18.329  0.00  0.00    +0.000 A 
ATOM     19  N   UNL     1       8.087  11.164  17.612  0.00  0.00    +0.000 NA
ATOM     20  H   UNL     1       8.095  14.169  16.724  0.00  0.00    +0.000 HD
ATOM     21  H   UNL     1       7.130  12.844  16.178  0.00  0.00    +0.000 HD
ENDBRANCH   1  18
BRANCH   6  22
ATOM     22  C   UNL     1       5.415   6.364  16.494  0.00  0.00    +0.000 C 
BRANCH  22  23
ATOM     23  C   UNL     1       4.580   5.091  16.327  0.00  0.00    +0.000 C 
BRANCH  23  24
ATOM     24  O   UNL     1       4.444   4.365  17.550  0.00  0.00    +0.000 OA
BRANCH  24  25
ATOM     25  C   UNL     1       3.365   3.429  17.520  0.00  0.00    +0.000 C 
BRANCH  25  26
ATOM     26  C   UNL     1       2.685   3.330  18.861  0.00  0.00    +0.000 A 
ATOM     27  C   UNL     1       1.332   3.648  19.035  0.00  0.00    +0.000 A 
ATOM     28  C   UNL     1       0.720   3.493  20.280  0.00  0.00    +0.000 A 
ATOM     29  C   UNL     1       1.451   3.004  21.362  0.00  0.00    +0.000 A 
ATOM     30  C   UNL     1       2.791   2.664  21.198  0.00  0.00    +0.000 A 
ATOM     31  C   UNL     1       3.404   2.821  19.955  0.00  0.00    +0.000 A 
ENDBRANCH  25  26
ENDBRANCH  24  25
ENDBRANCH  23  24
ENDBRANCH  22  23
ENDBRANCH   6  22
TORSDOF 6
ENDMDL
MODEL 8
REMARK VINA RESULT:      -7.9      3.665      6.602
REMARK  Name = 
REMARK  6 active torsions:
REMARK  status: ('A' for Active; 'I' for Inactive)
REMARK    1  A    between atoms: C_6  and  C_7
REMARK    2  A    between atoms: C_12  and  C_13
REMARK    3  A    between atoms: C_13  and  C_14
REMARK    4  A    between atoms: C_14  and  O_15
REMARK    5  A    between atoms: O_15  and  C_16
REMARK    6  A    between atoms: C_16  and  C_17
REMARK                            x       y       z     vdW  Elec       q    Type
REMARK                         _______ _______ _______ _____ _____    ______ ____
ROOT
ATOM      1  C   UNL     1       8.488   8.946  18.227  0.00  0.00    +0.000 A 
ATOM      2  C   UNL     1       8.564   7.927  19.169  0.00  0.00    +0.000 A 
ATOM      3  C   UNL     1       7.938   6.777  18.634  0.00  0.00    +0.000 A 
ATOM      4  C   UNL     1       7.525   7.108  17.361  0.00  0.00    +0.000 A 
ATOM      5  N   UNL     1       7.881   8.405  17.108  0.00  0.00    +0.000 N 
ATOM      6  C   UNL     1       6.783   6.193  16.440  0.00  0.00    +0.000 C 
ATOM      7  C   UNL     1       7.037   4.738  16.928  0.00  0.00    +0.000 C 
ATOM      8  N   UNL     1       7.044   4.577  18.380  0.00  0.00    +0.000 N 
ATOM      9  C   UNL     1       7.686   5.469  19.219  0.00  0.00    +0.000 C 
ATOM     10  O   UNL     1       7.991   5.166  20.366  0.00  0.00    +0.000 OA
ATOM     11  H   UNL     1       7.680   8.938  16.267  0.00  0.00    +0.000 HD
ATOM     12  H   UNL     1       6.977   3.647  18.773  0.00  0.00    +0.000 HD
ENDROOT
BRANCH   1  18
ATOM     13  N   UNL     1       7.644  13.398  16.992  0.00  0.00    +0.000 N 
ATOM     14  C   UNL     1       8.435  12.496  17.672  0.00  0.00    +0.000 A 
ATOM     15  N   UNL     1       9.498  12.985  18.314  0.00  0.00    +0.000 NA
ATOM     16  C   UNL     1      10.264  12.097  18.973  0.00  0.00    +0.000 A 
ATOM     17  C   UNL     1      10.004  10.752  18.999  0.00  0.00    +0.000 A 
ATOM     18  C   UNL     1       8.898  10.348  18.285  0.00  0.00    +0.000 A 
ATOM     19  N   UNL     1       8.104  11.202  17.605  0.00  0.00    +0.000 NA
ATOM     20  H   UNL     1       8.187  14.222  16.776  0.00  0.00    +0.000 HD
ATOM     21  H   UNL     1       7.166  12.940  16.230  0.00  0.00    +0.000 HD
ENDBRANCH   1  18
BRANCH   6  22
ATOM     22  C   UNL     1       5.276   6.508  16.426  0.00  0.00    +0.000 C 
BRANCH  22  23
ATOM     23  C   UNL     1       4.443   5.528  17.258  0.00  0.00    +0.000 C 
BRANCH  23  24
ATOM     24  O   UNL     1       4.233   5.991  18.594  0.00  0.00    +0.000 OA
BRANCH  24  25
ATOM     25  C   UNL     1       2.858   5.956  18.981  0.00  0.00    +0.000 C 
BRANCH  25  26
ATOM     26  C   UNL     1       2.272   7.343  19.056  0.00  0.00    +0.000 A 
ATOM     27  C   UNL     1       2.179   8.173  17.931  0.00  0.00    +0.000 A 
ATOM     28  C   UNL     1       1.582   9.431  18.025  0.00  0.00    +0.000 A 
ATOM     29  C   UNL     1       1.058   9.867  19.241  0.00  0.00    +0.000 A 
ATOM     30  C   UNL     1       1.125   9.043  20.362  0.00  0.00    +0.000 A 
ATOM     31  C   UNL     1       1.724   7.787  20.269  0.00  0.00    +0.000 A 
ENDBRANCH  25  26
ENDBRANCH  24  25
ENDBRANCH  23  24
ENDBRANCH  22  23
ENDBRANCH   6  22
TORSDOF 6
ENDMDL
MODEL 9
REMARK VINA RESULT:      -7.9      4.060      6.709
REMARK  Name = 
REMARK  6 active torsions:
REMARK  status: ('A' for Active; 'I' for Inactive)
REMARK    1  A    between atoms: C_6  and  C_7
REMARK    2  A    between atoms: C_12  and  C_13
REMARK    3  A    between atoms: C_13  and  C_14
REMARK    4  A    between atoms: C_14  and  O_15
REMARK    5  A    between atoms: O_15  and  C_16
REMARK    6  A    between atoms: C_16  and  C_17
REMARK                            x       y       z     vdW  Elec       q    Type
REMARK                         _______ _______ _______ _____ _____    ______ ____
ROOT
ATOM      1  C   UNL     1       8.366   8.842  18.163  0.00  0.00    +0.000 A 
ATOM      2  C   UNL     1       8.470   7.839  19.119  0.00  0.00    +0.000 A 
ATOM      3  C   UNL     1       7.885   6.662  18.595  0.00  0.00    +0.000 A 
ATOM      4  C   UNL     1       7.470   6.963  17.315  0.00  0.00    +0.000 A 
ATOM      5  N   UNL     1       7.785   8.268  17.047  0.00  0.00    +0.000 N 
ATOM      6  C   UNL     1       6.764   6.012  16.402  0.00  0.00    +0.000 C 
ATOM      7  C   UNL     1       7.063   4.573  16.910  0.00  0.00    +0.000 C 
ATOM      8  N   UNL     1       7.066   4.431  18.364  0.00  0.00    +0.000 N 
ATOM      9  C   UNL     1       7.673   5.354  19.195  0.00  0.00    +0.000 C 
ATOM     10  O   UNL     1       7.980   5.076  20.348  0.00  0.00    +0.000 OA
ATOM     11  H   UNL     1       7.572   8.782  16.199  0.00  0.00    +0.000 HD
ATOM     12  H   UNL     1       7.027   3.504  18.769  0.00  0.00    +0.000 HD
ENDROOT
BRANCH   1  18
ATOM     13  N   UNL     1      11.219  12.175  19.842  0.00  0.00    +0.000 N 
ATOM     14  C   UNL     1      10.153  11.836  19.035  0.00  0.00    +0.000 A 
ATOM     15  N   UNL     1       9.554  12.828  18.374  0.00  0.00    +0.000 NA
ATOM     16  C   UNL     1       8.515  12.488  17.591  0.00  0.00    +0.000 A 
ATOM     17  C   UNL     1       8.059  11.203  17.461  0.00  0.00    +0.000 A 
ATOM     18  C   UNL     1       8.730  10.258  18.205  0.00  0.00    +0.000 A 
ATOM     19  N   UNL     1       9.774  10.553  19.007  0.00  0.00    +0.000 NA
ATOM     20  H   UNL     1      11.150  13.150  20.095  0.00  0.00    +0.000 HD
ATOM     21  H   UNL     1      11.320  11.503  20.588  0.00  0.00    +0.000 HD
ENDBRANCH   1  18
BRANCH   6  22
ATOM     22  C   UNL     1       5.248   6.277  16.374  0.00  0.00    +0.000 C 
BRANCH  22  23
ATOM     23  C   UNL     1       4.781   7.248  17.464  0.00  0.00    +0.000 C 
BRANCH  23  24
ATOM     24  O   UNL     1       3.618   6.780  18.149  0.00  0.00    +0.000 OA
BRANCH  24  25
ATOM     25  C   UNL     1       3.904   5.718  19.060  0.00  0.00    +0.000 C 
BRANCH  25  26
ATOM     26  C   UNL     1       2.905   4.597  18.930  0.00  0.00    +0.000 A 
ATOM     27  C   UNL     1       3.035   3.593  17.960  0.00  0.00    +0.000 A 
ATOM     28  C   UNL     1       2.121   2.540  17.902  0.00  0.00    +0.000 A 
ATOM     29  C   UNL     1       1.075   2.470  18.821  0.00  0.00    +0.000 A 
ATOM     30  C   UNL     1       0.947   3.449  19.803  0.00  0.00    +0.000 A 
ATOM     31  C   UNL     1       1.858   4.504  19.860  0.00  0.00    +0.000 A 
ENDBRANCH  25  26
ENDBRANCH  24  25
ENDBRANCH  23  24
ENDBRANCH  22  23
ENDBRANCH   6  22
TORSDOF 6
ENDMDL
