MODEL 1
REMARK VINA RESULT:      -7.7      0.000      0.000
REMARK  Name = 
REMARK  6 active torsions:
REMARK  status: ('A' for Active; 'I' for Inactive)
REMARK    1  A    between atoms: C_1  and  C_2
REMARK    2  A    between atoms: N_4  and  C_5
REMARK    3  A    between atoms: C_7  and  C_8
REMARK    4  A    between atoms: C_8  and  O_9
REMARK    5  A    between atoms: C_10  and  C_11
REMARK    6  A    between atoms: C_13  and  O_14
REMARK                            x       y       z     vdW  Elec       q    Type
REMARK                         _______ _______ _______ _____ _____    ______ ____
ROOT
ATOM      1  C   UNL     1       5.140   4.692  18.766  0.00  0.00    +0.000 C 
ATOM      2  O   UNL     1       5.040   3.275  19.033  0.00  0.00    +0.000 OA
ATOM      3  C   UNL     1       3.648   2.893  19.108  0.00  0.00    +0.000 C 
ATOM      4  C   UNL     1       2.855   4.051  18.513  0.00  0.00    +0.000 C 
ATOM      5  C   UNL     1       3.703   5.244  18.900  0.00  0.00    +0.000 C 
ENDROOT
BRANCH   1   9
ATOM      6  C   UNL     1       5.627   3.723  13.888  0.00  0.00    +0.000 C 
ATOM      7  C   UNL     1       6.010   4.435  15.144  0.00  0.00    +0.000 A 
ATOM      8  C   UNL     1       5.381   4.286  16.317  0.00  0.00    +0.000 A 
ATOM      9  N   UNL     1       5.781   4.938  17.470  0.00  0.00    +0.000 N 
ATOM     10  C   UNL     1       6.904   5.757  17.477  0.00  0.00    +0.000 A 
ATOM     11  O   UNL     1       7.341   6.310  18.484  0.00  0.00    +0.000 OA
ATOM     12  N   UNL     1       7.526   5.930  16.272  0.00  0.00    +0.000 N 
ATOM     13  C   UNL     1       7.184   5.336  15.093  0.00  0.00    +0.000 A 
ATOM     14  O   UNL     1       7.812   5.526  14.059  0.00  0.00    +0.000 OA
ATOM     15  H   UNL     1       8.343   6.523  16.261  0.00  0.00    +0.000 HD
ENDBRANCH   1   9
BRANCH   4  16
ATOM     16  C   UNL     1       1.423   4.106  19.008  0.00  0.00    +0.000 C 
ATOM     17  F   UNL     1       1.324   3.351  20.135  0.00  0.00    +0.000 F 
ENDBRANCH   4  16
BRANCH   5  18
ATOM     18  O   UNL     1       3.402   5.630  20.249  0.00  0.00    +0.000 OA
ATOM     19  H   UNL     1       4.105   5.304  20.839  0.00  0.00    +0.000 HD
ENDBRANCH   5  18
BRANCH   3  20
ATOM     20  C   UNL     1       3.419   1.562  18.379  0.00  0.00    +0.000 C 
BRANCH  20  21
ATOM     21  O   UNL     1       4.447   0.619  18.677  0.00  0.00    +0.000 OA
ATOM     22  H   UNL     1       4.736   0.217  17.842  0.00  0.00    +0.000 HD
ENDBRANCH  20  21
ENDBRANCH   3  20
TORSDOF 5
ENDMDL
MODEL 2
REMARK VINA RESULT:      -7.2      1.037      1.037
REMARK  Name = 
REMARK  6 active torsions:
REMARK  status: ('A' for Active; 'I' for Inactive)
REMARK    1  A    between atoms: C_1  and  C_2
REMARK    2  A    between atoms: N_4  and  C_5
REMARK    3  A    between atoms: C_7  and  C_8
REMARK    4  A    between atoms: C_8  and  O_9
REMARK    5  A    between atoms: C_10  and  C_11
REMARK    6  A    between atoms: C_13  and  O_14
REMARK                            x       y       z     vdW  Elec       q    Type
REMARK                         _______ _______ _______ _____ _____    ______ ____
ROOT
ATOM      1  C   UNL     1       5.351   4.478  18.191  0.00  0.00    +0.000 C 
ATOM      2  O   UNL     1       4.760   3.161  18.251  0.00  0.00    +0.000 OA
ATOM      3  C   UNL     1       3.339   3.277  18.490  0.00  0.00    +0.000 C 
ATOM      4  C   UNL     1       2.979   4.733  18.215  0.00  0.00    +0.000 C 
ATOM      5  C   UNL     1       4.242   5.455  18.639  0.00  0.00    +0.000 C 
ENDROOT
BRANCH   1   9
ATOM      6  C   UNL     1       5.549   3.566  13.282  0.00  0.00    +0.000 C 
ATOM      7  C   UNL     1       6.003   4.266  14.521  0.00  0.00    +0.000 A 
ATOM      8  C   UNL     1       5.447   4.101  15.728  0.00  0.00    +0.000 A 
ATOM      9  N   UNL     1       5.912   4.742  16.862  0.00  0.00    +0.000 N 
ATOM     10  C   UNL     1       7.029   5.569  16.811  0.00  0.00    +0.000 A 
ATOM     11  O   UNL     1       7.522   6.112  17.796  0.00  0.00    +0.000 OA
ATOM     12  N   UNL     1       7.576   5.758  15.572  0.00  0.00    +0.000 N 
ATOM     13  C   UNL     1       7.166   5.175  14.409  0.00  0.00    +0.000 A 
ATOM     14  O   UNL     1       7.731   5.381  13.341  0.00  0.00    +0.000 OA
ATOM     15  H   UNL     1       8.387   6.356  15.519  0.00  0.00    +0.000 HD
ENDBRANCH   1   9
BRANCH   4  16
ATOM     16  C   UNL     1       1.724   5.180  18.938  0.00  0.00    +0.000 C 
ATOM     17  F   UNL     1       1.447   4.283  19.923  0.00  0.00    +0.000 F 
ENDBRANCH   4  16
BRANCH   5  18
ATOM     18  O   UNL     1       4.234   5.640  20.062  0.00  0.00    +0.000 OA
ATOM     19  H   UNL     1       3.328   5.507  20.396  0.00  0.00    +0.000 HD
ENDBRANCH   5  18
BRANCH   3  20
ATOM     20  C   UNL     1       2.566   2.284  17.612  0.00  0.00    +0.000 C 
BRANCH  20  21
ATOM     21  O   UNL     1       1.646   1.512  18.381  0.00  0.00    +0.000 OA
ATOM     22  H   UNL     1       1.540   1.943  19.245  0.00  0.00    +0.000 HD
ENDBRANCH  20  21
ENDBRANCH   3  20
TORSDOF 5
ENDMDL
MODEL 3
REMARK VINA RESULT:      -6.8      2.920      5.566
REMARK  Name = 
REMARK  6 active torsions:
REMARK  status: ('A' for Active; 'I' for Inactive)
REMARK    1  A    between atoms: C_1  and  C_2
REMARK    2  A    between atoms: N_4  and  C_5
REMARK    3  A    between atoms: C_7  and  C_8
REMARK    4  A    between atoms: C_8  and  O_9
REMARK    5  A    between atoms: C_10  and  C_11
REMARK    6  A    between atoms: C_13  and  O_14
REMARK                            x       y       z     vdW  Elec       q    Type
REMARK                         _______ _______ _______ _____ _____    ______ ____
ROOT
ATOM      1  C   UNL     1       4.464   4.337  18.493  0.00  0.00    +0.000 C 
ATOM      2  O   UNL     1       5.701   4.405  19.236  0.00  0.00    +0.000 OA
ATOM      3  C   UNL     1       6.792   4.703  18.336  0.00  0.00    +0.000 C 
ATOM      4  C   UNL     1       6.154   5.190  17.040  0.00  0.00    +0.000 C 
ATOM      5  C   UNL     1       4.868   4.390  17.003  0.00  0.00    +0.000 C 
ENDROOT
BRANCH   1   9
ATOM      6  C   UNL     1       2.397   8.845  17.875  0.00  0.00    +0.000 C 
ATOM      7  C   UNL     1       2.583   7.561  18.616  0.00  0.00    +0.000 A 
ATOM      8  C   UNL     1       3.361   6.555  18.196  0.00  0.00    +0.000 A 
ATOM      9  N   UNL     1       3.536   5.390  18.921  0.00  0.00    +0.000 N 
ATOM     10  C   UNL     1       2.939   5.224  20.166  0.00  0.00    +0.000 A 
ATOM     11  O   UNL     1       3.110   4.239  20.880  0.00  0.00    +0.000 OA
ATOM     12  N   UNL     1       2.123   6.241  20.577  0.00  0.00    +0.000 N 
ATOM     13  C   UNL     1       1.889   7.410  19.914  0.00  0.00    +0.000 A 
ATOM     14  O   UNL     1       1.160   8.284  20.368  0.00  0.00    +0.000 OA
ATOM     15  H   UNL     1       1.682   6.135  21.479  0.00  0.00    +0.000 HD
ENDBRANCH   1   9
BRANCH   4  16
ATOM     16  C   UNL     1       7.050   5.002  15.831  0.00  0.00    +0.000 C 
ATOM     17  F   UNL     1       6.356   5.357  14.717  0.00  0.00    +0.000 F 
ENDBRANCH   4  16
BRANCH   5  18
ATOM     18  O   UNL     1       5.132   3.082  16.473  0.00  0.00    +0.000 OA
ATOM     19  H   UNL     1       5.581   3.171  15.613  0.00  0.00    +0.000 HD
ENDBRANCH   5  18
BRANCH   3  20
ATOM     20  C   UNL     1       7.741   5.730  18.969  0.00  0.00    +0.000 C 
BRANCH  20  21
ATOM     21  O   UNL     1       7.891   5.510  20.370  0.00  0.00    +0.000 OA
ATOM     22  H   UNL     1       7.948   6.376  20.805  0.00  0.00    +0.000 HD
ENDBRANCH  20  21
ENDBRANCH   3  20
TORSDOF 5
ENDMDL
MODEL 4
REMARK VINA RESULT:      -6.6      2.264      3.163
REMARK  Name = 
REMARK  6 active torsions:
REMARK  status: ('A' for Active; 'I' for Inactive)
REMARK    1  A    between atoms: C_1  and  C_2
REMARK    2  A    between atoms: N_4  and  C_5
REMARK    3  A    between atoms: C_7  and  C_8
REMARK    4  A    between atoms: C_8  and  O_9
REMARK    5  A    between atoms: C_10  and  C_11
REMARK    6  A    between atoms: C_13  and  O_14
REMARK                            x       y       z     vdW  Elec       q    Type
REMARK                         _______ _______ _______ _____ _____    ______ ____
ROOT
ATOM      1  C   UNL     1       4.485   2.828  18.156  0.00  0.00    +0.000 C 
ATOM      2  O   UNL     1       3.226   2.208  17.814  0.00  0.00    +0.000 OA
ATOM      3  C   UNL     1       2.405   2.092  18.997  0.00  0.00    +0.000 C 
ATOM      4  C   UNL     1       3.039   2.998  20.047  0.00  0.00    +0.000 C 
ATOM      5  C   UNL     1       4.510   2.899  19.699  0.00  0.00    +0.000 C 
ENDROOT
BRANCH   1   9
ATOM      6  C   UNL     1       3.352   7.672  17.679  0.00  0.00    +0.000 C 
ATOM      7  C   UNL     1       4.057   6.426  17.253  0.00  0.00    +0.000 A 
ATOM      8  C   UNL     1       3.997   5.262  17.913  0.00  0.00    +0.000 A 
ATOM      9  N   UNL     1       4.638   4.118  17.473  0.00  0.00    +0.000 N 
ATOM     10  C   UNL     1       5.351   4.109  16.280  0.00  0.00    +0.000 A 
ATOM     11  O   UNL     1       5.886   3.107  15.810  0.00  0.00    +0.000 OA
ATOM     12  N   UNL     1       5.435   5.306  15.625  0.00  0.00    +0.000 N 
ATOM     13  C   UNL     1       4.845   6.477  16.001  0.00  0.00    +0.000 A 
ATOM     14  O   UNL     1       4.950   7.503  15.340  0.00  0.00    +0.000 OA
ATOM     15  H   UNL     1       5.949   5.315  14.756  0.00  0.00    +0.000 HD
ENDBRANCH   1   9
BRANCH   4  16
ATOM     16  C   UNL     1       2.697   2.591  21.466  0.00  0.00    +0.000 C 
ATOM     17  F   UNL     1       1.443   3.032  21.755  0.00  0.00    +0.000 F 
ENDBRANCH   4  16
BRANCH   5  18
ATOM     18  O   UNL     1       5.062   1.709  20.281  0.00  0.00    +0.000 OA
ATOM     19  H   UNL     1       5.692   1.958  20.981  0.00  0.00    +0.000 HD
ENDBRANCH   5  18
BRANCH   3  20
ATOM     20  C   UNL     1       0.950   2.460  18.677  0.00  0.00    +0.000 C 
BRANCH  20  21
ATOM     21  O   UNL     1       0.876   3.571  17.785  0.00  0.00    +0.000 OA
ATOM     22  H   UNL     1       1.460   3.389  17.030  0.00  0.00    +0.000 HD
ENDBRANCH  20  21
ENDBRANCH   3  20
TORSDOF 5
ENDMDL
MODEL 5
REMARK VINA RESULT:      -6.6      2.807      5.778
REMARK  Name = 
REMARK  6 active torsions:
REMARK  status: ('A' for Active; 'I' for Inactive)
REMARK    1  A    between atoms: C_1  and  C_2
REMARK    2  A    between atoms: N_4  and  C_5
REMARK    3  A    between atoms: C_7  and  C_8
REMARK    4  A    between atoms: C_8  and  O_9
REMARK    5  A    between atoms: C_10  and  C_11
REMARK    6  A    between atoms: C_13  and  O_14
REMARK                            x       y       z     vdW  Elec       q    Type
REMARK                         _______ _______ _______ _____ _____    ______ ____
ROOT
ATOM      1  C   UNL     1       5.511   4.553  17.452  0.00  0.00    +0.000 C 
ATOM      2  O   UNL     1       6.586   4.325  18.390  0.00  0.00    +0.000 OA
ATOM      3  C   UNL     1       7.453   5.481  18.425  0.00  0.00    +0.000 C 
ATOM      4  C   UNL     1       6.685   6.609  17.745  0.00  0.00    +0.000 C 
ATOM      5  C   UNL     1       5.874   5.858  16.710  0.00  0.00    +0.000 C 
ENDROOT
BRANCH   1   9
ATOM      6  C   UNL     1       2.059   6.891  20.205  0.00  0.00    +0.000 C 
ATOM      7  C   UNL     1       2.590   5.702  19.475  0.00  0.00    +0.000 A 
ATOM      8  C   UNL     1       3.733   5.696  18.775  0.00  0.00    +0.000 A 
ATOM      9  N   UNL     1       4.213   4.568  18.134  0.00  0.00    +0.000 N 
ATOM     10  C   UNL     1       3.545   3.352  18.227  0.00  0.00    +0.000 A 
ATOM     11  O   UNL     1       3.958   2.306  17.732  0.00  0.00    +0.000 OA
ATOM     12  N   UNL     1       2.365   3.369  18.917  0.00  0.00    +0.000 N 
ATOM     13  C   UNL     1       1.820   4.441  19.561  0.00  0.00    +0.000 A 
ATOM     14  O   UNL     1       0.766   4.365  20.181  0.00  0.00    +0.000 OA
ATOM     15  H   UNL     1       1.868   2.494  18.993  0.00  0.00    +0.000 HD
ENDBRANCH   1   9
BRANCH   4  16
ATOM     16  C   UNL     1       7.591   7.685  17.179  0.00  0.00    +0.000 C 
ATOM     17  F   UNL     1       7.889   8.568  18.170  0.00  0.00    +0.000 F 
ENDBRANCH   4  16
BRANCH   5  18
ATOM     18  O   UNL     1       6.686   5.609  15.553  0.00  0.00    +0.000 OA
ATOM     19  H   UNL     1       6.113   5.335  14.814  0.00  0.00    +0.000 HD
ENDBRANCH   5  18
BRANCH   3  20
ATOM     20  C   UNL     1       7.854   5.804  19.871  0.00  0.00    +0.000 C 
BRANCH  20  21
ATOM     21  O   UNL     1       8.925   4.974  20.315  0.00  0.00    +0.000 OA
ATOM     22  H   UNL     1       8.579   4.379  21.000  0.00  0.00    +0.000 HD
ENDBRANCH  20  21
ENDBRANCH   3  20
TORSDOF 5
ENDMDL
MODEL 6
REMARK VINA RESULT:      -6.6      2.792      5.786
REMARK  Name = 
REMARK  6 active torsions:
REMARK  status: ('A' for Active; 'I' for Inactive)
REMARK    1  A    between atoms: C_1  and  C_2
REMARK    2  A    between atoms: N_4  and  C_5
REMARK    3  A    between atoms: C_7  and  C_8
REMARK    4  A    between atoms: C_8  and  O_9
REMARK    5  A    between atoms: C_10  and  C_11
REMARK    6  A    between atoms: C_13  and  O_14
REMARK                            x       y       z     vdW  Elec       q    Type
REMARK                         _______ _______ _______ _____ _____    ______ ____
ROOT
ATOM      1  C   UNL     1       5.200   3.520  18.145  0.00  0.00    +0.000 C 
ATOM      2  O   UNL     1       6.481   3.936  18.668  0.00  0.00    +0.000 OA
ATOM      3  C   UNL     1       6.849   5.210  18.095  0.00  0.00    +0.000 C 
ATOM      4  C   UNL     1       5.582   5.774  17.462  0.00  0.00    +0.000 C 
ATOM      5  C   UNL     1       4.869   4.516  17.012  0.00  0.00    +0.000 C 
ENDROOT
BRANCH   1   9
ATOM      6  C   UNL     1       1.452   5.529  20.769  0.00  0.00    +0.000 C 
ATOM      7  C   UNL     1       2.424   4.436  20.469  0.00  0.00    +0.000 A 
ATOM      8  C   UNL     1       3.289   4.456  19.446  0.00  0.00    +0.000 A 
ATOM      9  N   UNL     1       4.198   3.439  19.213  0.00  0.00    +0.000 N 
ATOM     10  C   UNL     1       4.291   2.350  20.073  0.00  0.00    +0.000 A 
ATOM     11  O   UNL     1       5.121   1.452  19.951  0.00  0.00    +0.000 OA
ATOM     12  N   UNL     1       3.387   2.319  21.098  0.00  0.00    +0.000 N 
ATOM     13  C   UNL     1       2.455   3.273  21.384  0.00  0.00    +0.000 A 
ATOM     14  O   UNL     1       1.696   3.179  22.341  0.00  0.00    +0.000 OA
ATOM     15  H   UNL     1       3.443   1.535  21.731  0.00  0.00    +0.000 HD
ENDBRANCH   1   9
BRANCH   4  16
ATOM     16  C   UNL     1       5.865   6.771  16.355  0.00  0.00    +0.000 C 
ATOM     17  F   UNL     1       4.696   7.062  15.724  0.00  0.00    +0.000 F 
ENDBRANCH   4  16
BRANCH   5  18
ATOM     18  O   UNL     1       5.402   4.088  15.750  0.00  0.00    +0.000 OA
ATOM     19  H   UNL     1       4.888   4.500  15.031  0.00  0.00    +0.000 HD
ENDBRANCH   5  18
BRANCH   3  20
ATOM     20  C   UNL     1       7.450   6.126  19.170  0.00  0.00    +0.000 C 
BRANCH  20  21
ATOM     21  O   UNL     1       7.837   5.390  20.329  0.00  0.00    +0.000 OA
ATOM     22  H   UNL     1       7.333   5.733  21.085  0.00  0.00    +0.000 HD
ENDBRANCH  20  21
ENDBRANCH   3  20
TORSDOF 5
ENDMDL
MODEL 7
REMARK VINA RESULT:      -6.6      1.180      1.198
REMARK  Name = 
REMARK  6 active torsions:
REMARK  status: ('A' for Active; 'I' for Inactive)
REMARK    1  A    between atoms: C_1  and  C_2
REMARK    2  A    between atoms: N_4  and  C_5
REMARK    3  A    between atoms: C_7  and  C_8
REMARK    4  A    between atoms: C_8  and  O_9
REMARK    5  A    between atoms: C_10  and  C_11
REMARK    6  A    between atoms: C_13  and  O_14
REMARK                            x       y       z     vdW  Elec       q    Type
REMARK                         _______ _______ _______ _____ _____    ______ ____
ROOT
ATOM      1  C   UNL     1       4.836   4.307  19.680  0.00  0.00    +0.000 C 
ATOM      2  O   UNL     1       4.760   2.866  19.743  0.00  0.00    +0.000 OA
ATOM      3  C   UNL     1       3.377   2.450  19.684  0.00  0.00    +0.000 C 
ATOM      4  C   UNL     1       2.587   3.664  19.208  0.00  0.00    +0.000 C 
ATOM      5  C   UNL     1       3.381   4.808  19.804  0.00  0.00    +0.000 C 
ENDROOT
BRANCH   1   9
ATOM      6  C   UNL     1       5.278   4.449  14.704  0.00  0.00    +0.000 C 
ATOM      7  C   UNL     1       5.742   4.771  16.087  0.00  0.00    +0.000 A 
ATOM      8  C   UNL     1       5.068   4.456  17.201  0.00  0.00    +0.000 A 
ATOM      9  N   UNL     1       5.541   4.743  18.469  0.00  0.00    +0.000 N 
ATOM     10  C   UNL     1       6.782   5.341  18.653  0.00  0.00    +0.000 A 
ATOM     11  O   UNL     1       7.279   5.561  19.755  0.00  0.00    +0.000 OA
ATOM     12  N   UNL     1       7.453   5.688  17.513  0.00  0.00    +0.000 N 
ATOM     13  C   UNL     1       7.047   5.453  16.232  0.00  0.00    +0.000 A 
ATOM     14  O   UNL     1       7.724   5.775  15.263  0.00  0.00    +0.000 OA
ATOM     15  H   UNL     1       8.356   6.124  17.630  0.00  0.00    +0.000 HD
ENDBRANCH   1   9
BRANCH   4  16
ATOM     16  C   UNL     1       1.129   3.623  19.623  0.00  0.00    +0.000 C 
ATOM     17  F   UNL     1       0.740   4.879  19.970  0.00  0.00    +0.000 F 
ENDBRANCH   4  16
BRANCH   5  18
ATOM     18  O   UNL     1       2.995   4.997  21.174  0.00  0.00    +0.000 OA
ATOM     19  H   UNL     1       2.599   4.172  21.511  0.00  0.00    +0.000 HD
ENDBRANCH   5  18
BRANCH   3  20
ATOM     20  C   UNL     1       3.224   1.229  18.767  0.00  0.00    +0.000 C 
BRANCH  20  21
ATOM     21  O   UNL     1       2.731   1.599  17.481  0.00  0.00    +0.000 OA
ATOM     22  H   UNL     1       3.472   1.965  16.969  0.00  0.00    +0.000 HD
ENDBRANCH  20  21
ENDBRANCH   3  20
TORSDOF 5
ENDMDL
MODEL 8
REMARK VINA RESULT:      -6.5      2.997      5.614
REMARK  Name = 
REMARK  6 active torsions:
REMARK  status: ('A' for Active; 'I' for Inactive)
REMARK    1  A    between atoms: C_1  and  C_2
REMARK    2  A    between atoms: N_4  and  C_5
REMARK    3  A    between atoms: C_7  and  C_8
REMARK    4  A    between atoms: C_8  and  O_9
REMARK    5  A    between atoms: C_10  and  C_11
REMARK    6  A    between atoms: C_13  and  O_14
REMARK                            x       y       z     vdW  Elec       q    Type
REMARK                         _______ _______ _______ _____ _____    ______ ____
ROOT
ATOM      1  C   UNL     1       4.180   4.475  18.851  0.00  0.00    +0.000 C 
ATOM      2  O   UNL     1       5.562   4.872  18.993  0.00  0.00    +0.000 OA
ATOM      3  C   UNL     1       6.222   4.798  17.709  0.00  0.00    +0.000 C 
ATOM      4  C   UNL     1       5.115   4.692  16.666  0.00  0.00    +0.000 C 
ATOM      5  C   UNL     1       4.050   3.918  17.416  0.00  0.00    +0.000 C 
ENDROOT
BRANCH   1   9
ATOM      6  C   UNL     1       2.319   9.002  17.843  0.00  0.00    +0.000 C 
ATOM      7  C   UNL     1       2.426   7.767  18.676  0.00  0.00    +0.000 A 
ATOM      8  C   UNL     1       3.178   6.705  18.358  0.00  0.00    +0.000 A 
ATOM      9  N   UNL     1       3.279   5.588  19.168  0.00  0.00    +0.000 N 
ATOM     10  C   UNL     1       2.628   5.532  20.395  0.00  0.00    +0.000 A 
ATOM     11  O   UNL     1       2.732   4.594  21.182  0.00  0.00    +0.000 OA
ATOM     12  N   UNL     1       1.838   6.605  20.702  0.00  0.00    +0.000 N 
ATOM     13  C   UNL     1       1.677   7.732  19.952  0.00  0.00    +0.000 A 
ATOM     14  O   UNL     1       0.966   8.662  20.314  0.00  0.00    +0.000 OA
ATOM     15  H   UNL     1       1.359   6.578  21.591  0.00  0.00    +0.000 HD
ENDBRANCH   1   9
BRANCH   4  16
ATOM     16  C   UNL     1       5.577   4.043  15.376  0.00  0.00    +0.000 C 
ATOM     17  F   UNL     1       5.870   5.022  14.479  0.00  0.00    +0.000 F 
ENDBRANCH   4  16
BRANCH   5  18
ATOM     18  O   UNL     1       4.347   2.515  17.357  0.00  0.00    +0.000 OA
ATOM     19  H   UNL     1       5.311   2.395  17.283  0.00  0.00    +0.000 HD
ENDBRANCH   5  18
BRANCH   3  20
ATOM     20  C   UNL     1       7.133   6.016  17.506  0.00  0.00    +0.000 C 
BRANCH  20  21
ATOM     21  O   UNL     1       6.447   7.078  16.847  0.00  0.00    +0.000 OA
ATOM     22  H   UNL     1       6.371   7.820  17.469  0.00  0.00    +0.000 HD
ENDBRANCH  20  21
ENDBRANCH   3  20
TORSDOF 5
ENDMDL
MODEL 9
REMARK VINA RESULT:      -6.4      2.244      2.952
REMARK  Name = 
REMARK  6 active torsions:
REMARK  status: ('A' for Active; 'I' for Inactive)
REMARK    1  A    between atoms: C_1  and  C_2
REMARK    2  A    between atoms: N_4  and  C_5
REMARK    3  A    between atoms: C_7  and  C_8
REMARK    4  A    between atoms: C_8  and  O_9
REMARK    5  A    between atoms: C_10  and  C_11
REMARK    6  A    between atoms: C_13  and  O_14
REMARK                            x       y       z     vdW  Elec       q    Type
REMARK                         _______ _______ _______ _____ _____    ______ ____
ROOT
ATOM      1  C   UNL     1       3.266   5.366  18.554  0.00  0.00    +0.000 C 
ATOM      2  O   UNL     1       3.312   4.757  19.863  0.00  0.00    +0.000 OA
ATOM      3  C   UNL     1       2.976   3.356  19.760  0.00  0.00    +0.000 C 
ATOM      4  C   UNL     1       3.071   3.004  18.279  0.00  0.00    +0.000 C 
ATOM      5  C   UNL     1       2.650   4.300  17.620  0.00  0.00    +0.000 C 
ENDROOT
BRANCH   1   9
ATOM      6  C   UNL     1       8.220   5.540  19.182  0.00  0.00    +0.000 C 
ATOM      7  C   UNL     1       6.955   5.937  18.493  0.00  0.00    +0.000 A 
ATOM      8  C   UNL     1       5.747   5.439  18.790  0.00  0.00    +0.000 A 
ATOM      9  N   UNL     1       4.590   5.851  18.152  0.00  0.00    +0.000 N 
ATOM     10  C   UNL     1       4.621   6.852  17.189  0.00  0.00    +0.000 A 
ATOM     11  O   UNL     1       3.619   7.300  16.637  0.00  0.00    +0.000 OA
ATOM     12  N   UNL     1       5.859   7.336  16.868  0.00  0.00    +0.000 N 
ATOM     13  C   UNL     1       7.043   6.972  17.439  0.00  0.00    +0.000 A 
ATOM     14  O   UNL     1       8.109   7.475  17.109  0.00  0.00    +0.000 OA
ATOM     15  H   UNL     1       5.897   8.064  16.169  0.00  0.00    +0.000 HD
ENDBRANCH   1   9
BRANCH   4  16
ATOM     16  C   UNL     1       2.230   1.800  17.901  0.00  0.00    +0.000 C 
ATOM     17  F   UNL     1       1.267   1.629  18.846  0.00  0.00    +0.000 F 
ENDBRANCH   4  16
BRANCH   5  18
ATOM     18  O   UNL     1       1.217   4.379  17.589  0.00  0.00    +0.000 OA
ATOM     19  H   UNL     1       0.844   3.501  17.787  0.00  0.00    +0.000 HD
ENDBRANCH   5  18
BRANCH   3  20
ATOM     20  C   UNL     1       3.907   2.516  20.645  0.00  0.00    +0.000 C 
BRANCH  20  21
ATOM     21  O   UNL     1       5.086   2.128  19.942  0.00  0.00    +0.000 OA
ATOM     22  H   UNL     1       4.815   1.685  19.122  0.00  0.00    +0.000 HD
ENDBRANCH  20  21
ENDBRANCH   3  20
TORSDOF 5
ENDMDL
