MODEL 1
REMARK VINA RESULT:      -8.9      0.000      0.000
REMARK  Name = 
REMARK  3 active torsions:
REMARK  status: ('A' for Active; 'I' for Inactive)
REMARK    1  A    between atoms: C_2  and  C_3
REMARK    2  A    between atoms: C_2  and  C_19
REMARK    3  A    between atoms: C_3  and  N_4
REMARK                            x       y       z     vdW  Elec       q    Type
REMARK                         _______ _______ _______ _____ _____    ______ ____
ROOT
ATOM      1  N   UNL     1       5.463   5.811  17.676  0.00  0.00    +0.000 N 
ATOM      2  C   UNL     1       4.335   6.448  17.259  0.00  0.00    +0.000 C 
ATOM      3  O   UNL     1       4.262   7.466  16.592  0.00  0.00    +0.000 OA
ATOM      4  N   UNL     1       3.244   5.755  17.746  0.00  0.00    +0.000 N 
ATOM      5  C   UNL     1       3.644   4.473  18.267  0.00  0.00    +0.000 C 
ATOM      6  C   UNL     1       3.495   3.352  17.210  0.00  0.00    +0.000 C 
ATOM      7  C   UNL     1       2.673   2.212  17.827  0.00  0.00    +0.000 C 
ATOM      8  C   UNL     1       2.281   2.739  19.168  0.00  0.00    +0.000 A 
ATOM      9  C   UNL     1       1.475   2.094  20.094  0.00  0.00    +0.000 A 
ATOM     10  C   UNL     1       1.204   2.736  21.302  0.00  0.00    +0.000 A 
ATOM     11  C   UNL     1       1.740   4.005  21.563  0.00  0.00    +0.000 A 
ATOM     12  C   UNL     1       2.558   4.646  20.626  0.00  0.00    +0.000 A 
ATOM     13  C   UNL     1       2.830   4.000  19.426  0.00  0.00    +0.000 A 
ATOM     14  C   UNL     1       5.140   4.737  18.467  0.00  0.00    +0.000 C 
ATOM     15  O   UNL     1       5.932   4.058  19.107  0.00  0.00    +0.000 OA
ATOM     16  H   UNL     1       2.302   6.007  17.481  0.00  0.00    +0.000 HD
ENDROOT
BRANCH   1  17
ATOM     17  C   UNL     1       6.804   6.157  17.252  0.00  0.00    +0.000 C 
BRANCH  17  19
ATOM     18  O   UNL     1       8.252   4.210  17.116  0.00  0.00    +0.000 OA
ATOM     19  C   UNL     1       7.433   4.938  16.559  0.00  0.00    +0.000 C 
BRANCH  19  20
ATOM     20  C   UNL     1       7.036   4.632  15.145  0.00  0.00    +0.000 A 
ATOM     21  C   UNL     1       5.938   3.780  14.927  0.00  0.00    +0.000 A 
ATOM     22  C   UNL     1       5.531   3.459  13.627  0.00  0.00    +0.000 A 
ATOM     23  C   UNL     1       6.221   3.986  12.543  0.00  0.00    +0.000 A 
ATOM     24  F   UNL     1       5.836   3.685  11.299  0.00  0.00    +0.000 F 
ATOM     25  C   UNL     1       7.310   4.830  12.739  0.00  0.00    +0.000 A 
ATOM     26  C   UNL     1       7.720   5.155  14.039  0.00  0.00    +0.000 A 
ENDBRANCH  19  20
ENDBRANCH  17  19
ENDBRANCH   1  17
TORSDOF 3
ENDMDL
MODEL 2
REMARK VINA RESULT:      -8.8      1.634      1.949
REMARK  Name = 
REMARK  3 active torsions:
REMARK  status: ('A' for Active; 'I' for Inactive)
REMARK    1  A    between atoms: C_2  and  C_3
REMARK    2  A    between atoms: C_2  and  C_19
REMARK    3  A    between atoms: C_3  and  N_4
REMARK                            x       y       z     vdW  Elec       q    Type
REMARK                         _______ _______ _______ _____ _____    ______ ____
ROOT
ATOM      1  N   UNL     1       6.423   4.497  17.965  0.00  0.00    +0.000 N 
ATOM      2  C   UNL     1       6.514   5.391  18.987  0.00  0.00    +0.000 C 
ATOM      3  O   UNL     1       7.485   6.053  19.309  0.00  0.00    +0.000 OA
ATOM      4  N   UNL     1       5.300   5.418  19.644  0.00  0.00    +0.000 N 
ATOM      5  C   UNL     1       4.289   4.734  18.880  0.00  0.00    +0.000 C 
ATOM      6  C   UNL     1       3.480   5.712  17.992  0.00  0.00    +0.000 C 
ATOM      7  C   UNL     1       1.986   5.489  18.265  0.00  0.00    +0.000 C 
ATOM      8  C   UNL     1       1.970   4.479  19.364  0.00  0.00    +0.000 A 
ATOM      9  C   UNL     1       0.842   3.988  20.005  0.00  0.00    +0.000 A 
ATOM     10  C   UNL     1       1.009   3.047  21.020  0.00  0.00    +0.000 A 
ATOM     11  C   UNL     1       2.295   2.615  21.378  0.00  0.00    +0.000 A 
ATOM     12  C   UNL     1       3.427   3.110  20.722  0.00  0.00    +0.000 A 
ATOM     13  C   UNL     1       3.255   4.044  19.707  0.00  0.00    +0.000 A 
ATOM     14  C   UNL     1       5.187   3.898  17.963  0.00  0.00    +0.000 C 
ATOM     15  O   UNL     1       4.854   2.952  17.262  0.00  0.00    +0.000 OA
ATOM     16  H   UNL     1       5.119   6.083  20.385  0.00  0.00    +0.000 HD
ENDROOT
BRANCH   1  17
ATOM     17  C   UNL     1       7.447   4.291  16.963  0.00  0.00    +0.000 C 
BRANCH  17  19
ATOM     18  O   UNL     1       7.344   6.454  15.859  0.00  0.00    +0.000 OA
ATOM     19  C   UNL     1       7.181   5.238  15.782  0.00  0.00    +0.000 C 
BRANCH  19  20
ATOM     20  C   UNL     1       6.696   4.653  14.488  0.00  0.00    +0.000 A 
ATOM     21  C   UNL     1       5.389   4.136  14.435  0.00  0.00    +0.000 A 
ATOM     22  C   UNL     1       4.891   3.574  13.253  0.00  0.00    +0.000 A 
ATOM     23  C   UNL     1       5.699   3.525  12.124  0.00  0.00    +0.000 A 
ATOM     24  F   UNL     1       5.229   2.991  10.992  0.00  0.00    +0.000 F 
ATOM     25  C   UNL     1       6.996   4.030  12.158  0.00  0.00    +0.000 A 
ATOM     26  C   UNL     1       7.497   4.594  13.338  0.00  0.00    +0.000 A 
ENDBRANCH  19  20
ENDBRANCH  17  19
ENDBRANCH   1  17
TORSDOF 3
ENDMDL
MODEL 3
REMARK VINA RESULT:      -8.6      1.628      2.247
REMARK  Name = 
REMARK  3 active torsions:
REMARK  status: ('A' for Active; 'I' for Inactive)
REMARK    1  A    between atoms: C_2  and  C_3
REMARK    2  A    between atoms: C_2  and  C_19
REMARK    3  A    between atoms: C_3  and  N_4
REMARK                            x       y       z     vdW  Elec       q    Type
REMARK                         _______ _______ _______ _____ _____    ______ ____
ROOT
ATOM      1  N   UNL     1       6.302   4.554  17.807  0.00  0.00    +0.000 N 
ATOM      2  C   UNL     1       6.487   5.370  18.880  0.00  0.00    +0.000 C 
ATOM      3  O   UNL     1       7.493   5.991  19.175  0.00  0.00    +0.000 OA
ATOM      4  N   UNL     1       5.326   5.368  19.629  0.00  0.00    +0.000 N 
ATOM      5  C   UNL     1       4.246   4.757  18.896  0.00  0.00    +0.000 C 
ATOM      6  C   UNL     1       3.394   5.810  18.145  0.00  0.00    +0.000 C 
ATOM      7  C   UNL     1       1.921   5.591  18.513  0.00  0.00    +0.000 C 
ATOM      8  C   UNL     1       1.966   4.504  19.535  0.00  0.00    +0.000 A 
ATOM      9  C   UNL     1       0.878   3.984  20.223  0.00  0.00    +0.000 A 
ATOM     10  C   UNL     1       1.101   2.969  21.152  0.00  0.00    +0.000 A 
ATOM     11  C   UNL     1       2.400   2.492  21.379  0.00  0.00    +0.000 A 
ATOM     12  C   UNL     1       3.491   3.017  20.677  0.00  0.00    +0.000 A 
ATOM     13  C   UNL     1       3.263   4.025  19.747  0.00  0.00    +0.000 A 
ATOM     14  C   UNL     1       5.057   3.977  17.856  0.00  0.00    +0.000 C 
ATOM     15  O   UNL     1       4.653   3.090  17.116  0.00  0.00    +0.000 OA
ATOM     16  H   UNL     1       5.215   5.979  20.426  0.00  0.00    +0.000 HD
ENDROOT
BRANCH   1  17
ATOM     17  C   UNL     1       7.243   4.407  16.718  0.00  0.00    +0.000 C 
BRANCH  17  19
ATOM     18  O   UNL     1       6.669   6.459  15.549  0.00  0.00    +0.000 OA
ATOM     19  C   UNL     1       6.748   5.233  15.520  0.00  0.00    +0.000 C 
BRANCH  19  20
ATOM     20  C   UNL     1       6.339   4.510  14.270  0.00  0.00    +0.000 A 
ATOM     21  C   UNL     1       7.301   4.323  13.260  0.00  0.00    +0.000 A 
ATOM     22  C   UNL     1       6.968   3.660  12.073  0.00  0.00    +0.000 A 
ATOM     23  C   UNL     1       5.675   3.186  11.891  0.00  0.00    +0.000 A 
ATOM     24  F   UNL     1       5.351   2.551  10.760  0.00  0.00    +0.000 F 
ATOM     25  C   UNL     1       4.710   3.364  12.879  0.00  0.00    +0.000 A 
ATOM     26  C   UNL     1       5.039   4.026  14.069  0.00  0.00    +0.000 A 
ENDBRANCH  19  20
ENDBRANCH  17  19
ENDBRANCH   1  17
TORSDOF 3
ENDMDL
MODEL 4
REMARK VINA RESULT:      -7.8      1.458      2.172
REMARK  Name = 
REMARK  3 active torsions:
REMARK  status: ('A' for Active; 'I' for Inactive)
REMARK    1  A    between atoms: C_2  and  C_3
REMARK    2  A    between atoms: C_2  and  C_19
REMARK    3  A    between atoms: C_3  and  N_4
REMARK                            x       y       z     vdW  Elec       q    Type
REMARK                         _______ _______ _______ _____ _____    ______ ____
ROOT
ATOM      1  N   UNL     1       5.623   5.649  17.440  0.00  0.00    +0.000 N 
ATOM      2  C   UNL     1       6.280   5.819  18.619  0.00  0.00    +0.000 C 
ATOM      3  O   UNL     1       7.421   6.217  18.781  0.00  0.00    +0.000 OA
ATOM      4  N   UNL     1       5.436   5.436  19.643  0.00  0.00    +0.000 N 
ATOM      5  C   UNL     1       4.090   5.267  19.159  0.00  0.00    +0.000 C 
ATOM      6  C   UNL     1       3.243   6.548  19.356  0.00  0.00    +0.000 C 
ATOM      7  C   UNL     1       1.949   6.164  20.086  0.00  0.00    +0.000 C 
ATOM      8  C   UNL     1       2.123   4.712  20.384  0.00  0.00    +0.000 A 
ATOM      9  C   UNL     1       1.237   3.911  21.090  0.00  0.00    +0.000 A 
ATOM     10  C   UNL     1       1.561   2.569  21.282  0.00  0.00    +0.000 A 
ATOM     11  C   UNL     1       2.759   2.050  20.769  0.00  0.00    +0.000 A 
ATOM     12  C   UNL     1       3.645   2.863  20.053  0.00  0.00    +0.000 A 
ATOM     13  C   UNL     1       3.315   4.200  19.859  0.00  0.00    +0.000 A 
ATOM     14  C   UNL     1       4.376   5.117  17.661  0.00  0.00    +0.000 C 
ATOM     15  O   UNL     1       3.608   4.716  16.797  0.00  0.00    +0.000 OA
ATOM     16  H   UNL     1       5.694   5.565  20.611  0.00  0.00    +0.000 HD
ENDROOT
BRANCH   1  17
ATOM     17  C   UNL     1       6.127   6.073  16.151  0.00  0.00    +0.000 C 
BRANCH  17  19
ATOM     18  O   UNL     1       7.939   4.456  16.053  0.00  0.00    +0.000 OA
ATOM     19  C   UNL     1       6.928   4.917  15.529  0.00  0.00    +0.000 C 
BRANCH  19  20
ATOM     20  C   UNL     1       6.458   4.339  14.227  0.00  0.00    +0.000 A 
ATOM     21  C   UNL     1       5.115   3.931  14.121  0.00  0.00    +0.000 A 
ATOM     22  C   UNL     1       4.629   3.380  12.930  0.00  0.00    +0.000 A 
ATOM     23  C   UNL     1       5.482   3.232  11.844  0.00  0.00    +0.000 A 
ATOM     24  F   UNL     1       5.024   2.708  10.703  0.00  0.00    +0.000 F 
ATOM     25  C   UNL     1       6.814   3.629  11.930  0.00  0.00    +0.000 A 
ATOM     26  C   UNL     1       7.304   4.182  13.120  0.00  0.00    +0.000 A 
ENDBRANCH  19  20
ENDBRANCH  17  19
ENDBRANCH   1  17
TORSDOF 3
ENDMDL
MODEL 5
REMARK VINA RESULT:      -7.6      3.743      6.225
REMARK  Name = 
REMARK  3 active torsions:
REMARK  status: ('A' for Active; 'I' for Inactive)
REMARK    1  A    between atoms: C_2  and  C_3
REMARK    2  A    between atoms: C_2  and  C_19
REMARK    3  A    between atoms: C_3  and  N_4
REMARK                            x       y       z     vdW  Elec       q    Type
REMARK                         _______ _______ _______ _____ _____    ______ ____
ROOT
ATOM      1  N   UNL     1       3.633   4.869  17.942  0.00  0.00    +0.000 N 
ATOM      2  C   UNL     1       4.625   5.407  18.703  0.00  0.00    +0.000 C 
ATOM      3  O   UNL     1       5.745   4.962  18.883  0.00  0.00    +0.000 OA
ATOM      4  N   UNL     1       4.144   6.565  19.282  0.00  0.00    +0.000 N 
ATOM      5  C   UNL     1       2.896   6.958  18.679  0.00  0.00    +0.000 C 
ATOM      6  C   UNL     1       3.108   7.984  17.539  0.00  0.00    +0.000 C 
ATOM      7  C   UNL     1       2.197   9.191  17.799  0.00  0.00    +0.000 C 
ATOM      8  C   UNL     1       1.570   8.887  19.120  0.00  0.00    +0.000 A 
ATOM      9  C   UNL     1       0.700   9.711  19.819  0.00  0.00    +0.000 A 
ATOM     10  C   UNL     1       0.209   9.272  21.047  0.00  0.00    +0.000 A 
ATOM     11  C   UNL     1       0.593   8.022  21.555  0.00  0.00    +0.000 A 
ATOM     12  C   UNL     1       1.466   7.194  20.840  0.00  0.00    +0.000 A 
ATOM     13  C   UNL     1       1.948   7.634  19.614  0.00  0.00    +0.000 A 
ATOM     14  C   UNL     1       2.491   5.624  18.044  0.00  0.00    +0.000 C 
ATOM     15  O   UNL     1       1.393   5.321  17.597  0.00  0.00    +0.000 OA
ATOM     16  H   UNL     1       4.748   7.172  19.820  0.00  0.00    +0.000 HD
ENDROOT
BRANCH   1  17
ATOM     17  C   UNL     1       3.798   3.727  17.068  0.00  0.00    +0.000 C 
BRANCH  17  19
ATOM     18  O   UNL     1       4.146   1.374  17.564  0.00  0.00    +0.000 OA
ATOM     19  C   UNL     1       3.637   2.442  17.896  0.00  0.00    +0.000 C 
BRANCH  19  20
ATOM     20  C   UNL     1       2.820   2.497  19.153  0.00  0.00    +0.000 A 
ATOM     21  C   UNL     1       3.493   2.530  20.388  0.00  0.00    +0.000 A 
ATOM     22  C   UNL     1       2.777   2.576  21.590  0.00  0.00    +0.000 A 
ATOM     23  C   UNL     1       1.388   2.586  21.560  0.00  0.00    +0.000 A 
ATOM     24  F   UNL     1       0.698   2.631  22.705  0.00  0.00    +0.000 F 
ATOM     25  C   UNL     1       0.705   2.552  20.348  0.00  0.00    +0.000 A 
ATOM     26  C   UNL     1       1.418   2.507  19.143  0.00  0.00    +0.000 A 
ENDBRANCH  19  20
ENDBRANCH  17  19
ENDBRANCH   1  17
TORSDOF 3
ENDMDL
MODEL 6
REMARK VINA RESULT:      -7.5      2.508      3.795
REMARK  Name = 
REMARK  3 active torsions:
REMARK  status: ('A' for Active; 'I' for Inactive)
REMARK    1  A    between atoms: C_2  and  C_3
REMARK    2  A    between atoms: C_2  and  C_19
REMARK    3  A    between atoms: C_3  and  N_4
REMARK                            x       y       z     vdW  Elec       q    Type
REMARK                         _______ _______ _______ _____ _____    ______ ____
ROOT
ATOM      1  N   UNL     1       3.914   4.487  18.295  0.00  0.00    +0.000 N 
ATOM      2  C   UNL     1       2.724   4.256  17.677  0.00  0.00    +0.000 C 
ATOM      3  O   UNL     1       2.423   3.302  16.981  0.00  0.00    +0.000 OA
ATOM      4  N   UNL     1       1.884   5.319  17.947  0.00  0.00    +0.000 N 
ATOM      5  C   UNL     1       2.428   6.146  18.994  0.00  0.00    +0.000 C 
ATOM      6  C   UNL     1       1.871   5.753  20.384  0.00  0.00    +0.000 C 
ATOM      7  C   UNL     1       1.322   7.017  21.060  0.00  0.00    +0.000 C 
ATOM      8  C   UNL     1       1.474   8.075  20.017  0.00  0.00    +0.000 A 
ATOM      9  C   UNL     1       1.065   9.396  20.128  0.00  0.00    +0.000 A 
ATOM     10  C   UNL     1       1.281  10.253  19.051  0.00  0.00    +0.000 A 
ATOM     11  C   UNL     1       1.899   9.779  17.884  0.00  0.00    +0.000 A 
ATOM     12  C   UNL     1       2.314   8.447  17.782  0.00  0.00    +0.000 A 
ATOM     13  C   UNL     1       2.102   7.597  18.861  0.00  0.00    +0.000 A 
ATOM     14  C   UNL     1       3.893   5.704  18.930  0.00  0.00    +0.000 C 
ATOM     15  O   UNL     1       4.856   6.255  19.448  0.00  0.00    +0.000 OA
ATOM     16  H   UNL     1       0.916   5.310  17.657  0.00  0.00    +0.000 HD
ENDROOT
BRANCH   1  17
ATOM     17  C   UNL     1       5.002   3.535  18.361  0.00  0.00    +0.000 C 
BRANCH  17  19
ATOM     18  O   UNL     1       7.155   4.652  18.502  0.00  0.00    +0.000 OA
ATOM     19  C   UNL     1       6.269   4.189  17.788  0.00  0.00    +0.000 C 
BRANCH  19  20
ATOM     20  C   UNL     1       6.422   4.272  16.298  0.00  0.00    +0.000 A 
ATOM     21  C   UNL     1       5.625   3.435  15.495  0.00  0.00    +0.000 A 
ATOM     22  C   UNL     1       5.734   3.470  14.100  0.00  0.00    +0.000 A 
ATOM     23  C   UNL     1       6.640   4.338  13.505  0.00  0.00    +0.000 A 
ATOM     24  F   UNL     1       6.747   4.377  12.173  0.00  0.00    +0.000 F 
ATOM     25  C   UNL     1       7.437   5.173  14.282  0.00  0.00    +0.000 A 
ATOM     26  C   UNL     1       7.330   5.142  15.679  0.00  0.00    +0.000 A 
ENDBRANCH  19  20
ENDBRANCH  17  19
ENDBRANCH   1  17
TORSDOF 3
ENDMDL
MODEL 7
REMARK VINA RESULT:      -7.5      2.455      3.808
REMARK  Name = 
REMARK  3 active torsions:
REMARK  status: ('A' for Active; 'I' for Inactive)
REMARK    1  A    between atoms: C_2  and  C_3
REMARK    2  A    between atoms: C_2  and  C_19
REMARK    3  A    between atoms: C_3  and  N_4
REMARK                            x       y       z     vdW  Elec       q    Type
REMARK                         _______ _______ _______ _____ _____    ______ ____
ROOT
ATOM      1  N   UNL     1       4.043   4.524  18.111  0.00  0.00    +0.000 N 
ATOM      2  C   UNL     1       2.837   4.254  17.543  0.00  0.00    +0.000 C 
ATOM      3  O   UNL     1       2.544   3.299  16.844  0.00  0.00    +0.000 OA
ATOM      4  N   UNL     1       1.967   5.276  17.867  0.00  0.00    +0.000 N 
ATOM      5  C   UNL     1       2.522   6.110  18.903  0.00  0.00    +0.000 C 
ATOM      6  C   UNL     1       2.045   5.672  20.310  0.00  0.00    +0.000 C 
ATOM      7  C   UNL     1       1.476   6.902  21.030  0.00  0.00    +0.000 C 
ATOM      8  C   UNL     1       1.537   7.981  20.000  0.00  0.00    +0.000 A 
ATOM      9  C   UNL     1       1.080   9.282  20.152  0.00  0.00    +0.000 A 
ATOM     10  C   UNL     1       1.213  10.163  19.081  0.00  0.00    +0.000 A 
ATOM     11  C   UNL     1       1.796   9.734  17.880  0.00  0.00    +0.000 A 
ATOM     12  C   UNL     1       2.261   8.422  17.737  0.00  0.00    +0.000 A 
ATOM     13  C   UNL     1       2.132   7.547  18.810  0.00  0.00    +0.000 A 
ATOM     14  C   UNL     1       4.001   5.730  18.767  0.00  0.00    +0.000 C 
ATOM     15  O   UNL     1       4.962   6.312  19.251  0.00  0.00    +0.000 OA
ATOM     16  H   UNL     1       0.988   5.231  17.619  0.00  0.00    +0.000 HD
ENDROOT
BRANCH   1  17
ATOM     17  C   UNL     1       5.170   3.617  18.113  0.00  0.00    +0.000 C 
BRANCH  17  19
ATOM     18  O   UNL     1       7.243   4.885  18.068  0.00  0.00    +0.000 OA
ATOM     19  C   UNL     1       6.363   4.308  17.433  0.00  0.00    +0.000 C 
BRANCH  19  20
ATOM     20  C   UNL     1       6.448   4.282  15.935  0.00  0.00    +0.000 A 
ATOM     21  C   UNL     1       7.419   5.083  15.306  0.00  0.00    +0.000 A 
ATOM     22  C   UNL     1       7.536   5.098  13.911  0.00  0.00    +0.000 A 
ATOM     23  C   UNL     1       6.682   4.317  13.143  0.00  0.00    +0.000 A 
ATOM     24  F   UNL     1       6.789   4.326  11.810  0.00  0.00    +0.000 F 
ATOM     25  C   UNL     1       5.714   3.520  13.748  0.00  0.00    +0.000 A 
ATOM     26  C   UNL     1       5.595   3.501  15.143  0.00  0.00    +0.000 A 
ENDBRANCH  19  20
ENDBRANCH  17  19
ENDBRANCH   1  17
TORSDOF 3
ENDMDL
MODEL 8
REMARK VINA RESULT:      -7.5      3.123      4.358
REMARK  Name = 
REMARK  3 active torsions:
REMARK  status: ('A' for Active; 'I' for Inactive)
REMARK    1  A    between atoms: C_2  and  C_3
REMARK    2  A    between atoms: C_2  and  C_19
REMARK    3  A    between atoms: C_3  and  N_4
REMARK                            x       y       z     vdW  Elec       q    Type
REMARK                         _______ _______ _______ _____ _____    ______ ____
ROOT
ATOM      1  N   UNL     1       5.749   5.700  17.602  0.00  0.00    +0.000 N 
ATOM      2  C   UNL     1       4.672   6.397  17.148  0.00  0.00    +0.000 C 
ATOM      3  O   UNL     1       4.677   7.418  16.483  0.00  0.00    +0.000 OA
ATOM      4  N   UNL     1       3.529   5.761  17.591  0.00  0.00    +0.000 N 
ATOM      5  C   UNL     1       3.841   4.459  18.121  0.00  0.00    +0.000 C 
ATOM      6  C   UNL     1       3.672   3.349  17.054  0.00  0.00    +0.000 C 
ATOM      7  C   UNL     1       2.769   2.253  17.636  0.00  0.00    +0.000 C 
ATOM      8  C   UNL     1       2.357   2.796  18.964  0.00  0.00    +0.000 A 
ATOM      9  C   UNL     1       1.484   2.193  19.858  0.00  0.00    +0.000 A 
ATOM     10  C   UNL     1       1.204   2.845  21.057  0.00  0.00    +0.000 A 
ATOM     11  C   UNL     1       1.796   4.084  21.343  0.00  0.00    +0.000 A 
ATOM     12  C   UNL     1       2.680   4.683  20.439  0.00  0.00    +0.000 A 
ATOM     13  C   UNL     1       2.962   4.026  19.247  0.00  0.00    +0.000 A 
ATOM     14  C   UNL     1       5.341   4.642  18.377  0.00  0.00    +0.000 C 
ATOM     15  O   UNL     1       6.072   3.921  19.042  0.00  0.00    +0.000 OA
ATOM     16  H   UNL     1       2.611   6.063  17.293  0.00  0.00    +0.000 HD
ENDROOT
BRANCH   1  17
ATOM     17  C   UNL     1       7.120   5.975  17.229  0.00  0.00    +0.000 C 
BRANCH  17  19
ATOM     18  O   UNL     1       8.152   6.034  19.429  0.00  0.00    +0.000 OA
ATOM     19  C   UNL     1       7.830   6.649  18.415  0.00  0.00    +0.000 C 
BRANCH  19  20
ATOM     20  C   UNL     1       8.134   8.116  18.329  0.00  0.00    +0.000 A 
ATOM     21  C   UNL     1       9.033   8.668  19.259  0.00  0.00    +0.000 A 
ATOM     22  C   UNL     1       9.346  10.033  19.226  0.00  0.00    +0.000 A 
ATOM     23  C   UNL     1       8.758  10.847  18.266  0.00  0.00    +0.000 A 
ATOM     24  F   UNL     1       9.053  12.150  18.228  0.00  0.00    +0.000 F 
ATOM     25  C   UNL     1       7.865  10.318  17.339  0.00  0.00    +0.000 A 
ATOM     26  C   UNL     1       7.551   8.953  17.368  0.00  0.00    +0.000 A 
ENDBRANCH  19  20
ENDBRANCH  17  19
ENDBRANCH   1  17
TORSDOF 3
ENDMDL
MODEL 9
REMARK VINA RESULT:      -7.5      3.768      5.298
REMARK  Name = 
REMARK  3 active torsions:
REMARK  status: ('A' for Active; 'I' for Inactive)
REMARK    1  A    between atoms: C_2  and  C_3
REMARK    2  A    between atoms: C_2  and  C_19
REMARK    3  A    between atoms: C_3  and  N_4
REMARK                            x       y       z     vdW  Elec       q    Type
REMARK                         _______ _______ _______ _____ _____    ______ ____
ROOT
ATOM      1  N   UNL     1       6.774   5.513  18.230  0.00  0.00    +0.000 N 
ATOM      2  C   UNL     1       6.903   4.563  17.266  0.00  0.00    +0.000 C 
ATOM      3  O   UNL     1       7.805   4.448  16.453  0.00  0.00    +0.000 OA
ATOM      4  N   UNL     1       5.804   3.729  17.332  0.00  0.00    +0.000 N 
ATOM      5  C   UNL     1       5.060   3.959  18.544  0.00  0.00    +0.000 C 
ATOM      6  C   UNL     1       5.481   2.985  19.671  0.00  0.00    +0.000 C 
ATOM      7  C   UNL     1       4.218   2.311  20.224  0.00  0.00    +0.000 C 
ATOM      8  C   UNL     1       3.126   2.824  19.345  0.00  0.00    +0.000 A 
ATOM      9  C   UNL     1       1.789   2.459  19.408  0.00  0.00    +0.000 A 
ATOM     10  C   UNL     1       0.898   3.035  18.503  0.00  0.00    +0.000 A 
ATOM     11  C   UNL     1       1.355   3.960  17.553  0.00  0.00    +0.000 A 
ATOM     12  C   UNL     1       2.705   4.327  17.501  0.00  0.00    +0.000 A 
ATOM     13  C   UNL     1       3.588   3.755  18.409  0.00  0.00    +0.000 A 
ATOM     14  C   UNL     1       5.588   5.352  18.903  0.00  0.00    +0.000 C 
ATOM     15  O   UNL     1       5.121   6.132  19.722  0.00  0.00    +0.000 OA
ATOM     16  H   UNL     1       5.741   2.898  16.760  0.00  0.00    +0.000 HD
ENDROOT
BRANCH   1  17
ATOM     17  C   UNL     1       7.794   6.485  18.566  0.00  0.00    +0.000 C 
BRANCH  17  19
ATOM     18  O   UNL     1       6.889   7.751  16.699  0.00  0.00    +0.000 OA
ATOM     19  C   UNL     1       7.569   7.750  17.723  0.00  0.00    +0.000 C 
BRANCH  19  20
ATOM     20  C   UNL     1       8.212   9.031  18.166  0.00  0.00    +0.000 A 
ATOM     21  C   UNL     1       7.994  10.190  17.399  0.00  0.00    +0.000 A 
ATOM     22  C   UNL     1       8.576  11.409  17.768  0.00  0.00    +0.000 A 
ATOM     23  C   UNL     1       9.379  11.471  18.899  0.00  0.00    +0.000 A 
ATOM     24  F   UNL     1       9.937  12.632  19.257  0.00  0.00    +0.000 F 
ATOM     25  C   UNL     1       9.607  10.334  19.669  0.00  0.00    +0.000 A 
ATOM     26  C   UNL     1       9.026   9.113  19.305  0.00  0.00    +0.000 A 
ENDBRANCH  19  20
ENDBRANCH  17  19
ENDBRANCH   1  17
TORSDOF 3
ENDMDL
