MODEL 1
REMARK VINA RESULT:      -7.5      0.000      0.000
REMARK  Name = 
REMARK  5 active torsions:
REMARK  status: ('A' for Active; 'I' for Inactive)
REMARK    1  A    between atoms: C_7  and  C_8
REMARK    2  A    between atoms: C_8  and  N_9
REMARK    3  A    between atoms: N_9  and  C_10
REMARK    4  A    between atoms: C_10  and  C_11
REMARK    5  A    between atoms: C_11  and  C_12
REMARK                            x       y       z     vdW  Elec       q    Type
REMARK                         _______ _______ _______ _____ _____    ______ ____
ROOT
ATOM      1  C   UNL     1       4.530   3.379  17.329  0.00  0.00    +0.000 C 
ENDROOT
BRANCH   1   2
ATOM      2  N   UNL     1       5.396   3.486  18.511  0.00  0.00    +0.000 NA
ATOM      3  H   UNL     1       5.438   2.578  18.973  0.00  0.00    +0.000 HD
BRANCH   2   4
ATOM      4  C   UNL     1       4.898   4.467  19.481  0.00  0.00    +0.000 C 
BRANCH   4  11
ATOM      5 BR   UNL     1       2.468   6.676  19.153  0.00  0.00    +0.000 Br
ATOM      6  C   UNL     1       2.408   4.942  19.927  0.00  0.00    +0.000 A 
ATOM      7  C   UNL     1       1.180   4.533  20.463  0.00  0.00    +0.000 A 
ATOM      8  C   UNL     1       1.051   3.282  21.062  0.00  0.00    +0.000 A 
ATOM      9  C   UNL     1       2.147   2.430  21.131  0.00  0.00    +0.000 A 
ATOM     10  C   UNL     1       3.370   2.833  20.599  0.00  0.00    +0.000 A 
ATOM     11  C   UNL     1       3.522   4.092  19.981  0.00  0.00    +0.000 A 
ENDBRANCH   4  11
ENDBRANCH   2   4
ENDBRANCH   1   2
BRANCH   1  12
ATOM     12  C   UNL     1       4.471   4.671  16.504  0.00  0.00    +0.000 C 
BRANCH  12  13
ATOM     13  C   UNL     1       5.691   4.885  15.671  0.00  0.00    +0.000 A 
ATOM     14  C   UNL     1       6.802   5.627  16.017  0.00  0.00    +0.000 A 
ATOM     15  N   UNL     1       7.671   5.611  14.960  0.00  0.00    +0.000 N 
ATOM     16  C   UNL     1       7.152   4.872  13.924  0.00  0.00    +0.000 A 
ATOM     17  C   UNL     1       7.677   4.599  12.656  0.00  0.00    +0.000 A 
ATOM     18  C   UNL     1       6.912   3.810  11.793  0.00  0.00    +0.000 A 
ATOM     19  C   UNL     1       5.672   3.312  12.183  0.00  0.00    +0.000 A 
ATOM     20  C   UNL     1       5.160   3.597  13.455  0.00  0.00    +0.000 A 
ATOM     21  C   UNL     1       5.913   4.393  14.344  0.00  0.00    +0.000 A 
ATOM     22  H   UNL     1       8.562   6.086  14.934  0.00  0.00    +0.000 HD
ENDBRANCH  12  13
ENDBRANCH   1  12
TORSDOF 5
ENDMDL
MODEL 2
REMARK VINA RESULT:      -7.3      2.945      6.328
REMARK  Name = 
REMARK  5 active torsions:
REMARK  status: ('A' for Active; 'I' for Inactive)
REMARK    1  A    between atoms: C_7  and  C_8
REMARK    2  A    between atoms: C_8  and  N_9
REMARK    3  A    between atoms: N_9  and  C_10
REMARK    4  A    between atoms: C_10  and  C_11
REMARK    5  A    between atoms: C_11  and  C_12
REMARK                            x       y       z     vdW  Elec       q    Type
REMARK                         _______ _______ _______ _____ _____    ______ ____
ROOT
ATOM      1  C   UNL     1       3.124   1.676  18.333  0.00  0.00    +0.000 C 
ENDROOT
BRANCH   1   2
ATOM      2  N   UNL     1       4.296   2.551  18.459  0.00  0.00    +0.000 NA
ATOM      3  H   UNL     1       4.100   3.268  19.157  0.00  0.00    +0.000 HD
BRANCH   2   4
ATOM      4  C   UNL     1       4.631   3.223  17.199  0.00  0.00    +0.000 C 
BRANCH   4  11
ATOM      5 BR   UNL     1       6.095   4.576  14.567  0.00  0.00    +0.000 Br
ATOM      6  C   UNL     1       6.302   5.013  16.405  0.00  0.00    +0.000 A 
ATOM      7  C   UNL     1       7.217   6.028  16.712  0.00  0.00    +0.000 A 
ATOM      8  C   UNL     1       7.441   6.402  18.035  0.00  0.00    +0.000 A 
ATOM      9  C   UNL     1       6.754   5.765  19.062  0.00  0.00    +0.000 A 
ATOM     10  C   UNL     1       5.843   4.755  18.761  0.00  0.00    +0.000 A 
ATOM     11  C   UNL     1       5.595   4.365  17.428  0.00  0.00    +0.000 A 
ENDBRANCH   4  11
ENDBRANCH   2   4
ENDBRANCH   1   2
BRANCH   1  12
ATOM     12  C   UNL     1       1.800   2.390  18.635  0.00  0.00    +0.000 C 
BRANCH  12  13
ATOM     13  C   UNL     1       1.968   3.570  19.534  0.00  0.00    +0.000 A 
ATOM     14  C   UNL     1       1.996   3.554  20.914  0.00  0.00    +0.000 A 
ATOM     15  N   UNL     1       2.119   4.844  21.353  0.00  0.00    +0.000 N 
ATOM     16  C   UNL     1       2.172   5.710  20.286  0.00  0.00    +0.000 A 
ATOM     17  C   UNL     1       2.277   7.105  20.258  0.00  0.00    +0.000 A 
ATOM     18  C   UNL     1       2.303   7.729  19.008  0.00  0.00    +0.000 A 
ATOM     19  C   UNL     1       2.228   6.986  17.833  0.00  0.00    +0.000 A 
ATOM     20  C   UNL     1       2.121   5.591  17.879  0.00  0.00    +0.000 A 
ATOM     21  C   UNL     1       2.091   4.938  19.129  0.00  0.00    +0.000 A 
ATOM     22  H   UNL     1       2.151   5.128  22.322  0.00  0.00    +0.000 HD
ENDBRANCH  12  13
ENDBRANCH   1  12
TORSDOF 5
ENDMDL
MODEL 3
REMARK VINA RESULT:      -7.1      2.737      4.706
REMARK  Name = 
REMARK  5 active torsions:
REMARK  status: ('A' for Active; 'I' for Inactive)
REMARK    1  A    between atoms: C_7  and  C_8
REMARK    2  A    between atoms: C_8  and  N_9
REMARK    3  A    between atoms: N_9  and  C_10
REMARK    4  A    between atoms: C_10  and  C_11
REMARK    5  A    between atoms: C_11  and  C_12
REMARK                            x       y       z     vdW  Elec       q    Type
REMARK                         _______ _______ _______ _____ _____    ______ ____
ROOT
ATOM      1  C   UNL     1       2.759   3.789  20.349  0.00  0.00    +0.000 C 
ENDROOT
BRANCH   1   2
ATOM      2  N   UNL     1       3.008   5.186  20.726  0.00  0.00    +0.000 NA
ATOM      3  H   UNL     1       3.396   5.211  21.668  0.00  0.00    +0.000 HD
BRANCH   2   4
ATOM      4  C   UNL     1       1.783   5.995  20.718  0.00  0.00    +0.000 C 
BRANCH   4  11
ATOM      5 BR   UNL     1       0.255   8.801  21.543  0.00  0.00    +0.000 Br
ATOM      6  C   UNL     1       1.301   8.420  20.003  0.00  0.00    +0.000 A 
ATOM      7  C   UNL     1       1.433   9.448  19.061  0.00  0.00    +0.000 A 
ATOM      8  C   UNL     1       2.171   9.249  17.896  0.00  0.00    +0.000 A 
ATOM      9  C   UNL     1       2.781   8.022  17.663  0.00  0.00    +0.000 A 
ATOM     10  C   UNL     1       2.652   6.997  18.598  0.00  0.00    +0.000 A 
ATOM     11  C   UNL     1       1.916   7.179  19.788  0.00  0.00    +0.000 A 
ENDBRANCH   4  11
ENDBRANCH   2   4
ENDBRANCH   1   2
BRANCH   1  12
ATOM     12  C   UNL     1       3.980   3.105  19.720  0.00  0.00    +0.000 C 
BRANCH  12  13
ATOM     13  C   UNL     1       4.417   3.753  18.448  0.00  0.00    +0.000 A 
ATOM     14  C   UNL     1       3.892   3.531  17.190  0.00  0.00    +0.000 A 
ATOM     15  N   UNL     1       4.603   4.282  16.294  0.00  0.00    +0.000 N 
ATOM     16  C   UNL     1       5.587   4.994  16.939  0.00  0.00    +0.000 A 
ATOM     17  C   UNL     1       6.552   5.869  16.428  0.00  0.00    +0.000 A 
ATOM     18  C   UNL     1       7.442   6.454  17.333  0.00  0.00    +0.000 A 
ATOM     19  C   UNL     1       7.368   6.175  18.695  0.00  0.00    +0.000 A 
ATOM     20  C   UNL     1       6.398   5.295  19.189  0.00  0.00    +0.000 A 
ATOM     21  C   UNL     1       5.489   4.690  18.295  0.00  0.00    +0.000 A 
ATOM     22  H   UNL     1       4.442   4.303  15.297  0.00  0.00    +0.000 HD
ENDBRANCH  12  13
ENDBRANCH   1  12
TORSDOF 5
ENDMDL
MODEL 4
REMARK VINA RESULT:      -7.1      5.658      8.461
REMARK  Name = 
REMARK  5 active torsions:
REMARK  status: ('A' for Active; 'I' for Inactive)
REMARK    1  A    between atoms: C_7  and  C_8
REMARK    2  A    between atoms: C_8  and  N_9
REMARK    3  A    between atoms: N_9  and  C_10
REMARK    4  A    between atoms: C_10  and  C_11
REMARK    5  A    between atoms: C_11  and  C_12
REMARK                            x       y       z     vdW  Elec       q    Type
REMARK                         _______ _______ _______ _____ _____    ______ ____
ROOT
ATOM      1  C   UNL     1       8.338   8.152  18.372  0.00  0.00    +0.000 C 
ENDROOT
BRANCH   1   2
ATOM      2  N   UNL     1       8.557   9.600  18.253  0.00  0.00    +0.000 NA
ATOM      3  H   UNL     1       9.120   9.781  17.422  0.00  0.00    +0.000 HD
BRANCH   2   4
ATOM      4  C   UNL     1       9.264  10.156  19.412  0.00  0.00    +0.000 C 
BRANCH   4  11
ATOM      5 BR   UNL     1       9.476  12.541  21.684  0.00  0.00    +0.000 Br
ATOM      6  C   UNL     1      10.143  12.524  19.904  0.00  0.00    +0.000 A 
ATOM      7  C   UNL     1      10.794  13.684  19.465  0.00  0.00    +0.000 A 
ATOM      8  C   UNL     1      11.301  13.763  18.170  0.00  0.00    +0.000 A 
ATOM      9  C   UNL     1      11.161  12.685  17.303  0.00  0.00    +0.000 A 
ATOM     10  C   UNL     1      10.514  11.530  17.737  0.00  0.00    +0.000 A 
ATOM     11  C   UNL     1       9.999  11.425  19.047  0.00  0.00    +0.000 A 
ENDBRANCH   4  11
ENDBRANCH   2   4
ENDBRANCH   1   2
BRANCH   1  12
ATOM     12  C   UNL     1       7.339   7.606  17.344  0.00  0.00    +0.000 C 
BRANCH  12  13
ATOM     13  C   UNL     1       6.794   6.266  17.718  0.00  0.00    +0.000 A 
ATOM     14  C   UNL     1       7.527   5.128  17.988  0.00  0.00    +0.000 A 
ATOM     15  N   UNL     1       6.651   4.108  18.240  0.00  0.00    +0.000 N 
ATOM     16  C   UNL     1       5.354   4.554  18.142  0.00  0.00    +0.000 A 
ATOM     17  C   UNL     1       4.147   3.865  18.300  0.00  0.00    +0.000 A 
ATOM     18  C   UNL     1       2.961   4.586  18.132  0.00  0.00    +0.000 A 
ATOM     19  C   UNL     1       2.984   5.943  17.821  0.00  0.00    +0.000 A 
ATOM     20  C   UNL     1       4.201   6.616  17.663  0.00  0.00    +0.000 A 
ATOM     21  C   UNL     1       5.412   5.910  17.826  0.00  0.00    +0.000 A 
ATOM     22  H   UNL     1       6.914   3.156  18.454  0.00  0.00    +0.000 HD
ENDBRANCH  12  13
ENDBRANCH   1  12
TORSDOF 5
ENDMDL
MODEL 5
REMARK VINA RESULT:      -7.0      2.785      5.133
REMARK  Name = 
REMARK  5 active torsions:
REMARK  status: ('A' for Active; 'I' for Inactive)
REMARK    1  A    between atoms: C_7  and  C_8
REMARK    2  A    between atoms: C_8  and  N_9
REMARK    3  A    between atoms: N_9  and  C_10
REMARK    4  A    between atoms: C_10  and  C_11
REMARK    5  A    between atoms: C_11  and  C_12
REMARK                            x       y       z     vdW  Elec       q    Type
REMARK                         _______ _______ _______ _____ _____    ______ ____
ROOT
ATOM      1  C   UNL     1       4.926   6.744  16.369  0.00  0.00    +0.000 C 
ENDROOT
BRANCH   1   2
ATOM      2  N   UNL     1       4.348   7.170  17.650  0.00  0.00    +0.000 NA
ATOM      3  H   UNL     1       4.201   6.349  18.236  0.00  0.00    +0.000 HD
BRANCH   2   4
ATOM      4  C   UNL     1       3.058   7.848  17.484  0.00  0.00    +0.000 C 
BRANCH   4  11
ATOM      5 BR   UNL     1       1.446  10.620  18.268  0.00  0.00    +0.000 Br
ATOM      6  C   UNL     1       1.579   8.998  19.249  0.00  0.00    +0.000 A 
ATOM      7  C   UNL     1       0.935   8.959  20.492  0.00  0.00    +0.000 A 
ATOM      8  C   UNL     1       0.994   7.813  21.284  0.00  0.00    +0.000 A 
ATOM      9  C   UNL     1       1.696   6.699  20.840  0.00  0.00    +0.000 A 
ATOM     10  C   UNL     1       2.338   6.734  19.604  0.00  0.00    +0.000 A 
ATOM     11  C   UNL     1       2.286   7.880  18.783  0.00  0.00    +0.000 A 
ENDBRANCH   4  11
ENDBRANCH   2   4
ENDBRANCH   1   2
BRANCH   1  12
ATOM     12  C   UNL     1       4.906   5.223  16.172  0.00  0.00    +0.000 C 
BRANCH  12  13
ATOM     13  C   UNL     1       4.778   4.473  17.457  0.00  0.00    +0.000 A 
ATOM     14  C   UNL     1       5.795   4.185  18.345  0.00  0.00    +0.000 A 
ATOM     15  N   UNL     1       5.270   3.442  19.368  0.00  0.00    +0.000 N 
ATOM     16  C   UNL     1       3.925   3.235  19.168  0.00  0.00    +0.000 A 
ATOM     17  C   UNL     1       2.996   2.527  19.938  0.00  0.00    +0.000 A 
ATOM     18  C   UNL     1       1.677   2.479  19.480  0.00  0.00    +0.000 A 
ATOM     19  C   UNL     1       1.302   3.116  18.300  0.00  0.00    +0.000 A 
ATOM     20  C   UNL     1       2.245   3.819  17.541  0.00  0.00    +0.000 A 
ATOM     21  C   UNL     1       3.584   3.880  17.981  0.00  0.00    +0.000 A 
ATOM     22  H   UNL     1       5.794   3.081  20.152  0.00  0.00    +0.000 HD
ENDBRANCH  12  13
ENDBRANCH   1  12
TORSDOF 5
ENDMDL
MODEL 6
REMARK VINA RESULT:      -7.0      5.482      7.843
REMARK  Name = 
REMARK  5 active torsions:
REMARK  status: ('A' for Active; 'I' for Inactive)
REMARK    1  A    between atoms: C_7  and  C_8
REMARK    2  A    between atoms: C_8  and  N_9
REMARK    3  A    between atoms: N_9  and  C_10
REMARK    4  A    between atoms: C_10  and  C_11
REMARK    5  A    between atoms: C_11  and  C_12
REMARK                            x       y       z     vdW  Elec       q    Type
REMARK                         _______ _______ _______ _____ _____    ______ ____
ROOT
ATOM      1  C   UNL     1       2.292   9.212  17.975  0.00  0.00    +0.000 C 
ENDROOT
BRANCH   1   2
ATOM      2  N   UNL     1       0.911   9.519  17.580  0.00  0.00    +0.000 NA
ATOM      3  H   UNL     1       0.926  10.055  16.713  0.00  0.00    +0.000 HD
BRANCH   2   4
ATOM      4  C   UNL     1       0.203  10.312  18.592  0.00  0.00    +0.000 C 
BRANCH   4  11
ATOM      5 BR   UNL     1      -1.534  12.533  20.307  0.00  0.00    +0.000 Br
ATOM      6  C   UNL     1      -2.086  11.462  18.838  0.00  0.00    +0.000 A 
ATOM      7  C   UNL     1      -3.418  11.597  18.426  0.00  0.00    +0.000 A 
ATOM      8  C   UNL     1      -3.910  10.839  17.365  0.00  0.00    +0.000 A 
ATOM      9  C   UNL     1      -3.077   9.940  16.709  0.00  0.00    +0.000 A 
ATOM     10  C   UNL     1      -1.751   9.804  17.117  0.00  0.00    +0.000 A 
ATOM     11  C   UNL     1      -1.229  10.566  18.183  0.00  0.00    +0.000 A 
ENDBRANCH   4  11
ENDBRANCH   2   4
ENDBRANCH   1   2
BRANCH   1  12
ATOM     12  C   UNL     1       2.667   7.739  17.765  0.00  0.00    +0.000 C 
BRANCH  12  13
ATOM     13  C   UNL     1       2.275   6.870  18.914  0.00  0.00    +0.000 A 
ATOM     14  C   UNL     1       2.179   7.250  20.237  0.00  0.00    +0.000 A 
ATOM     15  N   UNL     1       1.839   6.149  20.974  0.00  0.00    +0.000 N 
ATOM     16  C   UNL     1       1.709   5.049  20.159  0.00  0.00    +0.000 A 
ATOM     17  C   UNL     1       1.394   3.723  20.474  0.00  0.00    +0.000 A 
ATOM     18  C   UNL     1       1.338   2.802  19.424  0.00  0.00    +0.000 A 
ATOM     19  C   UNL     1       1.584   3.193  18.111  0.00  0.00    +0.000 A 
ATOM     20  C   UNL     1       1.901   4.524  17.814  0.00  0.00    +0.000 A 
ATOM     21  C   UNL     1       1.966   5.472  18.857  0.00  0.00    +0.000 A 
ATOM     22  H   UNL     1       1.715   6.136  21.976  0.00  0.00    +0.000 HD
ENDBRANCH  12  13
ENDBRANCH   1  12
TORSDOF 5
ENDMDL
MODEL 7
REMARK VINA RESULT:      -7.0      2.624      4.023
REMARK  Name = 
REMARK  5 active torsions:
REMARK  status: ('A' for Active; 'I' for Inactive)
REMARK    1  A    between atoms: C_7  and  C_8
REMARK    2  A    between atoms: C_8  and  N_9
REMARK    3  A    between atoms: N_9  and  C_10
REMARK    4  A    between atoms: C_10  and  C_11
REMARK    5  A    between atoms: C_11  and  C_12
REMARK                            x       y       z     vdW  Elec       q    Type
REMARK                         _______ _______ _______ _____ _____    ______ ____
ROOT
ATOM      1  C   UNL     1       4.456   3.012  18.090  0.00  0.00    +0.000 C 
ENDROOT
BRANCH   1   2
ATOM      2  N   UNL     1       3.080   2.530  18.262  0.00  0.00    +0.000 NA
ATOM      3  H   UNL     1       2.959   1.676  17.718  0.00  0.00    +0.000 HD
BRANCH   2   4
ATOM      4  C   UNL     1       2.084   3.505  17.806  0.00  0.00    +0.000 C 
BRANCH   4  11
ATOM      5 BR   UNL     1       1.244   3.131  20.976  0.00  0.00    +0.000 Br
ATOM      6  C   UNL     1       1.715   4.719  20.045  0.00  0.00    +0.000 A 
ATOM      7  C   UNL     1       1.681   5.912  20.778  0.00  0.00    +0.000 A 
ATOM      8  C   UNL     1       1.999   7.125  20.170  0.00  0.00    +0.000 A 
ATOM      9  C   UNL     1       2.350   7.156  18.826  0.00  0.00    +0.000 A 
ATOM     10  C   UNL     1       2.384   5.971  18.093  0.00  0.00    +0.000 A 
ATOM     11  C   UNL     1       2.074   4.731  18.690  0.00  0.00    +0.000 A 
ENDBRANCH   4  11
ENDBRANCH   2   4
ENDBRANCH   1   2
BRANCH   1  12
ATOM     12  C   UNL     1       4.774   3.434  16.650  0.00  0.00    +0.000 C 
BRANCH  12  13
ATOM     13  C   UNL     1       5.334   4.815  16.558  0.00  0.00    +0.000 A 
ATOM     14  C   UNL     1       5.041   5.758  15.593  0.00  0.00    +0.000 A 
ATOM     15  N   UNL     1       5.797   6.870  15.841  0.00  0.00    +0.000 N 
ATOM     16  C   UNL     1       6.584   6.677  16.952  0.00  0.00    +0.000 A 
ATOM     17  C   UNL     1       7.516   7.526  17.558  0.00  0.00    +0.000 A 
ATOM     18  C   UNL     1       8.184   7.053  18.692  0.00  0.00    +0.000 A 
ATOM     19  C   UNL     1       7.927   5.782  19.199  0.00  0.00    +0.000 A 
ATOM     20  C   UNL     1       6.992   4.945  18.578  0.00  0.00    +0.000 A 
ATOM     21  C   UNL     1       6.307   5.398  17.431  0.00  0.00    +0.000 A 
ATOM     22  H   UNL     1       5.794   7.712  15.282  0.00  0.00    +0.000 HD
ENDBRANCH  12  13
ENDBRANCH   1  12
TORSDOF 5
ENDMDL
MODEL 8
REMARK VINA RESULT:      -6.9      3.260      6.757
REMARK  Name = 
REMARK  5 active torsions:
REMARK  status: ('A' for Active; 'I' for Inactive)
REMARK    1  A    between atoms: C_7  and  C_8
REMARK    2  A    between atoms: C_8  and  N_9
REMARK    3  A    between atoms: N_9  and  C_10
REMARK    4  A    between atoms: C_10  and  C_11
REMARK    5  A    between atoms: C_11  and  C_12
REMARK                            x       y       z     vdW  Elec       q    Type
REMARK                         _______ _______ _______ _____ _____    ______ ____
ROOT
ATOM      1  C   UNL     1       4.106   3.757  19.477  0.00  0.00    +0.000 C 
ENDROOT
BRANCH   1   2
ATOM      2  N   UNL     1       5.431   3.407  18.950  0.00  0.00    +0.000 NA
ATOM      3  H   UNL     1       6.142   3.710  19.614  0.00  0.00    +0.000 HD
BRANCH   2   4
ATOM      4  C   UNL     1       5.709   4.052  17.661  0.00  0.00    +0.000 C 
BRANCH   4  11
ATOM      5 BR   UNL     1       5.146   6.526  15.550  0.00  0.00    +0.000 Br
ATOM      6  C   UNL     1       6.358   6.456  17.012  0.00  0.00    +0.000 A 
ATOM      7  C   UNL     1       7.152   7.590  17.226  0.00  0.00    +0.000 A 
ATOM      8  C   UNL     1       8.078   7.619  18.268  0.00  0.00    +0.000 A 
ATOM      9  C   UNL     1       8.217   6.516  19.102  0.00  0.00    +0.000 A 
ATOM     10  C   UNL     1       7.429   5.386  18.892  0.00  0.00    +0.000 A 
ATOM     11  C   UNL     1       6.480   5.338  17.848  0.00  0.00    +0.000 A 
ENDBRANCH   4  11
ENDBRANCH   2   4
ENDBRANCH   1   2
BRANCH   1  12
ATOM     12  C   UNL     1       3.375   4.806  18.629  0.00  0.00    +0.000 C 
BRANCH  12  13
ATOM     13  C   UNL     1       2.675   5.835  19.454  0.00  0.00    +0.000 A 
ATOM     14  C   UNL     1       2.185   5.668  20.734  0.00  0.00    +0.000 A 
ATOM     15  N   UNL     1       1.574   6.832  21.112  0.00  0.00    +0.000 N 
ATOM     16  C   UNL     1       1.652   7.764  20.103  0.00  0.00    +0.000 A 
ATOM     17  C   UNL     1       1.158   9.071  20.040  0.00  0.00    +0.000 A 
ATOM     18  C   UNL     1       1.385   9.794  18.865  0.00  0.00    +0.000 A 
ATOM     19  C   UNL     1       2.081   9.232  17.798  0.00  0.00    +0.000 A 
ATOM     20  C   UNL     1       2.566   7.921  17.878  0.00  0.00    +0.000 A 
ATOM     21  C   UNL     1       2.348   7.170  19.052  0.00  0.00    +0.000 A 
ATOM     22  H   UNL     1       1.115   6.987  21.998  0.00  0.00    +0.000 HD
ENDBRANCH  12  13
ENDBRANCH   1  12
TORSDOF 5
ENDMDL
MODEL 9
REMARK VINA RESULT:      -6.9      3.336      4.972
REMARK  Name = 
REMARK  5 active torsions:
REMARK  status: ('A' for Active; 'I' for Inactive)
REMARK    1  A    between atoms: C_7  and  C_8
REMARK    2  A    between atoms: C_8  and  N_9
REMARK    3  A    between atoms: N_9  and  C_10
REMARK    4  A    between atoms: C_10  and  C_11
REMARK    5  A    between atoms: C_11  and  C_12
REMARK                            x       y       z     vdW  Elec       q    Type
REMARK                         _______ _______ _______ _____ _____    ______ ____
ROOT
ATOM      1  C   UNL     1       2.185   4.815  20.144  0.00  0.00    +0.000 C 
ENDROOT
BRANCH   1   2
ATOM      2  N   UNL     1       1.829   6.048  20.857  0.00  0.00    +0.000 NA
ATOM      3  H   UNL     1       0.827   6.045  21.043  0.00  0.00    +0.000 HD
BRANCH   2   4
ATOM      4  C   UNL     1       2.144   7.253  20.082  0.00  0.00    +0.000 C 
BRANCH   4  11
ATOM      5 BR   UNL     1       1.576   9.680  17.918  0.00  0.00    +0.000 Br
ATOM      6  C   UNL     1       1.007   9.535  19.726  0.00  0.00    +0.000 A 
ATOM      7  C   UNL     1       0.267  10.606  20.241  0.00  0.00    +0.000 A 
ATOM      8  C   UNL     1      -0.178  10.588  21.562  0.00  0.00    +0.000 A 
ATOM      9  C   UNL     1       0.114   9.502  22.377  0.00  0.00    +0.000 A 
ATOM     10  C   UNL     1       0.851   8.434  21.868  0.00  0.00    +0.000 A 
ATOM     11  C   UNL     1       1.305   8.427  20.532  0.00  0.00    +0.000 A 
ENDBRANCH   4  11
ENDBRANCH   2   4
ENDBRANCH   1   2
BRANCH   1  12
ATOM     12  C   UNL     1       2.132   4.962  18.618  0.00  0.00    +0.000 C 
BRANCH  12  13
ATOM     13  C   UNL     1       3.341   4.408  17.938  0.00  0.00    +0.000 A 
ATOM     14  C   UNL     1       3.569   3.085  17.617  0.00  0.00    +0.000 A 
ATOM     15  N   UNL     1       4.811   2.992  17.050  0.00  0.00    +0.000 N 
ATOM     16  C   UNL     1       5.405   4.231  16.992  0.00  0.00    +0.000 A 
ATOM     17  C   UNL     1       6.664   4.608  16.513  0.00  0.00    +0.000 A 
ATOM     18  C   UNL     1       7.008   5.961  16.587  0.00  0.00    +0.000 A 
ATOM     19  C   UNL     1       6.127   6.898  17.118  0.00  0.00    +0.000 A 
ATOM     20  C   UNL     1       4.871   6.504  17.595  0.00  0.00    +0.000 A 
ATOM     21  C   UNL     1       4.501   5.143  17.533  0.00  0.00    +0.000 A 
ATOM     22  H   UNL     1       5.241   2.136  16.732  0.00  0.00    +0.000 HD
ENDBRANCH  12  13
ENDBRANCH   1  12
TORSDOF 5
ENDMDL
