MODEL 1
REMARK VINA RESULT:      -8.8      0.000      0.000
REMARK  Name = 
REMARK  3 active torsions:
REMARK  status: ('A' for Active; 'I' for Inactive)
REMARK    1  A    between atoms: C_3  and  C_4
REMARK    2  A    between atoms: C_11  and  C_12
REMARK    3  A    between atoms: N_21  and  C_22
REMARK                            x       y       z     vdW  Elec       q    Type
REMARK                         _______ _______ _______ _____ _____    ______ ____
ROOT
ATOM      1  O   UNL     1      -1.835   9.532  17.862  0.00  0.00    +0.000 OA
ATOM      2  C   UNL     1      -1.343  10.573  18.226  0.00  0.00    +0.000 C 
ATOM      3  C   UNL     1      -1.792  12.038  18.474  0.00  0.00    +0.000 C 
ATOM      4  C   UNL     1      -0.419  12.143  19.234  0.00  0.00    +0.000 C 
ATOM      5  N   UNL     1      -0.064  10.875  18.580  0.00  0.00    +0.000 N 
ENDROOT
BRANCH   5   6
ATOM      6  C   UNL     1       0.969   9.919  18.885  0.00  0.00    +0.000 C 
ATOM      7  C   UNL     1       0.603   9.053  20.094  0.00  0.00    +0.000 C 
ATOM      8  C   UNL     1       1.847   8.280  20.520  0.00  0.00    +0.000 C 
ATOM      9  N   UNL     1       2.348   7.458  19.422  0.00  0.00    +0.000 N 
ATOM     10  C   UNL     1       2.198   6.076  19.535  0.00  0.00    +0.000 C 
ATOM     11  O   UNL     1       1.533   5.486  20.380  0.00  0.00    +0.000 OA
ATOM     12  N   UNL     1       2.839   5.317  18.546  0.00  0.00    +0.000 N 
ATOM     13  C   UNL     1       2.355   4.185  17.945  0.00  0.00    +0.000 A 
ATOM     14  N   UNL     1       3.244   3.692  17.115  0.00  0.00    +0.000 NA
ATOM     15  C   UNL     1       4.304   4.537  17.273  0.00  0.00    +0.000 A 
ATOM     16  N   UNL     1       4.104   5.567  18.099  0.00  0.00    +0.000 NA
ATOM     17  C   UNL     1       2.602   8.168  18.154  0.00  0.00    +0.000 C 
ATOM     18  C   UNL     1       1.380   8.999  17.728  0.00  0.00    +0.000 C 
ENDBRANCH   5   6
BRANCH   4  19
ATOM     19  C   UNL     1       0.535  13.373  18.938  0.00  0.00    +0.000 A 
ATOM     20  C   UNL     1       0.051  14.704  19.043  0.00  0.00    +0.000 A 
ATOM     21  C   UNL     1       0.875  15.824  18.860  0.00  0.00    +0.000 A 
ATOM     22  C   UNL     1       2.197  15.598  18.563  0.00  0.00    +0.000 A 
ATOM     23  C   UNL     1       2.697  14.330  18.431  0.00  0.00    +0.000 A 
ATOM     24  C   UNL     1       1.899  13.211  18.603  0.00  0.00    +0.000 A 
ATOM     25  O   UNL     1       4.024  14.315  18.141  0.00  0.00    +0.000 OA
ATOM     26  C   UNL     1       4.300  15.734  18.089  0.00  0.00    +0.000 C 
ATOM     27  O   UNL     1       3.149  16.549  18.370  0.00  0.00    +0.000 OA
ENDBRANCH   4  19
BRANCH   3  28
ATOM     28  C   UNL     1      -3.126  12.207  19.317  0.00  0.00    +0.000 A 
ATOM     29  C   UNL     1      -4.420  11.912  18.833  0.00  0.00    +0.000 A 
ATOM     30  C   UNL     1      -5.564  12.060  19.627  0.00  0.00    +0.000 A 
ATOM     31  C   UNL     1      -5.438  12.515  20.929  0.00  0.00    +0.000 A 
ATOM     32  F   UNL     1      -6.528  12.649  21.695  0.00  0.00    +0.000 F 
ATOM     33  C   UNL     1      -4.193  12.836  21.445  0.00  0.00    +0.000 A 
ATOM     34  C   UNL     1      -3.056  12.685  20.646  0.00  0.00    +0.000 A 
ENDBRANCH   3  28
TORSDOF 3
ENDMDL
MODEL 2
REMARK VINA RESULT:      -8.7      0.963      1.361
REMARK  Name = 
REMARK  3 active torsions:
REMARK  status: ('A' for Active; 'I' for Inactive)
REMARK    1  A    between atoms: C_3  and  C_4
REMARK    2  A    between atoms: C_11  and  C_12
REMARK    3  A    between atoms: N_21  and  C_22
REMARK                            x       y       z     vdW  Elec       q    Type
REMARK                         _______ _______ _______ _____ _____    ______ ____
ROOT
ATOM      1  O   UNL     1      -1.310   9.654  17.577  0.00  0.00    +0.000 OA
ATOM      2  C   UNL     1      -0.773  10.557  18.174  0.00  0.00    +0.000 C 
ATOM      3  C   UNL     1      -1.099  12.010  18.611  0.00  0.00    +0.000 C 
ATOM      4  C   UNL     1       0.150  11.821  19.547  0.00  0.00    +0.000 C 
ATOM      5  N   UNL     1       0.465  10.636  18.736  0.00  0.00    +0.000 N 
ENDROOT
BRANCH   5   6
ATOM      6  C   UNL     1       1.338   9.522  19.002  0.00  0.00    +0.000 C 
ATOM      7  C   UNL     1       0.875   8.714  20.218  0.00  0.00    +0.000 C 
ATOM      8  C   UNL     1       1.989   7.746  20.600  0.00  0.00    +0.000 C 
ATOM      9  N   UNL     1       2.314   6.865  19.482  0.00  0.00    +0.000 N 
ATOM     10  C   UNL     1       1.945   5.524  19.593  0.00  0.00    +0.000 C 
ATOM     11  O   UNL     1       1.220   5.042  20.457  0.00  0.00    +0.000 OA
ATOM     12  N   UNL     1       2.422   4.681  18.580  0.00  0.00    +0.000 N 
ATOM     13  C   UNL     1       1.741   3.649  17.990  0.00  0.00    +0.000 A 
ATOM     14  N   UNL     1       2.511   3.026  17.129  0.00  0.00    +0.000 NA
ATOM     15  C   UNL     1       3.699   3.685  17.256  0.00  0.00    +0.000 A 
ATOM     16  N   UNL     1       3.696   4.726  18.092  0.00  0.00    +0.000 NA
ATOM     17  C   UNL     1       2.639   7.536  18.209  0.00  0.00    +0.000 C 
ATOM     18  C   UNL     1       1.556   8.559  17.828  0.00  0.00    +0.000 C 
ENDBRANCH   5   6
BRANCH   4  19
ATOM     19  C   UNL     1       1.259  12.952  19.592  0.00  0.00    +0.000 A 
ATOM     20  C   UNL     1       1.850  13.336  20.825  0.00  0.00    +0.000 A 
ATOM     21  C   UNL     1       2.883  14.280  20.905  0.00  0.00    +0.000 A 
ATOM     22  C   UNL     1       3.320  14.846  19.732  0.00  0.00    +0.000 A 
ATOM     23  C   UNL     1       2.761  14.518  18.525  0.00  0.00    +0.000 A 
ATOM     24  C   UNL     1       1.736  13.592  18.425  0.00  0.00    +0.000 A 
ATOM     25  O   UNL     1       3.332  15.179  17.485  0.00  0.00    +0.000 OA
ATOM     26  C   UNL     1       4.313  15.979  18.185  0.00  0.00    +0.000 C 
ATOM     27  O   UNL     1       4.318  15.760  19.606  0.00  0.00    +0.000 OA
ENDBRANCH   4  19
BRANCH   3  28
ATOM     28  C   UNL     1      -2.518  12.211  19.292  0.00  0.00    +0.000 A 
ATOM     29  C   UNL     1      -2.718  12.761  20.578  0.00  0.00    +0.000 A 
ATOM     30  C   UNL     1      -3.995  12.936  21.124  0.00  0.00    +0.000 A 
ATOM     31  C   UNL     1      -5.108  12.557  20.394  0.00  0.00    +0.000 A 
ATOM     32  F   UNL     1      -6.332  12.731  20.909  0.00  0.00    +0.000 F 
ATOM     33  C   UNL     1      -4.967  11.996  19.135  0.00  0.00    +0.000 A 
ATOM     34  C   UNL     1      -3.688  11.825  18.597  0.00  0.00    +0.000 A 
ENDBRANCH   3  28
TORSDOF 3
ENDMDL
MODEL 3
REMARK VINA RESULT:      -8.6      1.423      1.607
REMARK  Name = 
REMARK  3 active torsions:
REMARK  status: ('A' for Active; 'I' for Inactive)
REMARK    1  A    between atoms: C_3  and  C_4
REMARK    2  A    between atoms: C_11  and  C_12
REMARK    3  A    between atoms: N_21  and  C_22
REMARK                            x       y       z     vdW  Elec       q    Type
REMARK                         _______ _______ _______ _____ _____    ______ ____
ROOT
ATOM      1  O   UNL     1      -1.455   9.683  17.150  0.00  0.00    +0.000 OA
ATOM      2  C   UNL     1      -1.219  10.606  17.893  0.00  0.00    +0.000 C 
ATOM      3  C   UNL     1      -1.895  11.927  18.344  0.00  0.00    +0.000 C 
ATOM      4  C   UNL     1      -0.820  11.878  19.491  0.00  0.00    +0.000 C 
ATOM      5  N   UNL     1      -0.141  10.853  18.686  0.00  0.00    +0.000 N 
ENDROOT
BRANCH   5   6
ATOM      6  C   UNL     1       0.871   9.895  19.049  0.00  0.00    +0.000 C 
ATOM      7  C   UNL     1       0.431   9.019  20.225  0.00  0.00    +0.000 C 
ATOM      8  C   UNL     1       1.644   8.243  20.723  0.00  0.00    +0.000 C 
ATOM      9  N   UNL     1       2.213   7.429  19.652  0.00  0.00    +0.000 N 
ATOM     10  C   UNL     1       2.057   6.046  19.745  0.00  0.00    +0.000 C 
ATOM     11  O   UNL     1       1.340   5.450  20.542  0.00  0.00    +0.000 OA
ATOM     12  N   UNL     1       2.759   5.294  18.792  0.00  0.00    +0.000 N 
ATOM     13  C   UNL     1       2.313   4.167  18.153  0.00  0.00    +0.000 A 
ATOM     14  N   UNL     1       3.253   3.680  17.377  0.00  0.00    +0.000 NA
ATOM     15  C   UNL     1       4.301   4.523  17.608  0.00  0.00    +0.000 A 
ATOM     16  N   UNL     1       4.050   5.547  18.427  0.00  0.00    +0.000 NA
ATOM     17  C   UNL     1       2.546   8.148  18.408  0.00  0.00    +0.000 C 
ATOM     18  C   UNL     1       1.354   8.983  17.912  0.00  0.00    +0.000 C 
ENDBRANCH   5   6
BRANCH   4  19
ATOM     19  C   UNL     1       0.021  13.182  19.817  0.00  0.00    +0.000 A 
ATOM     20  C   UNL     1      -0.020  14.303  18.946  0.00  0.00    +0.000 A 
ATOM     21  C   UNL     1       0.651  15.502  19.228  0.00  0.00    +0.000 A 
ATOM     22  C   UNL     1       1.372  15.568  20.395  0.00  0.00    +0.000 A 
ATOM     23  C   UNL     1       1.453  14.501  21.250  0.00  0.00    +0.000 A 
ATOM     24  C   UNL     1       0.804  13.306  20.987  0.00  0.00    +0.000 A 
ATOM     25  O   UNL     1       2.208  14.764  22.348  0.00  0.00    +0.000 OA
ATOM     26  C   UNL     1       2.608  16.127  22.076  0.00  0.00    +0.000 C 
ATOM     27  O   UNL     1       2.069  16.644  20.847  0.00  0.00    +0.000 OA
ENDBRANCH   4  19
BRANCH   3  28
ATOM     28  C   UNL     1      -3.424  11.804  18.750  0.00  0.00    +0.000 A 
ATOM     29  C   UNL     1      -4.382  11.047  18.040  0.00  0.00    +0.000 A 
ATOM     30  C   UNL     1      -5.717  10.955  18.454  0.00  0.00    +0.000 A 
ATOM     31  C   UNL     1      -6.126  11.629  19.592  0.00  0.00    +0.000 A 
ATOM     32  F   UNL     1      -7.400  11.537  19.997  0.00  0.00    +0.000 F 
ATOM     33  C   UNL     1      -5.231  12.400  20.315  0.00  0.00    +0.000 A 
ATOM     34  C   UNL     1      -3.901  12.486  19.895  0.00  0.00    +0.000 A 
ENDBRANCH   3  28
TORSDOF 3
ENDMDL
MODEL 4
REMARK VINA RESULT:      -8.6      0.723      1.214
REMARK  Name = 
REMARK  3 active torsions:
REMARK  status: ('A' for Active; 'I' for Inactive)
REMARK    1  A    between atoms: C_3  and  C_4
REMARK    2  A    between atoms: C_11  and  C_12
REMARK    3  A    between atoms: N_21  and  C_22
REMARK                            x       y       z     vdW  Elec       q    Type
REMARK                         _______ _______ _______ _____ _____    ______ ____
ROOT
ATOM      1  O   UNL     1      -1.599   9.607  17.658  0.00  0.00    +0.000 OA
ATOM      2  C   UNL     1      -1.109  10.596  18.148  0.00  0.00    +0.000 C 
ATOM      3  C   UNL     1      -1.531  12.051  18.481  0.00  0.00    +0.000 C 
ATOM      4  C   UNL     1      -0.227  12.041  19.360  0.00  0.00    +0.000 C 
ATOM      5  N   UNL     1       0.144  10.818  18.633  0.00  0.00    +0.000 N 
ENDROOT
BRANCH   5   6
ATOM      6  C   UNL     1       1.116   9.802  18.941  0.00  0.00    +0.000 C 
ATOM      7  C   UNL     1       0.684   8.945  20.134  0.00  0.00    +0.000 C 
ATOM      8  C   UNL     1       1.875   8.098  20.570  0.00  0.00    +0.000 C 
ATOM      9  N   UNL     1       2.344   7.261  19.469  0.00  0.00    +0.000 N 
ATOM     10  C   UNL     1       2.115   5.888  19.564  0.00  0.00    +0.000 C 
ATOM     11  O   UNL     1       1.405   5.328  20.393  0.00  0.00    +0.000 OA
ATOM     12  N   UNL     1       2.726   5.105  18.575  0.00  0.00    +0.000 N 
ATOM     13  C   UNL     1       2.187   4.009  17.954  0.00  0.00    +0.000 A 
ATOM     14  N   UNL     1       3.059   3.475  17.132  0.00  0.00    +0.000 NA
ATOM     15  C   UNL     1       4.163   4.255  17.314  0.00  0.00    +0.000 A 
ATOM     16  N   UNL     1       4.010   5.286  18.149  0.00  0.00    +0.000 NA
ATOM     17  C   UNL     1       2.657   7.969  18.213  0.00  0.00    +0.000 C 
ATOM     18  C   UNL     1       1.491   8.872  17.780  0.00  0.00    +0.000 C 
ENDBRANCH   5   6
BRANCH   4  19
ATOM     19  C   UNL     1       0.787  13.254  19.250  0.00  0.00    +0.000 A 
ATOM     20  C   UNL     1       1.840  13.231  18.297  0.00  0.00    +0.000 A 
ATOM     21  C   UNL     1       2.717  14.310  18.115  0.00  0.00    +0.000 A 
ATOM     22  C   UNL     1       2.534  15.418  18.906  0.00  0.00    +0.000 A 
ATOM     23  C   UNL     1       1.544  15.470  19.851  0.00  0.00    +0.000 A 
ATOM     24  C   UNL     1       0.671  14.414  20.050  0.00  0.00    +0.000 A 
ATOM     25  O   UNL     1       1.523  16.649  20.525  0.00  0.00    +0.000 OA
ATOM     26  C   UNL     1       2.633  17.333  19.899  0.00  0.00    +0.000 C 
ATOM     27  O   UNL     1       3.267  16.562  18.863  0.00  0.00    +0.000 OA
ENDBRANCH   4  19
BRANCH   3  28
ATOM     28  C   UNL     1      -2.928  12.202  19.221  0.00  0.00    +0.000 A 
ATOM     29  C   UNL     1      -4.174  11.853  18.655  0.00  0.00    +0.000 A 
ATOM     30  C   UNL     1      -5.376  11.986  19.360  0.00  0.00    +0.000 A 
ATOM     31  C   UNL     1      -5.358  12.482  20.653  0.00  0.00    +0.000 A 
ATOM     32  F   UNL     1      -6.505  12.603  21.335  0.00  0.00    +0.000 F 
ATOM     33  C   UNL     1      -4.165  12.856  21.248  0.00  0.00    +0.000 A 
ATOM     34  C   UNL     1      -2.969  12.719  20.537  0.00  0.00    +0.000 A 
ENDBRANCH   3  28
TORSDOF 3
ENDMDL
MODEL 5
REMARK VINA RESULT:      -8.5      3.531      7.986
REMARK  Name = 
REMARK  3 active torsions:
REMARK  status: ('A' for Active; 'I' for Inactive)
REMARK    1  A    between atoms: C_3  and  C_4
REMARK    2  A    between atoms: C_11  and  C_12
REMARK    3  A    between atoms: N_21  and  C_22
REMARK                            x       y       z     vdW  Elec       q    Type
REMARK                         _______ _______ _______ _____ _____    ______ ____
ROOT
ATOM      1  O   UNL     1      -1.030  13.059  19.760  0.00  0.00    +0.000 OA
ATOM      2  C   UNL     1      -0.512  12.018  19.430  0.00  0.00    +0.000 C 
ATOM      3  C   UNL     1      -0.952  10.614  18.937  0.00  0.00    +0.000 C 
ATOM      4  C   UNL     1       0.563  10.476  18.537  0.00  0.00    +0.000 C 
ATOM      5  N   UNL     1       0.799  11.657  19.380  0.00  0.00    +0.000 N 
ENDROOT
BRANCH   5   6
ATOM      6  C   UNL     1       1.920  12.559  19.437  0.00  0.00    +0.000 C 
ATOM      7  C   UNL     1       1.967  13.487  18.220  0.00  0.00    +0.000 C 
ATOM      8  C   UNL     1       3.316  14.197  18.213  0.00  0.00    +0.000 C 
ATOM      9  N   UNL     1       3.511  14.949  19.450  0.00  0.00    +0.000 N 
ATOM     10  C   UNL     1       3.466  16.341  19.368  0.00  0.00    +0.000 C 
ATOM     11  O   UNL     1       3.107  16.999  18.397  0.00  0.00    +0.000 OA
ATOM     12  N   UNL     1       3.824  17.026  20.538  0.00  0.00    +0.000 N 
ATOM     13  C   UNL     1       3.239  18.163  21.029  0.00  0.00    +0.000 A 
ATOM     14  N   UNL     1       3.868  18.573  22.105  0.00  0.00    +0.000 NA
ATOM     15  C   UNL     1       4.886  17.673  22.220  0.00  0.00    +0.000 A 
ATOM     16  N   UNL     1       4.889  16.686  21.321  0.00  0.00    +0.000 NA
ATOM     17  C   UNL     1       3.347  14.182  20.699  0.00  0.00    +0.000 C 
ATOM     18  C   UNL     1       2.016  13.413  20.709  0.00  0.00    +0.000 C 
ENDBRANCH   5   6
BRANCH   4  19
ATOM     19  C   UNL     1       1.350   9.161  18.941  0.00  0.00    +0.000 A 
ATOM     20  C   UNL     1       1.225   8.617  20.248  0.00  0.00    +0.000 A 
ATOM     21  C   UNL     1       1.845   7.418  20.628  0.00  0.00    +0.000 A 
ATOM     22  C   UNL     1       2.602   6.766  19.685  0.00  0.00    +0.000 A 
ATOM     23  C   UNL     1       2.765   7.270  18.422  0.00  0.00    +0.000 A 
ATOM     24  C   UNL     1       2.166   8.454  18.028  0.00  0.00    +0.000 A 
ATOM     25  O   UNL     1       3.543   6.480  17.638  0.00  0.00    +0.000 OA
ATOM     26  C   UNL     1       3.866   5.419  18.567  0.00  0.00    +0.000 C 
ATOM     27  O   UNL     1       3.260   5.590  19.860  0.00  0.00    +0.000 OA
ENDBRANCH   4  19
BRANCH   3  28
ATOM     28  C   UNL     1      -2.033  10.611  17.775  0.00  0.00    +0.000 A 
ATOM     29  C   UNL     1      -3.207  11.397  17.771  0.00  0.00    +0.000 A 
ATOM     30  C   UNL     1      -4.118  11.371  16.709  0.00  0.00    +0.000 A 
ATOM     31  C   UNL     1      -3.878  10.546  15.623  0.00  0.00    +0.000 A 
ATOM     32  F   UNL     1      -4.743  10.524  14.600  0.00  0.00    +0.000 F 
ATOM     33  C   UNL     1      -2.751   9.741  15.585  0.00  0.00    +0.000 A 
ATOM     34  C   UNL     1      -1.845   9.774  16.649  0.00  0.00    +0.000 A 
ENDBRANCH   3  28
TORSDOF 3
ENDMDL
MODEL 6
REMARK VINA RESULT:      -8.5      1.385      1.691
REMARK  Name = 
REMARK  3 active torsions:
REMARK  status: ('A' for Active; 'I' for Inactive)
REMARK    1  A    between atoms: C_3  and  C_4
REMARK    2  A    between atoms: C_11  and  C_12
REMARK    3  A    between atoms: N_21  and  C_22
REMARK                            x       y       z     vdW  Elec       q    Type
REMARK                         _______ _______ _______ _____ _____    ______ ____
ROOT
ATOM      1  O   UNL     1      -1.301   9.738  17.319  0.00  0.00    +0.000 OA
ATOM      2  C   UNL     1      -0.929  10.640  18.032  0.00  0.00    +0.000 C 
ATOM      3  C   UNL     1      -1.442  12.026  18.506  0.00  0.00    +0.000 C 
ATOM      4  C   UNL     1      -0.304  11.881  19.582  0.00  0.00    +0.000 C 
ATOM      5  N   UNL     1       0.218  10.787  18.750  0.00  0.00    +0.000 N 
ENDROOT
BRANCH   5   6
ATOM      6  C   UNL     1       1.153   9.737  19.061  0.00  0.00    +0.000 C 
ATOM      7  C   UNL     1       0.657   8.855  20.210  0.00  0.00    +0.000 C 
ATOM      8  C   UNL     1       1.810   7.965  20.661  0.00  0.00    +0.000 C 
ATOM      9  N   UNL     1       2.299   7.150  19.552  0.00  0.00    +0.000 N 
ATOM     10  C   UNL     1       2.032   5.782  19.594  0.00  0.00    +0.000 C 
ATOM     11  O   UNL     1       1.279   5.215  20.379  0.00  0.00    +0.000 OA
ATOM     12  N   UNL     1       2.659   5.013  18.603  0.00  0.00    +0.000 N 
ATOM     13  C   UNL     1       2.117   3.952  17.929  0.00  0.00    +0.000 A 
ATOM     14  N   UNL     1       3.005   3.421  17.122  0.00  0.00    +0.000 NA
ATOM     15  C   UNL     1       4.121   4.167  17.369  0.00  0.00    +0.000 A 
ATOM     16  N   UNL     1       3.963   5.175  18.230  0.00  0.00    +0.000 NA
ATOM     17  C   UNL     1       2.674   7.888  18.331  0.00  0.00    +0.000 C 
ATOM     18  C   UNL     1       1.547   8.834  17.885  0.00  0.00    +0.000 C 
ENDBRANCH   5   6
BRANCH   4  19
ATOM     19  C   UNL     1       0.680  13.099  19.833  0.00  0.00    +0.000 A 
ATOM     20  C   UNL     1       1.024  13.979  18.773  0.00  0.00    +0.000 A 
ATOM     21  C   UNL     1       1.833  15.109  18.963  0.00  0.00    +0.000 A 
ATOM     22  C   UNL     1       2.302  15.349  20.232  0.00  0.00    +0.000 A 
ATOM     23  C   UNL     1       2.010  14.511  21.275  0.00  0.00    +0.000 A 
ATOM     24  C   UNL     1       1.218  13.388  21.108  0.00  0.00    +0.000 A 
ATOM     25  O   UNL     1       2.561  14.920  22.447  0.00  0.00    +0.000 OA
ATOM     26  C   UNL     1       3.253  16.114  22.013  0.00  0.00    +0.000 C 
ATOM     27  O   UNL     1       3.079  16.396  20.613  0.00  0.00    +0.000 OA
ENDBRANCH   4  19
BRANCH   3  28
ATOM     28  C   UNL     1      -2.946  12.056  19.011  0.00  0.00    +0.000 A 
ATOM     29  C   UNL     1      -3.368  12.623  20.235  0.00  0.00    +0.000 A 
ATOM     30  C   UNL     1      -4.713  12.641  20.623  0.00  0.00    +0.000 A 
ATOM     31  C   UNL     1      -5.671  12.084  19.793  0.00  0.00    +0.000 A 
ATOM     32  F   UNL     1      -6.960  12.108  20.157  0.00  0.00    +0.000 F 
ATOM     33  C   UNL     1      -5.309  11.500  18.591  0.00  0.00    +0.000 A 
ATOM     34  C   UNL     1      -3.963  11.486  18.210  0.00  0.00    +0.000 A 
ENDBRANCH   3  28
TORSDOF 3
ENDMDL
MODEL 7
REMARK VINA RESULT:      -8.5      1.178      1.465
REMARK  Name = 
REMARK  3 active torsions:
REMARK  status: ('A' for Active; 'I' for Inactive)
REMARK    1  A    between atoms: C_3  and  C_4
REMARK    2  A    between atoms: C_11  and  C_12
REMARK    3  A    between atoms: N_21  and  C_22
REMARK                            x       y       z     vdW  Elec       q    Type
REMARK                         _______ _______ _______ _____ _____    ______ ____
ROOT
ATOM      1  O   UNL     1      -1.536   9.612  17.194  0.00  0.00    +0.000 OA
ATOM      2  C   UNL     1      -1.269  10.582  17.863  0.00  0.00    +0.000 C 
ATOM      3  C   UNL     1      -1.922  11.936  18.249  0.00  0.00    +0.000 C 
ATOM      4  C   UNL     1      -0.804  11.958  19.354  0.00  0.00    +0.000 C 
ATOM      5  N   UNL     1      -0.160  10.876  18.596  0.00  0.00    +0.000 N 
ENDROOT
BRANCH   5   6
ATOM      6  C   UNL     1       0.862   9.939  18.984  0.00  0.00    +0.000 C 
ATOM      7  C   UNL     1       0.417   9.066  20.160  0.00  0.00    +0.000 C 
ATOM      8  C   UNL     1       1.635   8.315  20.685  0.00  0.00    +0.000 C 
ATOM      9  N   UNL     1       2.236   7.502  19.632  0.00  0.00    +0.000 N 
ATOM     10  C   UNL     1       2.102   6.118  19.734  0.00  0.00    +0.000 C 
ATOM     11  O   UNL     1       1.382   5.516  20.524  0.00  0.00    +0.000 OA
ATOM     12  N   UNL     1       2.832   5.370  18.800  0.00  0.00    +0.000 N 
ATOM     13  C   UNL     1       2.418   4.230  18.164  0.00  0.00    +0.000 A 
ATOM     14  N   UNL     1       3.378   3.753  17.408  0.00  0.00    +0.000 NA
ATOM     15  C   UNL     1       4.408   4.615  17.649  0.00  0.00    +0.000 A 
ATOM     16  N   UNL     1       4.125   5.641  18.454  0.00  0.00    +0.000 NA
ATOM     17  C   UNL     1       2.578   8.217  18.387  0.00  0.00    +0.000 C 
ATOM     18  C   UNL     1       1.380   9.026  17.864  0.00  0.00    +0.000 C 
ENDBRANCH   5   6
BRANCH   4  19
ATOM     19  C   UNL     1       0.054  13.276  19.557  0.00  0.00    +0.000 A 
ATOM     20  C   UNL     1       1.130  13.301  20.484  0.00  0.00    +0.000 A 
ATOM     21  C   UNL     1       1.960  14.420  20.646  0.00  0.00    +0.000 A 
ATOM     22  C   UNL     1       1.698  15.523  19.871  0.00  0.00    +0.000 A 
ATOM     23  C   UNL     1       0.657  15.545  18.982  0.00  0.00    +0.000 A 
ATOM     24  C   UNL     1      -0.178  14.454  18.810  0.00  0.00    +0.000 A 
ATOM     25  O   UNL     1       0.566  16.721  18.308  0.00  0.00    +0.000 OA
ATOM     26  C   UNL     1       1.671  17.448  18.893  0.00  0.00    +0.000 C 
ATOM     27  O   UNL     1       2.399  16.688  19.873  0.00  0.00    +0.000 OA
ENDBRANCH   4  19
BRANCH   3  28
ATOM     28  C   UNL     1      -3.435  11.849  18.721  0.00  0.00    +0.000 A 
ATOM     29  C   UNL     1      -4.453  11.161  18.023  0.00  0.00    +0.000 A 
ATOM     30  C   UNL     1      -5.769  11.099  18.496  0.00  0.00    +0.000 A 
ATOM     31  C   UNL     1      -6.101  11.734  19.681  0.00  0.00    +0.000 A 
ATOM     32  F   UNL     1      -7.357  11.670  20.141  0.00  0.00    +0.000 F 
ATOM     33  C   UNL     1      -5.145  12.438  20.394  0.00  0.00    +0.000 A 
ATOM     34  C   UNL     1      -3.832  12.494  19.916  0.00  0.00    +0.000 A 
ENDBRANCH   3  28
TORSDOF 3
ENDMDL
MODEL 8
REMARK VINA RESULT:      -8.5      0.726      1.588
REMARK  Name = 
REMARK  3 active torsions:
REMARK  status: ('A' for Active; 'I' for Inactive)
REMARK    1  A    between atoms: C_3  and  C_4
REMARK    2  A    between atoms: C_11  and  C_12
REMARK    3  A    between atoms: N_21  and  C_22
REMARK                            x       y       z     vdW  Elec       q    Type
REMARK                         _______ _______ _______ _____ _____    ______ ____
ROOT
ATOM      1  O   UNL     1      -2.003   9.611  17.929  0.00  0.00    +0.000 OA
ATOM      2  C   UNL     1      -1.550  10.661  18.319  0.00  0.00    +0.000 C 
ATOM      3  C   UNL     1      -2.049  12.106  18.586  0.00  0.00    +0.000 C 
ATOM      4  C   UNL     1      -0.692  12.240  19.370  0.00  0.00    +0.000 C 
ATOM      5  N   UNL     1      -0.287  10.996  18.699  0.00  0.00    +0.000 N 
ENDROOT
BRANCH   5   6
ATOM      6  C   UNL     1       0.772  10.068  19.004  0.00  0.00    +0.000 C 
ATOM      7  C   UNL     1       0.437   9.204  20.223  0.00  0.00    +0.000 C 
ATOM      8  C   UNL     1       1.702   8.466  20.646  0.00  0.00    +0.000 C 
ATOM      9  N   UNL     1       2.212   7.646  19.551  0.00  0.00    +0.000 N 
ATOM     10  C   UNL     1       2.097   6.261  19.677  0.00  0.00    +0.000 C 
ATOM     11  O   UNL     1       1.453   5.664  20.534  0.00  0.00    +0.000 OA
ATOM     12  N   UNL     1       2.747   5.508  18.690  0.00  0.00    +0.000 N 
ATOM     13  C   UNL     1       2.284   4.360  18.103  0.00  0.00    +0.000 A 
ATOM     14  N   UNL     1       3.178   3.881  17.271  0.00  0.00    +0.000 NA
ATOM     15  C   UNL     1       4.219   4.751  17.411  0.00  0.00    +0.000 A 
ATOM     16  N   UNL     1       4.002   5.784  18.229  0.00  0.00    +0.000 NA
ATOM     17  C   UNL     1       2.439   8.350  18.274  0.00  0.00    +0.000 C 
ATOM     18  C   UNL     1       1.194   9.147  17.852  0.00  0.00    +0.000 C 
ENDBRANCH   5   6
BRANCH   4  19
ATOM     19  C   UNL     1       0.227  13.505  19.111  0.00  0.00    +0.000 A 
ATOM     20  C   UNL     1       1.587  13.344  18.732  0.00  0.00    +0.000 A 
ATOM     21  C   UNL     1       2.418  14.431  18.425  0.00  0.00    +0.000 A 
ATOM     22  C   UNL     1       1.875  15.690  18.505  0.00  0.00    +0.000 A 
ATOM     23  C   UNL     1       0.574  15.887  18.888  0.00  0.00    +0.000 A 
ATOM     24  C   UNL     1      -0.261  14.829  19.201  0.00  0.00    +0.000 A 
ATOM     25  O   UNL     1       0.224  17.200  18.902  0.00  0.00    +0.000 OA
ATOM     26  C   UNL     1       1.470  17.811  18.495  0.00  0.00    +0.000 C 
ATOM     27  O   UNL     1       2.513  16.857  18.229  0.00  0.00    +0.000 OA
ENDBRANCH   4  19
BRANCH   3  28
ATOM     28  C   UNL     1      -3.400  12.218  19.410  0.00  0.00    +0.000 A 
ATOM     29  C   UNL     1      -3.490  12.682  20.742  0.00  0.00    +0.000 A 
ATOM     30  C   UNL     1      -4.712  12.779  21.416  0.00  0.00    +0.000 A 
ATOM     31  C   UNL     1      -5.880  12.406  20.772  0.00  0.00    +0.000 A 
ATOM     32  F   UNL     1      -7.053  12.506  21.411  0.00  0.00    +0.000 F 
ATOM     33  C   UNL     1      -5.846  11.927  19.473  0.00  0.00    +0.000 A 
ATOM     34  C   UNL     1      -4.620  11.833  18.806  0.00  0.00    +0.000 A 
ENDBRANCH   3  28
TORSDOF 3
ENDMDL
MODEL 9
REMARK VINA RESULT:      -8.5      1.240      1.366
REMARK  Name = 
REMARK  3 active torsions:
REMARK  status: ('A' for Active; 'I' for Inactive)
REMARK    1  A    between atoms: C_3  and  C_4
REMARK    2  A    between atoms: C_11  and  C_12
REMARK    3  A    between atoms: N_21  and  C_22
REMARK                            x       y       z     vdW  Elec       q    Type
REMARK                         _______ _______ _______ _____ _____    ______ ____
ROOT
ATOM      1  O   UNL     1      -1.622   9.847  18.711  0.00  0.00    +0.000 OA
ATOM      2  C   UNL     1      -0.962  10.734  19.197  0.00  0.00    +0.000 C 
ATOM      3  C   UNL     1      -1.163  12.196  19.675  0.00  0.00    +0.000 C 
ATOM      4  C   UNL     1       0.226  11.972  20.376  0.00  0.00    +0.000 C 
ATOM      5  N   UNL     1       0.358  10.776  19.530  0.00  0.00    +0.000 N 
ENDROOT
BRANCH   5   6
ATOM      6  C   UNL     1       1.231   9.638  19.645  0.00  0.00    +0.000 C 
ATOM      7  C   UNL     1       0.806   8.707  20.785  0.00  0.00    +0.000 C 
ATOM      8  C   UNL     1       1.925   7.700  21.021  0.00  0.00    +0.000 C 
ATOM      9  N   UNL     1       2.204   6.941  19.805  0.00  0.00    +0.000 N 
ATOM     10  C   UNL     1       1.829   5.597  19.787  0.00  0.00    +0.000 C 
ATOM     11  O   UNL     1       1.132   5.029  20.621  0.00  0.00    +0.000 OA
ATOM     12  N   UNL     1       2.263   4.865  18.673  0.00  0.00    +0.000 N 
ATOM     13  C   UNL     1       1.554   3.904  18.003  0.00  0.00    +0.000 A 
ATOM     14  N   UNL     1       2.288   3.373  17.053  0.00  0.00    +0.000 NA
ATOM     15  C   UNL     1       3.485   4.010  17.206  0.00  0.00    +0.000 A 
ATOM     16  N   UNL     1       3.520   4.957  18.147  0.00  0.00    +0.000 NA
ATOM     17  C   UNL     1       2.489   7.743  18.600  0.00  0.00    +0.000 C 
ATOM     18  C   UNL     1       1.400   8.803  18.368  0.00  0.00    +0.000 C 
ENDBRANCH   5   6
BRANCH   4  19
ATOM     19  C   UNL     1       1.358  13.070  20.215  0.00  0.00    +0.000 A 
ATOM     20  C   UNL     1       1.584  14.029  21.239  0.00  0.00    +0.000 A 
ATOM     21  C   UNL     1       2.618  14.973  21.172  0.00  0.00    +0.000 A 
ATOM     22  C   UNL     1       3.428  14.953  20.062  0.00  0.00    +0.000 A 
ATOM     23  C   UNL     1       3.229  14.058  19.045  0.00  0.00    +0.000 A 
ATOM     24  C   UNL     1       2.210  13.121  19.088  0.00  0.00    +0.000 A 
ATOM     25  O   UNL     1       4.133  14.194  18.041  0.00  0.00    +0.000 OA
ATOM     26  C   UNL     1       4.922  15.298  18.542  0.00  0.00    +0.000 C 
ATOM     27  O   UNL     1       4.487  15.772  19.828  0.00  0.00    +0.000 OA
ENDBRANCH   4  19
BRANCH   3  28
ATOM     28  C   UNL     1      -2.433  12.442  20.595  0.00  0.00    +0.000 A 
ATOM     29  C   UNL     1      -3.733  12.705  20.111  0.00  0.00    +0.000 A 
ATOM     30  C   UNL     1      -4.824  12.894  20.969  0.00  0.00    +0.000 A 
ATOM     31  C   UNL     1      -4.634  12.830  22.339  0.00  0.00    +0.000 A 
ATOM     32  F   UNL     1      -5.677  13.001  23.163  0.00  0.00    +0.000 F 
ATOM     33  C   UNL     1      -3.376  12.592  22.866  0.00  0.00    +0.000 A 
ATOM     34  C   UNL     1      -2.292  12.404  22.003  0.00  0.00    +0.000 A 
ENDBRANCH   3  28
TORSDOF 3
ENDMDL
