MODEL 1
REMARK VINA RESULT:      -5.7      0.000      0.000
REMARK  Name = 
REMARK  7 active torsions:
REMARK  status: ('A' for Active; 'I' for Inactive)
REMARK    1  A    between atoms: C_1  and  C_2
REMARK    2  A    between atoms: C_2  and  C_3
REMARK    3  A    between atoms: C_4  and  C_5
REMARK    4  A    between atoms: C_5  and  N_6
REMARK    5  A    between atoms: C_9  and  C_10
REMARK    6  A    between atoms: C_16  and  S_17
REMARK    7  A    between atoms: C_21  and  C_22
REMARK                            x       y       z     vdW  Elec       q    Type
REMARK                         _______ _______ _______ _____ _____    ______ ____
ROOT
ATOM      1  N   UNL     1      -1.452  12.959  19.483  0.00  0.00    +0.000 NA
ATOM      2  C   UNL     1      -1.061  13.148  20.921  0.00  0.00    +0.000 C 
ATOM      3  C   UNL     1      -0.633  11.853  21.599  0.00  0.00    +0.000 A 
ATOM      4  C   UNL     1      -1.242  11.331  22.761  0.00  0.00    +0.000 A 
ATOM      5  C   UNL     1      -1.106   9.981  23.121  0.00  0.00    +0.000 A 
ATOM      6  C   UNL     1      -0.333   9.098  22.355  0.00  0.00    +0.000 A 
ATOM      7  C   UNL     1       0.341   9.597  21.233  0.00  0.00    +0.000 A 
ATOM      8  N   UNL     1       1.073   8.938  20.278  0.00  0.00    +0.000 NA
ATOM      9  C   UNL     1       1.358   9.845  19.372  0.00  0.00    +0.000 A 
ATOM     10  N   UNL     1       0.911  11.078  19.731  0.00  0.00    +0.000 N 
ATOM     11  C   UNL     1       0.215  10.941  20.921  0.00  0.00    +0.000 A 
ATOM     12  C   UNL     1       1.043  12.347  19.056  0.00  0.00    +0.000 C 
ATOM     13  C   UNL     1      -0.301  12.925  18.555  0.00  0.00    +0.000 C 
ATOM     14  C   UNL     1      -0.037  14.381  18.119  0.00  0.00    +0.000 C 
ENDROOT
BRANCH   4  15
ATOM     15  C   UNL     1      -2.120  12.156  23.621  0.00  0.00    +0.000 C 
ATOM     16  O   UNL     1      -3.312  11.921  23.765  0.00  0.00    +0.000 OA
ENDBRANCH   4  15
BRANCH   9  17
ATOM     17  S   UNL     1       2.135   9.501  17.868  0.00  0.00    +0.000 S 
ATOM     18  H   UNL     1       3.275  10.151  18.134  0.00  0.00    +0.000 HD
ENDBRANCH   9  17
BRANCH   1  19
ATOM     19  C   UNL     1      -2.434  11.862  19.392  0.00  0.00    +0.000 C 
BRANCH  19  23
ATOM     20  C   UNL     1      -3.067   9.732  16.190  0.00  0.00    +0.000 C 
ATOM     21  C   UNL     1      -3.235  10.737  17.294  0.00  0.00    +0.000 C 
ATOM     22  C   UNL     1      -4.421  11.667  17.160  0.00  0.00    +0.000 C 
ATOM     23  C   UNL     1      -2.341  10.825  18.308  0.00  0.00    +0.000 C 
ENDBRANCH  19  23
ENDBRANCH   1  19
TORSDOF 4
ENDMDL
MODEL 2
REMARK VINA RESULT:      -5.4      2.091      2.853
REMARK  Name = 
REMARK  7 active torsions:
REMARK  status: ('A' for Active; 'I' for Inactive)
REMARK    1  A    between atoms: C_1  and  C_2
REMARK    2  A    between atoms: C_2  and  C_3
REMARK    3  A    between atoms: C_4  and  C_5
REMARK    4  A    between atoms: C_5  and  N_6
REMARK    5  A    between atoms: C_9  and  C_10
REMARK    6  A    between atoms: C_16  and  S_17
REMARK    7  A    between atoms: C_21  and  C_22
REMARK                            x       y       z     vdW  Elec       q    Type
REMARK                         _______ _______ _______ _____ _____    ______ ____
ROOT
ATOM      1  N   UNL     1      -0.887  12.862  19.080  0.00  0.00    +0.000 NA
ATOM      2  C   UNL     1      -1.126  13.985  20.049  0.00  0.00    +0.000 C 
ATOM      3  C   UNL     1      -1.646  13.509  21.399  0.00  0.00    +0.000 A 
ATOM      4  C   UNL     1      -2.860  13.943  21.975  0.00  0.00    +0.000 A 
ATOM      5  C   UNL     1      -3.496  13.212  22.991  0.00  0.00    +0.000 A 
ATOM      6  C   UNL     1      -2.935  12.032  23.498  0.00  0.00    +0.000 A 
ATOM      7  C   UNL     1      -1.699  11.608  22.997  0.00  0.00    +0.000 A 
ATOM      8  N   UNL     1      -0.990  10.460  23.251  0.00  0.00    +0.000 NA
ATOM      9  C   UNL     1       0.024  10.487  22.417  0.00  0.00    +0.000 A 
ATOM     10  N   UNL     1       0.049  11.634  21.687  0.00  0.00    +0.000 N 
ATOM     11  C   UNL     1      -1.077  12.367  22.018  0.00  0.00    +0.000 A 
ATOM     12  C   UNL     1       0.999  12.084  20.698  0.00  0.00    +0.000 C 
ATOM     13  C   UNL     1       0.410  12.179  19.271  0.00  0.00    +0.000 C 
ATOM     14  C   UNL     1       1.440  12.927  18.400  0.00  0.00    +0.000 C 
ENDROOT
BRANCH   4  15
ATOM     15  C   UNL     1      -3.570  15.147  21.488  0.00  0.00    +0.000 C 
ATOM     16  O   UNL     1      -4.514  15.089  20.712  0.00  0.00    +0.000 OA
ENDBRANCH   4  15
BRANCH   9  17
ATOM     17  S   UNL     1       1.143   9.188  22.211  0.00  0.00    +0.000 S 
ATOM     18  H   UNL     1       1.449   9.044  23.507  0.00  0.00    +0.000 HD
ENDBRANCH   9  17
BRANCH   1  19
ATOM     19  C   UNL     1      -2.097  12.021  19.012  0.00  0.00    +0.000 C 
BRANCH  19  23
ATOM     20  C   UNL     1      -3.020  10.219  15.682  0.00  0.00    +0.000 C 
ATOM     21  C   UNL     1      -2.325  10.588  16.961  0.00  0.00    +0.000 C 
ATOM     22  C   UNL     1      -1.214   9.659  17.398  0.00  0.00    +0.000 C 
ATOM     23  C   UNL     1      -2.719  11.660  17.692  0.00  0.00    +0.000 C 
ENDBRANCH  19  23
ENDBRANCH   1  19
TORSDOF 4
ENDMDL
MODEL 3
REMARK VINA RESULT:      -5.3      0.511      1.009
REMARK  Name = 
REMARK  7 active torsions:
REMARK  status: ('A' for Active; 'I' for Inactive)
REMARK    1  A    between atoms: C_1  and  C_2
REMARK    2  A    between atoms: C_2  and  C_3
REMARK    3  A    between atoms: C_4  and  C_5
REMARK    4  A    between atoms: C_5  and  N_6
REMARK    5  A    between atoms: C_9  and  C_10
REMARK    6  A    between atoms: C_16  and  S_17
REMARK    7  A    between atoms: C_21  and  C_22
REMARK                            x       y       z     vdW  Elec       q    Type
REMARK                         _______ _______ _______ _____ _____    ______ ____
ROOT
ATOM      1  N   UNL     1      -1.472  12.831  19.422  0.00  0.00    +0.000 NA
ATOM      2  C   UNL     1      -1.056  13.064  20.846  0.00  0.00    +0.000 C 
ATOM      3  C   UNL     1      -0.624  11.788  21.558  0.00  0.00    +0.000 A 
ATOM      4  C   UNL     1      -1.216  11.308  22.747  0.00  0.00    +0.000 A 
ATOM      5  C   UNL     1      -1.082   9.969  23.148  0.00  0.00    +0.000 A 
ATOM      6  C   UNL     1      -0.328   9.057  22.397  0.00  0.00    +0.000 A 
ATOM      7  C   UNL     1       0.329   9.515  21.249  0.00  0.00    +0.000 A 
ATOM      8  N   UNL     1       1.040   8.820  20.303  0.00  0.00    +0.000 NA
ATOM      9  C   UNL     1       1.316   9.695  19.364  0.00  0.00    +0.000 A 
ATOM     10  N   UNL     1       0.882  10.942  19.690  0.00  0.00    +0.000 N 
ATOM     11  C   UNL     1       0.207  10.849  20.895  0.00  0.00    +0.000 A 
ATOM     12  C   UNL     1       1.011  12.188  18.972  0.00  0.00    +0.000 C 
ATOM     13  C   UNL     1      -0.337  12.760  18.476  0.00  0.00    +0.000 C 
ATOM     14  C   UNL     1      -0.072  14.198  17.989  0.00  0.00    +0.000 C 
ENDROOT
BRANCH   4  15
ATOM     15  C   UNL     1      -2.074  12.166  23.595  0.00  0.00    +0.000 C 
ATOM     16  O   UNL     1      -3.262  11.938  23.776  0.00  0.00    +0.000 OA
ENDBRANCH   4  15
BRANCH   9  17
ATOM     17  S   UNL     1       2.064   9.298  17.858  0.00  0.00    +0.000 S 
ATOM     18  H   UNL     1       1.767  10.445  17.234  0.00  0.00    +0.000 HD
ENDBRANCH   9  17
BRANCH   1  19
ATOM     19  C   UNL     1      -2.462  11.738  19.383  0.00  0.00    +0.000 C 
BRANCH  19  23
ATOM     20  C   UNL     1      -5.854  11.881  17.469  0.00  0.00    +0.000 C 
ATOM     21  C   UNL     1      -4.401  11.670  17.788  0.00  0.00    +0.000 C 
ATOM     22  C   UNL     1      -3.577  11.019  16.699  0.00  0.00    +0.000 C 
ATOM     23  C   UNL     1      -3.892  11.999  19.000  0.00  0.00    +0.000 C 
ENDBRANCH  19  23
ENDBRANCH   1  19
TORSDOF 4
ENDMDL
MODEL 4
REMARK VINA RESULT:      -5.2      2.142      4.502
REMARK  Name = 
REMARK  7 active torsions:
REMARK  status: ('A' for Active; 'I' for Inactive)
REMARK    1  A    between atoms: C_1  and  C_2
REMARK    2  A    between atoms: C_2  and  C_3
REMARK    3  A    between atoms: C_4  and  C_5
REMARK    4  A    between atoms: C_5  and  N_6
REMARK    5  A    between atoms: C_9  and  C_10
REMARK    6  A    between atoms: C_16  and  S_17
REMARK    7  A    between atoms: C_21  and  C_22
REMARK                            x       y       z     vdW  Elec       q    Type
REMARK                         _______ _______ _______ _____ _____    ______ ____
ROOT
ATOM      1  N   UNL     1       1.062  11.234  18.965  0.00  0.00    +0.000 NA
ATOM      2  C   UNL     1       0.382  10.844  20.247  0.00  0.00    +0.000 C 
ATOM      3  C   UNL     1      -1.070  11.300  20.316  0.00  0.00    +0.000 A 
ATOM      4  C   UNL     1      -1.589  12.129  21.334  0.00  0.00    +0.000 A 
ATOM      5  C   UNL     1      -2.786  12.843  21.164  0.00  0.00    +0.000 A 
ATOM      6  C   UNL     1      -3.533  12.740  19.982  0.00  0.00    +0.000 A 
ATOM      7  C   UNL     1      -3.082  11.874  18.978  0.00  0.00    +0.000 A 
ATOM      8  N   UNL     1      -3.567  11.664  17.711  0.00  0.00    +0.000 NA
ATOM      9  C   UNL     1      -2.697  10.867  17.134  0.00  0.00    +0.000 A 
ATOM     10  N   UNL     1      -1.710  10.490  17.991  0.00  0.00    +0.000 N 
ATOM     11  C   UNL     1      -1.915  11.156  19.187  0.00  0.00    +0.000 A 
ATOM     12  C   UNL     1      -0.590   9.602  17.784  0.00  0.00    +0.000 C 
ATOM     13  C   UNL     1       0.782  10.313  17.842  0.00  0.00    +0.000 C 
ATOM     14  C   UNL     1       1.863   9.215  17.887  0.00  0.00    +0.000 C 
ENDROOT
BRANCH   4  15
ATOM     15  C   UNL     1      -0.864  12.353  22.606  0.00  0.00    +0.000 C 
ATOM     16  O   UNL     1      -0.670  11.462  23.421  0.00  0.00    +0.000 OA
ENDBRANCH   4  15
BRANCH   9  17
ATOM     17  S   UNL     1      -2.751  10.418  15.468  0.00  0.00    +0.000 S 
ATOM     18  H   UNL     1      -2.590   9.102  15.660  0.00  0.00    +0.000 HD
ENDBRANCH   9  17
BRANCH   1  19
ATOM     19  C   UNL     1       0.856  12.676  18.732  0.00  0.00    +0.000 C 
BRANCH  19  23
ATOM     20  C   UNL     1       1.458  15.827  20.945  0.00  0.00    +0.000 C 
ATOM     21  C   UNL     1       0.842  14.858  19.976  0.00  0.00    +0.000 C 
ATOM     22  C   UNL     1      -0.530  15.229  19.459  0.00  0.00    +0.000 C 
ATOM     23  C   UNL     1       1.469  13.704  19.640  0.00  0.00    +0.000 C 
ENDBRANCH  19  23
ENDBRANCH   1  19
TORSDOF 4
ENDMDL
MODEL 5
REMARK VINA RESULT:      -5.2      2.938      4.855
REMARK  Name = 
REMARK  7 active torsions:
REMARK  status: ('A' for Active; 'I' for Inactive)
REMARK    1  A    between atoms: C_1  and  C_2
REMARK    2  A    between atoms: C_2  and  C_3
REMARK    3  A    between atoms: C_4  and  C_5
REMARK    4  A    between atoms: C_5  and  N_6
REMARK    5  A    between atoms: C_9  and  C_10
REMARK    6  A    between atoms: C_16  and  S_17
REMARK    7  A    between atoms: C_21  and  C_22
REMARK                            x       y       z     vdW  Elec       q    Type
REMARK                         _______ _______ _______ _____ _____    ______ ____
ROOT
ATOM      1  N   UNL     1      -0.172  10.289  19.763  0.00  0.00    +0.000 NA
ATOM      2  C   UNL     1       1.059  11.149  19.803  0.00  0.00    +0.000 C 
ATOM      3  C   UNL     1       0.750  12.625  20.022  0.00  0.00    +0.000 A 
ATOM      4  C   UNL     1       1.144  13.654  19.140  0.00  0.00    +0.000 A 
ATOM      5  C   UNL     1       0.521  14.912  19.150  0.00  0.00    +0.000 A 
ATOM      6  C   UNL     1      -0.502  15.210  20.061  0.00  0.00    +0.000 A 
ATOM      7  C   UNL     1      -0.872  14.235  20.996  0.00  0.00    +0.000 A 
ATOM      8  N   UNL     1      -1.888  14.238  21.918  0.00  0.00    +0.000 NA
ATOM      9  C   UNL     1      -1.890  13.031  22.436  0.00  0.00    +0.000 A 
ATOM     10  N   UNL     1      -0.875  12.269  21.947  0.00  0.00    +0.000 N 
ATOM     11  C   UNL     1      -0.217  13.014  20.984  0.00  0.00    +0.000 A 
ATOM     12  C   UNL     1      -0.492  10.915  22.271  0.00  0.00    +0.000 C 
ATOM     13  C   UNL     1      -0.682   9.921  21.102  0.00  0.00    +0.000 C 
ATOM     14  C   UNL     1       0.020   8.608  21.500  0.00  0.00    +0.000 C 
ENDROOT
BRANCH   4  15
ATOM     15  C   UNL     1       2.179  13.441  18.103  0.00  0.00    +0.000 C 
ATOM     16  O   UNL     1       3.348  13.764  18.261  0.00  0.00    +0.000 OA
ENDBRANCH   4  15
BRANCH   9  17
ATOM     17  S   UNL     1      -3.085  12.452  23.540  0.00  0.00    +0.000 S 
ATOM     18  H   UNL     1      -3.325  11.295  22.911  0.00  0.00    +0.000 HD
ENDBRANCH   9  17
BRANCH   1  19
ATOM     19  C   UNL     1      -1.132  10.868  18.803  0.00  0.00    +0.000 C 
BRANCH  19  23
ATOM     20  C   UNL     1      -2.854   9.714  15.503  0.00  0.00    +0.000 C 
ATOM     21  C   UNL     1      -2.606  10.371  16.831  0.00  0.00    +0.000 C 
ATOM     22  C   UNL     1      -3.697  11.299  17.319  0.00  0.00    +0.000 C 
ATOM     23  C   UNL     1      -1.448  10.174  17.508  0.00  0.00    +0.000 C 
ENDBRANCH  19  23
ENDBRANCH   1  19
TORSDOF 4
ENDMDL
MODEL 6
REMARK VINA RESULT:      -5.2      2.190      4.639
REMARK  Name = 
REMARK  7 active torsions:
REMARK  status: ('A' for Active; 'I' for Inactive)
REMARK    1  A    between atoms: C_1  and  C_2
REMARK    2  A    between atoms: C_2  and  C_3
REMARK    3  A    between atoms: C_4  and  C_5
REMARK    4  A    between atoms: C_5  and  N_6
REMARK    5  A    between atoms: C_9  and  C_10
REMARK    6  A    between atoms: C_16  and  S_17
REMARK    7  A    between atoms: C_21  and  C_22
REMARK                            x       y       z     vdW  Elec       q    Type
REMARK                         _______ _______ _______ _____ _____    ______ ____
ROOT
ATOM      1  N   UNL     1       1.133  11.000  18.984  0.00  0.00    +0.000 NA
ATOM      2  C   UNL     1       0.426  10.626  20.255  0.00  0.00    +0.000 C 
ATOM      3  C   UNL     1      -1.002  11.153  20.322  0.00  0.00    +0.000 A 
ATOM      4  C   UNL     1      -1.486  11.992  21.349  0.00  0.00    +0.000 A 
ATOM      5  C   UNL     1      -2.645  12.768  21.182  0.00  0.00    +0.000 A 
ATOM      6  C   UNL     1      -3.387  12.720  19.993  0.00  0.00    +0.000 A 
ATOM      7  C   UNL     1      -2.973  11.848  18.979  0.00  0.00    +0.000 A 
ATOM      8  N   UNL     1      -3.458  11.682  17.706  0.00  0.00    +0.000 NA
ATOM      9  C   UNL     1      -2.625  10.851  17.123  0.00  0.00    +0.000 A 
ATOM     10  N   UNL     1      -1.665  10.412  17.980  0.00  0.00    +0.000 N 
ATOM     11  C   UNL     1      -1.845  11.069  19.185  0.00  0.00    +0.000 A 
ATOM     12  C   UNL     1      -0.589   9.472  17.767  0.00  0.00    +0.000 C 
ATOM     13  C   UNL     1       0.816  10.112  17.845  0.00  0.00    +0.000 C 
ATOM     14  C   UNL     1       1.841   8.960  17.880  0.00  0.00    +0.000 C 
ENDROOT
BRANCH   4  15
ATOM     15  C   UNL     1      -0.761  12.160  22.629  0.00  0.00    +0.000 C 
ATOM     16  O   UNL     1      -0.581  11.238  23.412  0.00  0.00    +0.000 OA
ENDBRANCH   4  15
BRANCH   9  17
ATOM     17  S   UNL     1      -2.689  10.430  15.449  0.00  0.00    +0.000 S 
ATOM     18  H   UNL     1      -3.521  11.412  15.078  0.00  0.00    +0.000 HD
ENDBRANCH   9  17
BRANCH   1  19
ATOM     19  C   UNL     1       1.003  12.454  18.772  0.00  0.00    +0.000 C 
BRANCH  19  23
ATOM     20  C   UNL     1       3.506  15.276  17.792  0.00  0.00    +0.000 C 
ATOM     21  C   UNL     1       2.354  14.542  18.417  0.00  0.00    +0.000 C 
ATOM     22  C   UNL     1       1.550  15.323  19.434  0.00  0.00    +0.000 C 
ATOM     23  C   UNL     1       2.100  13.245  18.116  0.00  0.00    +0.000 C 
ENDBRANCH  19  23
ENDBRANCH   1  19
TORSDOF 4
ENDMDL
MODEL 7
REMARK VINA RESULT:      -5.2      8.542     10.077
REMARK  Name = 
REMARK  7 active torsions:
REMARK  status: ('A' for Active; 'I' for Inactive)
REMARK    1  A    between atoms: C_1  and  C_2
REMARK    2  A    between atoms: C_2  and  C_3
REMARK    3  A    between atoms: C_4  and  C_5
REMARK    4  A    between atoms: C_5  and  N_6
REMARK    5  A    between atoms: C_9  and  C_10
REMARK    6  A    between atoms: C_16  and  S_17
REMARK    7  A    between atoms: C_21  and  C_22
REMARK                            x       y       z     vdW  Elec       q    Type
REMARK                         _______ _______ _______ _____ _____    ______ ____
ROOT
ATOM      1  N   UNL     1       8.152  15.713  18.971  0.00  0.00    +0.000 NA
ATOM      2  C   UNL     1       8.440  15.538  20.435  0.00  0.00    +0.000 C 
ATOM      3  C   UNL     1       9.041  14.179  20.768  0.00  0.00    +0.000 A 
ATOM      4  C   UNL     1       8.472  13.266  21.683  0.00  0.00    +0.000 A 
ATOM      5  C   UNL     1       8.809  11.903  21.670  0.00  0.00    +0.000 A 
ATOM      6  C   UNL     1       9.750  11.395  20.763  0.00  0.00    +0.000 A 
ATOM      7  C   UNL     1      10.384  12.284  19.887  0.00  0.00    +0.000 A 
ATOM      8  N   UNL     1      11.258  12.035  18.858  0.00  0.00    +0.000 NA
ATOM      9  C   UNL     1      11.433  13.193  18.264  0.00  0.00    +0.000 A 
ATOM     10  N   UNL     1      10.775  14.196  18.906  0.00  0.00    +0.000 N 
ATOM     11  C   UNL     1      10.057  13.629  19.945  0.00  0.00    +0.000 A 
ATOM     12  C   UNL     1      10.731  15.610  18.619  0.00  0.00    +0.000 C 
ATOM     13  C   UNL     1       9.335  16.109  18.177  0.00  0.00    +0.000 C 
ATOM     14  C   UNL     1       9.379  17.650  18.182  0.00  0.00    +0.000 C 
ENDROOT
BRANCH   4  15
ATOM     15  C   UNL     1       7.433  13.677  22.653  0.00  0.00    +0.000 C 
ATOM     16  O   UNL     1       6.382  13.066  22.794  0.00  0.00    +0.000 OA
ENDBRANCH   4  15
BRANCH   9  17
ATOM     17  S   UNL     1      12.324  13.407  16.800  0.00  0.00    +0.000 S 
ATOM     18  H   UNL     1      12.269  12.129  16.402  0.00  0.00    +0.000 HD
ENDBRANCH   9  17
BRANCH   1  19
ATOM     19  C   UNL     1       7.367  14.558  18.495  0.00  0.00    +0.000 C 
BRANCH  19  23
ATOM     20  C   UNL     1       3.603  15.189  17.706  0.00  0.00    +0.000 C 
ATOM     21  C   UNL     1       4.883  14.928  18.448  0.00  0.00    +0.000 C 
ATOM     22  C   UNL     1       4.782  14.940  19.957  0.00  0.00    +0.000 C 
ATOM     23  C   UNL     1       6.054  14.750  17.789  0.00  0.00    +0.000 C 
ENDBRANCH  19  23
ENDBRANCH   1  19
TORSDOF 4
ENDMDL
MODEL 8
REMARK VINA RESULT:      -5.2      9.651     11.476
REMARK  Name = 
REMARK  7 active torsions:
REMARK  status: ('A' for Active; 'I' for Inactive)
REMARK    1  A    between atoms: C_1  and  C_2
REMARK    2  A    between atoms: C_2  and  C_3
REMARK    3  A    between atoms: C_4  and  C_5
REMARK    4  A    between atoms: C_5  and  N_6
REMARK    5  A    between atoms: C_9  and  C_10
REMARK    6  A    between atoms: C_16  and  S_17
REMARK    7  A    between atoms: C_21  and  C_22
REMARK                            x       y       z     vdW  Elec       q    Type
REMARK                         _______ _______ _______ _____ _____    ______ ____
ROOT
ATOM      1  N   UNL     1       8.624  14.116  21.972  0.00  0.00    +0.000 NA
ATOM      2  C   UNL     1       9.549  12.967  21.685  0.00  0.00    +0.000 C 
ATOM      3  C   UNL     1      10.067  12.961  20.253  0.00  0.00    +0.000 A 
ATOM      4  C   UNL     1       9.895  11.885  19.355  0.00  0.00    +0.000 A 
ATOM      5  C   UNL     1      10.019  12.057  17.967  0.00  0.00    +0.000 A 
ATOM      6  C   UNL     1      10.348  13.302  17.414  0.00  0.00    +0.000 A 
ATOM      7  C   UNL     1      10.592  14.376  18.279  0.00  0.00    +0.000 A 
ATOM      8  N   UNL     1      10.836  15.697  17.999  0.00  0.00    +0.000 NA
ATOM      9  C   UNL     1      10.847  16.303  19.164  0.00  0.00    +0.000 A 
ATOM     10  N   UNL     1      10.698  15.425  20.192  0.00  0.00    +0.000 N 
ATOM     11  C   UNL     1      10.496  14.169  19.646  0.00  0.00    +0.000 A 
ATOM     12  C   UNL     1      10.694  15.657  21.617  0.00  0.00    +0.000 C 
ATOM     13  C   UNL     1       9.327  15.379  22.286  0.00  0.00    +0.000 C 
ATOM     14  C   UNL     1       9.553  15.396  23.811  0.00  0.00    +0.000 C 
ENDROOT
BRANCH   4  15
ATOM     15  C   UNL     1       9.498  10.536  19.818  0.00  0.00    +0.000 C 
ATOM     16  O   UNL     1       9.029   9.692  19.067  0.00  0.00    +0.000 OA
ENDBRANCH   4  15
BRANCH   9  17
ATOM     17  S   UNL     1      10.955  18.015  19.365  0.00  0.00    +0.000 S 
ATOM     18  H   UNL     1       9.693  18.289  19.009  0.00  0.00    +0.000 HD
ENDBRANCH   9  17
BRANCH   1  19
ATOM     19  C   UNL     1       7.575  14.159  20.936  0.00  0.00    +0.000 C 
BRANCH  19  23
ATOM     20  C   UNL     1       6.078  17.009  18.739  0.00  0.00    +0.000 C 
ATOM     21  C   UNL     1       6.715  15.716  19.162  0.00  0.00    +0.000 C 
ATOM     22  C   UNL     1       6.951  14.708  18.059  0.00  0.00    +0.000 C 
ATOM     23  C   UNL     1       7.004  15.466  20.463  0.00  0.00    +0.000 C 
ENDBRANCH  19  23
ENDBRANCH   1  19
TORSDOF 4
ENDMDL
MODEL 9
REMARK VINA RESULT:      -5.1      9.705     11.457
REMARK  Name = 
REMARK  7 active torsions:
REMARK  status: ('A' for Active; 'I' for Inactive)
REMARK    1  A    between atoms: C_1  and  C_2
REMARK    2  A    between atoms: C_2  and  C_3
REMARK    3  A    between atoms: C_4  and  C_5
REMARK    4  A    between atoms: C_5  and  N_6
REMARK    5  A    between atoms: C_9  and  C_10
REMARK    6  A    between atoms: C_16  and  S_17
REMARK    7  A    between atoms: C_21  and  C_22
REMARK                            x       y       z     vdW  Elec       q    Type
REMARK                         _______ _______ _______ _____ _____    ______ ____
ROOT
ATOM      1  N   UNL     1      10.454  14.586  17.955  0.00  0.00    +0.000 NA
ATOM      2  C   UNL     1      11.305  14.914  19.148  0.00  0.00    +0.000 C 
ATOM      3  C   UNL     1      10.753  14.346  20.450  0.00  0.00    +0.000 A 
ATOM      4  C   UNL     1      10.434  15.130  21.580  0.00  0.00    +0.000 A 
ATOM      5  C   UNL     1       9.576  14.656  22.587  0.00  0.00    +0.000 A 
ATOM      6  C   UNL     1       9.023  13.369  22.525  0.00  0.00    +0.000 A 
ATOM      7  C   UNL     1       9.372  12.541  21.451  0.00  0.00    +0.000 A 
ATOM      8  N   UNL     1       8.906  11.295  21.111  0.00  0.00    +0.000 NA
ATOM      9  C   UNL     1       9.447  11.030  19.944  0.00  0.00    +0.000 A 
ATOM     10  N   UNL     1      10.301  12.012  19.546  0.00  0.00    +0.000 N 
ATOM     11  C   UNL     1      10.247  13.022  20.491  0.00  0.00    +0.000 A 
ATOM     12  C   UNL     1      11.125  12.103  18.364  0.00  0.00    +0.000 C 
ATOM     13  C   UNL     1      10.703  13.237  17.401  0.00  0.00    +0.000 C 
ATOM     14  C   UNL     1      11.823  13.387  16.353  0.00  0.00    +0.000 C 
ENDROOT
BRANCH   4  15
ATOM     15  C   UNL     1      10.920  16.520  21.731  0.00  0.00    +0.000 C 
ATOM     16  O   UNL     1      10.358  17.342  22.442  0.00  0.00    +0.000 OA
ENDBRANCH   4  15
BRANCH   9  17
ATOM     17  S   UNL     1       9.059   9.645  18.988  0.00  0.00    +0.000 S 
ATOM     18  H   UNL     1       7.980   9.274  19.690  0.00  0.00    +0.000 HD
ENDBRANCH   9  17
BRANCH   1  19
ATOM     19  C   UNL     1       9.055  14.956  18.246  0.00  0.00    +0.000 C 
BRANCH  19  23
ATOM     20  C   UNL     1       7.443  18.022  20.032  0.00  0.00    +0.000 C 
ATOM     21  C   UNL     1       7.724  16.617  19.580  0.00  0.00    +0.000 C 
ATOM     22  C   UNL     1       6.904  15.535  20.247  0.00  0.00    +0.000 C 
ATOM     23  C   UNL     1       8.694  16.351  18.670  0.00  0.00    +0.000 C 
ENDBRANCH  19  23
ENDBRANCH   1  19
TORSDOF 4
ENDMDL
