MODEL 1
REMARK VINA RESULT:      -7.2      0.000      0.000
REMARK  Name = 
REMARK  4 active torsions:
REMARK  status: ('A' for Active; 'I' for Inactive)
REMARK    1  A    between atoms: N_3  and  C_4
REMARK    2  A    between atoms: C_7  and  O_8
REMARK    3  A    between atoms: O_8  and  C_9
REMARK    4  A    between atoms: C_9  and  C_10
REMARK                            x       y       z     vdW  Elec       q    Type
REMARK                         _______ _______ _______ _____ _____    ______ ____
ROOT
ATOM      1  C   UNL     1       9.539  12.626  18.700  0.00  0.00    +0.000 A 
ATOM      2  C   UNL     1       8.656  12.121  17.738  0.00  0.00    +0.000 A 
ATOM      3  C   UNL     1       8.260  10.777  17.732  0.00  0.00    +0.000 A 
ATOM      4  C   UNL     1       8.795   9.881  18.651  0.00  0.00    +0.000 A 
ATOM      5  C   UNL     1       9.618  10.366  19.657  0.00  0.00    +0.000 A 
ATOM      6  C   UNL     1       9.964  11.724  19.692  0.00  0.00    +0.000 A 
ENDROOT
BRANCH   1   9
ATOM      7  S   UNL     1      12.328  13.664  17.116  0.00  0.00    +0.000 S 
ATOM      8  C   UNL     1      11.206  14.455  18.080  0.00  0.00    +0.000 A 
ATOM      9  N   UNL     1      10.005  13.986  18.668  0.00  0.00    +0.000 N 
ATOM     10  C   UNL     1       9.340  15.090  19.251  0.00  0.00    +0.000 A 
ATOM     11  S   UNL     1       8.050  15.137  20.323  0.00  0.00    +0.000 S 
ATOM     12  N   UNL     1      10.042  16.247  18.851  0.00  0.00    +0.000 N 
ATOM     13  N   UNL     1      11.297  15.836  18.382  0.00  0.00    +0.000 N 
ATOM     14  C   UNL     1      12.119  16.826  17.695  0.00  0.00    +0.000 C 
ATOM     15  C   UNL     1      12.091  18.191  18.369  0.00  0.00    +0.000 C 
ATOM     16  C   UNL     1      10.651  18.624  18.590  0.00  0.00    +0.000 C 
ATOM     17  C   UNL     1       9.940  17.579  19.434  0.00  0.00    +0.000 C 
ENDBRANCH   1   9
BRANCH   4  18
ATOM     18  O   UNL     1       8.584   8.529  18.641  0.00  0.00    +0.000 OA
BRANCH  18  19
ATOM     19  C   UNL     1       7.991   8.031  17.439  0.00  0.00    +0.000 C 
BRANCH  19  20
ATOM     20  C   UNL     1       6.963   6.977  17.767  0.00  0.00    +0.000 A 
ATOM     21  C   UNL     1       5.750   6.919  17.068  0.00  0.00    +0.000 A 
ATOM     22  C   UNL     1       4.816   5.923  17.354  0.00  0.00    +0.000 A 
ATOM     23  C   UNL     1       5.092   4.978  18.342  0.00  0.00    +0.000 A 
ATOM     24 CL   UNL     1       3.942   3.747  18.691  0.00  0.00    +0.000 Cl
ATOM     25  C   UNL     1       6.290   5.026  19.048  0.00  0.00    +0.000 A 
ATOM     26  C   UNL     1       7.223   6.024  18.763  0.00  0.00    +0.000 A 
ENDBRANCH  19  20
ENDBRANCH  18  19
ENDBRANCH   4  18
TORSDOF 4
ENDMDL
MODEL 2
REMARK VINA RESULT:      -7.1      0.429      2.195
REMARK  Name = 
REMARK  4 active torsions:
REMARK  status: ('A' for Active; 'I' for Inactive)
REMARK    1  A    between atoms: N_3  and  C_4
REMARK    2  A    between atoms: C_7  and  O_8
REMARK    3  A    between atoms: O_8  and  C_9
REMARK    4  A    between atoms: C_9  and  C_10
REMARK                            x       y       z     vdW  Elec       q    Type
REMARK                         _______ _______ _______ _____ _____    ______ ____
ROOT
ATOM      1  C   UNL     1       9.550  12.657  18.939  0.00  0.00    +0.000 A 
ATOM      2  C   UNL     1       8.817  12.189  17.842  0.00  0.00    +0.000 A 
ATOM      3  C   UNL     1       8.431  10.847  17.731  0.00  0.00    +0.000 A 
ATOM      4  C   UNL     1       8.830   9.917  18.685  0.00  0.00    +0.000 A 
ATOM      5  C   UNL     1       9.496  10.365  19.817  0.00  0.00    +0.000 A 
ATOM      6  C   UNL     1       9.829  11.720  19.950  0.00  0.00    +0.000 A 
ENDROOT
BRANCH   1   9
ATOM      7  S   UNL     1       7.961  15.126  20.597  0.00  0.00    +0.000 S 
ATOM      8  C   UNL     1       9.341  15.100  19.644  0.00  0.00    +0.000 A 
ATOM      9  N   UNL     1      10.011  14.016  19.024  0.00  0.00    +0.000 N 
ATOM     10  C   UNL     1      11.218  14.505  18.470  0.00  0.00    +0.000 A 
ATOM     11  S   UNL     1      12.278  13.792  17.382  0.00  0.00    +0.000 S 
ATOM     12  N   UNL     1      11.365  15.834  18.919  0.00  0.00    +0.000 N 
ATOM     13  N   UNL     1      10.116  16.259  19.391  0.00  0.00    +0.000 N 
ATOM     14  C   UNL     1      10.063  17.520  20.123  0.00  0.00    +0.000 C 
ATOM     15  C   UNL     1      10.926  18.606  19.496  0.00  0.00    +0.000 C 
ATOM     16  C   UNL     1      12.332  18.077  19.269  0.00  0.00    +0.000 C 
ATOM     17  C   UNL     1      12.265  16.846  18.380  0.00  0.00    +0.000 C 
ENDBRANCH   1   9
BRANCH   4  18
ATOM     18  O   UNL     1       8.627   8.567  18.597  0.00  0.00    +0.000 OA
BRANCH  18  19
ATOM     19  C   UNL     1       7.932   8.148  17.420  0.00  0.00    +0.000 C 
BRANCH  19  20
ATOM     20  C   UNL     1       7.045   6.969  17.734  0.00  0.00    +0.000 A 
ATOM     21  C   UNL     1       7.357   6.100  18.787  0.00  0.00    +0.000 A 
ATOM     22  C   UNL     1       6.516   5.028  19.092  0.00  0.00    +0.000 A 
ATOM     23  C   UNL     1       5.357   4.823  18.344  0.00  0.00    +0.000 A 
ATOM     24 CL   UNL     1       4.318   3.507  18.724  0.00  0.00    +0.000 Cl
ATOM     25  C   UNL     1       5.036   5.676  17.292  0.00  0.00    +0.000 A 
ATOM     26  C   UNL     1       5.878   6.746  16.986  0.00  0.00    +0.000 A 
ENDBRANCH  19  20
ENDBRANCH  18  19
ENDBRANCH   4  18
TORSDOF 4
ENDMDL
MODEL 3
REMARK VINA RESULT:      -7.0      8.821     10.742
REMARK  Name = 
REMARK  4 active torsions:
REMARK  status: ('A' for Active; 'I' for Inactive)
REMARK    1  A    between atoms: N_3  and  C_4
REMARK    2  A    between atoms: C_7  and  O_8
REMARK    3  A    between atoms: O_8  and  C_9
REMARK    4  A    between atoms: C_9  and  C_10
REMARK                            x       y       z     vdW  Elec       q    Type
REMARK                         _______ _______ _______ _____ _____    ______ ____
ROOT
ATOM      1  C   UNL     1      -0.333  10.307  19.267  0.00  0.00    +0.000 A 
ATOM      2  C   UNL     1       0.108   9.488  20.313  0.00  0.00    +0.000 A 
ATOM      3  C   UNL     1       1.258   8.697  20.197  0.00  0.00    +0.000 A 
ATOM      4  C   UNL     1       1.963   8.649  19.000  0.00  0.00    +0.000 A 
ATOM      5  C   UNL     1       1.589   9.501  17.970  0.00  0.00    +0.000 A 
ATOM      6  C   UNL     1       0.471  10.334  18.114  0.00  0.00    +0.000 A 
ENDROOT
BRANCH   1   9
ATOM      7  S   UNL     1      -3.039   9.824  17.316  0.00  0.00    +0.000 S 
ATOM      8  C   UNL     1      -2.683  10.947  18.508  0.00  0.00    +0.000 A 
ATOM      9  N   UNL     1      -1.552  11.065  19.354  0.00  0.00    +0.000 N 
ATOM     10  C   UNL     1      -1.812  12.086  20.298  0.00  0.00    +0.000 A 
ATOM     11  S   UNL     1      -0.775  12.879  21.352  0.00  0.00    +0.000 S 
ATOM     12  N   UNL     1      -3.167  12.450  20.142  0.00  0.00    +0.000 N 
ATOM     13  N   UNL     1      -3.594  11.959  18.902  0.00  0.00    +0.000 N 
ATOM     14  C   UNL     1      -5.024  12.004  18.613  0.00  0.00    +0.000 C 
ATOM     15  C   UNL     1      -5.677  13.305  19.059  0.00  0.00    +0.000 C 
ATOM     16  C   UNL     1      -5.327  13.583  20.511  0.00  0.00    +0.000 C 
ATOM     17  C   UNL     1      -3.816  13.650  20.656  0.00  0.00    +0.000 C 
ENDBRANCH   1   9
BRANCH   4  18
ATOM     18  O   UNL     1       3.009   7.807  18.739  0.00  0.00    +0.000 OA
BRANCH  18  19
ATOM     19  C   UNL     1       2.636   6.439  18.555  0.00  0.00    +0.000 C 
BRANCH  19  20
ATOM     20  C   UNL     1       3.583   5.768  17.593  0.00  0.00    +0.000 A 
ATOM     21  C   UNL     1       3.576   4.376  17.436  0.00  0.00    +0.000 A 
ATOM     22  C   UNL     1       4.433   3.763  16.520  0.00  0.00    +0.000 A 
ATOM     23  C   UNL     1       5.302   4.542  15.757  0.00  0.00    +0.000 A 
ATOM     24 CL   UNL     1       6.354   3.787  14.625  0.00  0.00    +0.000 Cl
ATOM     25  C   UNL     1       5.324   5.925  15.905  0.00  0.00    +0.000 A 
ATOM     26  C   UNL     1       4.468   6.538  16.822  0.00  0.00    +0.000 A 
ENDBRANCH  19  20
ENDBRANCH  18  19
ENDBRANCH   4  18
TORSDOF 4
ENDMDL
MODEL 4
REMARK VINA RESULT:      -6.8      9.027     10.837
REMARK  Name = 
REMARK  4 active torsions:
REMARK  status: ('A' for Active; 'I' for Inactive)
REMARK    1  A    between atoms: N_3  and  C_4
REMARK    2  A    between atoms: C_7  and  O_8
REMARK    3  A    between atoms: O_8  and  C_9
REMARK    4  A    between atoms: C_9  and  C_10
REMARK                            x       y       z     vdW  Elec       q    Type
REMARK                         _______ _______ _______ _____ _____    ______ ____
ROOT
ATOM      1  C   UNL     1      -0.537  10.437  19.597  0.00  0.00    +0.000 A 
ATOM      2  C   UNL     1      -0.165   9.602  20.657  0.00  0.00    +0.000 A 
ATOM      3  C   UNL     1       0.949   8.757  20.575  0.00  0.00    +0.000 A 
ATOM      4  C   UNL     1       1.685   8.672  19.399  0.00  0.00    +0.000 A 
ATOM      5  C   UNL     1       1.382   9.537  18.357  0.00  0.00    +0.000 A 
ATOM      6  C   UNL     1       0.300  10.422  18.467  0.00  0.00    +0.000 A 
ENDROOT
BRANCH   1   9
ATOM      7  S   UNL     1      -3.255  10.000  17.651  0.00  0.00    +0.000 S 
ATOM      8  C   UNL     1      -2.853  11.152  18.800  0.00  0.00    +0.000 A 
ATOM      9  N   UNL     1      -1.720  11.252  19.647  0.00  0.00    +0.000 N 
ATOM     10  C   UNL     1      -1.938  12.320  20.548  0.00  0.00    +0.000 A 
ATOM     11  S   UNL     1      -0.870  13.107  21.576  0.00  0.00    +0.000 S 
ATOM     12  N   UNL     1      -3.274  12.738  20.372  0.00  0.00    +0.000 N 
ATOM     13  N   UNL     1      -3.718  12.218  19.149  0.00  0.00    +0.000 N 
ATOM     14  C   UNL     1      -5.144  12.317  18.851  0.00  0.00    +0.000 C 
ATOM     15  C   UNL     1      -5.740  13.662  19.242  0.00  0.00    +0.000 C 
ATOM     16  C   UNL     1      -5.382  13.982  20.683  0.00  0.00    +0.000 C 
ATOM     17  C   UNL     1      -3.870  13.986  20.834  0.00  0.00    +0.000 C 
ENDBRANCH   1   9
BRANCH   4  18
ATOM     18  O   UNL     1       2.697   7.781  19.169  0.00  0.00    +0.000 OA
BRANCH  18  19
ATOM     19  C   UNL     1       2.719   7.237  17.847  0.00  0.00    +0.000 C 
BRANCH  19  20
ATOM     20  C   UNL     1       2.951   5.748  17.901  0.00  0.00    +0.000 A 
ATOM     21  C   UNL     1       4.241   5.220  17.765  0.00  0.00    +0.000 A 
ATOM     22  C   UNL     1       4.454   3.843  17.848  0.00  0.00    +0.000 A 
ATOM     23  C   UNL     1       3.374   2.988  18.068  0.00  0.00    +0.000 A 
ATOM     24 CL   UNL     1       3.637   1.292  18.175  0.00  0.00    +0.000 Cl
ATOM     25  C   UNL     1       2.086   3.498  18.201  0.00  0.00    +0.000 A 
ATOM     26  C   UNL     1       1.873   4.874  18.116  0.00  0.00    +0.000 A 
ENDBRANCH  19  20
ENDBRANCH  18  19
ENDBRANCH   4  18
TORSDOF 4
ENDMDL
MODEL 5
REMARK VINA RESULT:      -6.8      8.904     10.875
REMARK  Name = 
REMARK  4 active torsions:
REMARK  status: ('A' for Active; 'I' for Inactive)
REMARK    1  A    between atoms: N_3  and  C_4
REMARK    2  A    between atoms: C_7  and  O_8
REMARK    3  A    between atoms: O_8  and  C_9
REMARK    4  A    between atoms: C_9  and  C_10
REMARK                            x       y       z     vdW  Elec       q    Type
REMARK                         _______ _______ _______ _____ _____    ______ ____
ROOT
ATOM      1  C   UNL     1      -0.463  10.325  19.393  0.00  0.00    +0.000 A 
ATOM      2  C   UNL     1       0.044   9.588  20.469  0.00  0.00    +0.000 A 
ATOM      3  C   UNL     1       1.190   8.791  20.344  0.00  0.00    +0.000 A 
ATOM      4  C   UNL     1       1.822   8.654  19.113  0.00  0.00    +0.000 A 
ATOM      5  C   UNL     1       1.382   9.426  18.046  0.00  0.00    +0.000 A 
ATOM      6  C   UNL     1       0.270  10.266  18.195  0.00  0.00    +0.000 A 
ENDROOT
BRANCH   1   9
ATOM      7  S   UNL     1      -1.005  12.787  21.632  0.00  0.00    +0.000 S 
ATOM      8  C   UNL     1      -1.978  12.076  20.466  0.00  0.00    +0.000 A 
ATOM      9  N   UNL     1      -1.679  11.086  19.497  0.00  0.00    +0.000 N 
ATOM     10  C   UNL     1      -2.802  10.950  18.647  0.00  0.00    +0.000 A 
ATOM     11  S   UNL     1      -3.170   9.765  17.518  0.00  0.00    +0.000 S 
ATOM     12  N   UNL     1      -3.699  11.985  18.986  0.00  0.00    +0.000 N 
ATOM     13  N   UNL     1      -3.318  12.477  20.241  0.00  0.00    +0.000 N 
ATOM     14  C   UNL     1      -3.948  13.709  20.705  0.00  0.00    +0.000 C 
ATOM     15  C   UNL     1      -5.442  13.757  20.412  0.00  0.00    +0.000 C 
ATOM     16  C   UNL     1      -5.687  13.446  18.945  0.00  0.00    +0.000 C 
ATOM     17  C   UNL     1      -5.107  12.079  18.620  0.00  0.00    +0.000 C 
ENDBRANCH   1   9
BRANCH   4  18
ATOM     18  O   UNL     1       2.855   7.797  18.853  0.00  0.00    +0.000 OA
BRANCH  18  19
ATOM     19  C   UNL     1       2.449   6.479  18.472  0.00  0.00    +0.000 C 
BRANCH  19  20
ATOM     20  C   UNL     1       3.490   5.854  17.578  0.00  0.00    +0.000 A 
ATOM     21  C   UNL     1       3.572   4.462  17.441  0.00  0.00    +0.000 A 
ATOM     22  C   UNL     1       4.517   3.890  16.587  0.00  0.00    +0.000 A 
ATOM     23  C   UNL     1       5.384   4.710  15.865  0.00  0.00    +0.000 A 
ATOM     24 CL   UNL     1       6.544   4.005  14.809  0.00  0.00    +0.000 Cl
ATOM     25  C   UNL     1       5.316   6.094  15.994  0.00  0.00    +0.000 A 
ATOM     26  C   UNL     1       4.373   6.666  16.849  0.00  0.00    +0.000 A 
ENDBRANCH  19  20
ENDBRANCH  18  19
ENDBRANCH   4  18
TORSDOF 4
ENDMDL
MODEL 6
REMARK VINA RESULT:      -6.7      8.798     10.546
REMARK  Name = 
REMARK  4 active torsions:
REMARK  status: ('A' for Active; 'I' for Inactive)
REMARK    1  A    between atoms: N_3  and  C_4
REMARK    2  A    between atoms: C_7  and  O_8
REMARK    3  A    between atoms: O_8  and  C_9
REMARK    4  A    between atoms: C_9  and  C_10
REMARK                            x       y       z     vdW  Elec       q    Type
REMARK                         _______ _______ _______ _____ _____    ______ ____
ROOT
ATOM      1  C   UNL     1      -0.385  10.227  19.378  0.00  0.00    +0.000 A 
ATOM      2  C   UNL     1       0.181  10.146  18.101  0.00  0.00    +0.000 A 
ATOM      3  C   UNL     1       1.267   9.305  17.826  0.00  0.00    +0.000 A 
ATOM      4  C   UNL     1       1.866   8.572  18.845  0.00  0.00    +0.000 A 
ATOM      5  C   UNL     1       1.284   8.580  20.105  0.00  0.00    +0.000 A 
ATOM      6  C   UNL     1       0.161   9.379  20.358  0.00  0.00    +0.000 A 
ENDROOT
BRANCH   1   9
ATOM      7  S   UNL     1      -3.368  10.289  17.808  0.00  0.00    +0.000 S 
ATOM      8  C   UNL     1      -2.691  11.253  19.002  0.00  0.00    +0.000 A 
ATOM      9  N   UNL     1      -1.452  11.141  19.683  0.00  0.00    +0.000 N 
ATOM     10  C   UNL     1      -1.428  12.111  20.713  0.00  0.00    +0.000 A 
ATOM     11  S   UNL     1      -0.153  12.663  21.653  0.00  0.00    +0.000 S 
ATOM     12  N   UNL     1      -2.721  12.674  20.774  0.00  0.00    +0.000 N 
ATOM     13  N   UNL     1      -3.378  12.348  19.581  0.00  0.00    +0.000 N 
ATOM     14  C   UNL     1      -4.810  12.619  19.502  0.00  0.00    +0.000 C 
ATOM     15  C   UNL     1      -5.194  13.960  20.113  0.00  0.00    +0.000 C 
ATOM     16  C   UNL     1      -4.616  14.070  21.513  0.00  0.00    +0.000 C 
ATOM     17  C   UNL     1      -3.106  13.910  21.445  0.00  0.00    +0.000 C 
ENDBRANCH   1   9
BRANCH   4  18
ATOM     18  O   UNL     1       3.011   7.836  18.712  0.00  0.00    +0.000 OA
BRANCH  18  19
ATOM     19  C   UNL     1       2.802   6.424  18.634  0.00  0.00    +0.000 C 
BRANCH  19  20
ATOM     20  C   UNL     1       3.734   5.816  17.617  0.00  0.00    +0.000 A 
ATOM     21  C   UNL     1       3.818   4.426  17.463  0.00  0.00    +0.000 A 
ATOM     22  C   UNL     1       4.659   3.870  16.498  0.00  0.00    +0.000 A 
ATOM     23  C   UNL     1       5.422   4.705  15.681  0.00  0.00    +0.000 A 
ATOM     24 CL   UNL     1       6.455   4.021  14.489  0.00  0.00    +0.000 Cl
ATOM     25  C   UNL     1       5.353   6.088  15.825  0.00  0.00    +0.000 A 
ATOM     26  C   UNL     1       4.513   6.643  16.792  0.00  0.00    +0.000 A 
ENDBRANCH  19  20
ENDBRANCH  18  19
ENDBRANCH   4  18
TORSDOF 4
ENDMDL
MODEL 7
REMARK VINA RESULT:      -6.7      8.828     10.841
REMARK  Name = 
REMARK  4 active torsions:
REMARK  status: ('A' for Active; 'I' for Inactive)
REMARK    1  A    between atoms: N_3  and  C_4
REMARK    2  A    between atoms: C_7  and  O_8
REMARK    3  A    between atoms: O_8  and  C_9
REMARK    4  A    between atoms: C_9  and  C_10
REMARK                            x       y       z     vdW  Elec       q    Type
REMARK                         _______ _______ _______ _____ _____    ______ ____
ROOT
ATOM      1  C   UNL     1      -0.668  11.003  19.803  0.00  0.00    +0.000 A 
ATOM      2  C   UNL     1      -0.298   9.832  20.475  0.00  0.00    +0.000 A 
ATOM      3  C   UNL     1       0.760   9.029  20.031  0.00  0.00    +0.000 A 
ATOM      4  C   UNL     1       1.436   9.339  18.856  0.00  0.00    +0.000 A 
ATOM      5  C   UNL     1       1.138  10.530  18.208  0.00  0.00    +0.000 A 
ATOM      6  C   UNL     1       0.116  11.359  18.691  0.00  0.00    +0.000 A 
ENDROOT
BRANCH   1   9
ATOM      7  S   UNL     1      -0.884  12.686  22.717  0.00  0.00    +0.000 S 
ATOM      8  C   UNL     1      -1.963  12.453  21.455  0.00  0.00    +0.000 A 
ATOM      9  N   UNL     1      -1.798  11.792  20.212  0.00  0.00    +0.000 N 
ATOM     10  C   UNL     1      -2.959  12.018  19.436  0.00  0.00    +0.000 A 
ATOM     11  S   UNL     1      -3.482  11.276  18.025  0.00  0.00    +0.000 S 
ATOM     12  N   UNL     1      -3.737  12.968  20.132  0.00  0.00    +0.000 N 
ATOM     13  N   UNL     1      -3.265  13.013  21.450  0.00  0.00    +0.000 N 
ATOM     14  C   UNL     1      -3.754  14.089  22.307  0.00  0.00    +0.000 C 
ATOM     15  C   UNL     1      -5.245  14.347  22.139  0.00  0.00    +0.000 C 
ATOM     16  C   UNL     1      -5.572  14.528  20.667  0.00  0.00    +0.000 C 
ATOM     17  C   UNL     1      -5.141  13.286  19.903  0.00  0.00    +0.000 C 
ENDBRANCH   1   9
BRANCH   4  18
ATOM     18  O   UNL     1       2.383   8.549  18.264  0.00  0.00    +0.000 OA
BRANCH  18  19
ATOM     19  C   UNL     1       2.518   7.250  18.845  0.00  0.00    +0.000 C 
BRANCH  19  20
ATOM     20  C   UNL     1       3.373   6.374  17.964  0.00  0.00    +0.000 A 
ATOM     21  C   UNL     1       4.456   6.911  17.257  0.00  0.00    +0.000 A 
ATOM     22  C   UNL     1       5.263   6.090  16.468  0.00  0.00    +0.000 A 
ATOM     23  C   UNL     1       4.989   4.725  16.383  0.00  0.00    +0.000 A 
ATOM     24 CL   UNL     1       5.986   3.713  15.415  0.00  0.00    +0.000 Cl
ATOM     25  C   UNL     1       3.913   4.178  17.076  0.00  0.00    +0.000 A 
ATOM     26  C   UNL     1       3.106   5.000  17.863  0.00  0.00    +0.000 A 
ENDBRANCH  19  20
ENDBRANCH  18  19
ENDBRANCH   4  18
TORSDOF 4
ENDMDL
MODEL 8
REMARK VINA RESULT:      -6.7      9.055     10.852
REMARK  Name = 
REMARK  4 active torsions:
REMARK  status: ('A' for Active; 'I' for Inactive)
REMARK    1  A    between atoms: N_3  and  C_4
REMARK    2  A    between atoms: C_7  and  O_8
REMARK    3  A    between atoms: O_8  and  C_9
REMARK    4  A    between atoms: C_9  and  C_10
REMARK                            x       y       z     vdW  Elec       q    Type
REMARK                         _______ _______ _______ _____ _____    ______ ____
ROOT
ATOM      1  C   UNL     1      -0.461  10.599  19.479  0.00  0.00    +0.000 A 
ATOM      2  C   UNL     1       0.041   9.683  20.410  0.00  0.00    +0.000 A 
ATOM      3  C   UNL     1       1.123   8.844  20.111  0.00  0.00    +0.000 A 
ATOM      4  C   UNL     1       1.690   8.850  18.842  0.00  0.00    +0.000 A 
ATOM      5  C   UNL     1       1.257   9.795  17.921  0.00  0.00    +0.000 A 
ATOM      6  C   UNL     1       0.213  10.671  18.247  0.00  0.00    +0.000 A 
ENDROOT
BRANCH   1   9
ATOM      7  S   UNL     1      -3.372  10.437  17.786  0.00  0.00    +0.000 S 
ATOM      8  C   UNL     1      -2.831  11.429  19.024  0.00  0.00    +0.000 A 
ATOM      9  N   UNL     1      -1.616  11.410  19.755  0.00  0.00    +0.000 N 
ATOM     10  C   UNL     1      -1.719  12.355  20.802  0.00  0.00    +0.000 A 
ATOM     11  S   UNL     1      -0.535  12.995  21.806  0.00  0.00    +0.000 S 
ATOM     12  N   UNL     1      -3.057  12.803  20.819  0.00  0.00    +0.000 N 
ATOM     13  N   UNL     1      -3.633  12.448  19.593  0.00  0.00    +0.000 N 
ATOM     14  C   UNL     1      -5.080  12.595  19.459  0.00  0.00    +0.000 C 
ATOM     15  C   UNL     1      -5.604  13.884  20.077  0.00  0.00    +0.000 C 
ATOM     16  C   UNL     1      -5.095  14.013  21.503  0.00  0.00    +0.000 C 
ATOM     17  C   UNL     1      -3.576  13.986  21.496  0.00  0.00    +0.000 C 
ENDBRANCH   1   9
BRANCH   4  18
ATOM     18  O   UNL     1       2.649   7.977  18.407  0.00  0.00    +0.000 OA
BRANCH  18  19
ATOM     19  C   UNL     1       3.111   7.061  19.402  0.00  0.00    +0.000 C 
BRANCH  19  20
ATOM     20  C   UNL     1       2.419   5.730  19.244  0.00  0.00    +0.000 A 
ATOM     21  C   UNL     1       2.368   5.095  17.997  0.00  0.00    +0.000 A 
ATOM     22  C   UNL     1       1.753   3.849  17.862  0.00  0.00    +0.000 A 
ATOM     23  C   UNL     1       1.187   3.233  18.977  0.00  0.00    +0.000 A 
ATOM     24 CL   UNL     1       0.434   1.695  18.812  0.00  0.00    +0.000 Cl
ATOM     25  C   UNL     1       1.225   3.854  20.222  0.00  0.00    +0.000 A 
ATOM     26  C   UNL     1       1.838   5.100  20.356  0.00  0.00    +0.000 A 
ENDBRANCH  19  20
ENDBRANCH  18  19
ENDBRANCH   4  18
TORSDOF 4
ENDMDL
MODEL 9
REMARK VINA RESULT:      -6.6      9.148     11.030
REMARK  Name = 
REMARK  4 active torsions:
REMARK  status: ('A' for Active; 'I' for Inactive)
REMARK    1  A    between atoms: N_3  and  C_4
REMARK    2  A    between atoms: C_7  and  O_8
REMARK    3  A    between atoms: O_8  and  C_9
REMARK    4  A    between atoms: C_9  and  C_10
REMARK                            x       y       z     vdW  Elec       q    Type
REMARK                         _______ _______ _______ _____ _____    ______ ____
ROOT
ATOM      1  C   UNL     1      -0.679  10.448  19.451  0.00  0.00    +0.000 A 
ATOM      2  C   UNL     1      -0.227   9.686  20.535  0.00  0.00    +0.000 A 
ATOM      3  C   UNL     1       0.932   8.903  20.454  0.00  0.00    +0.000 A 
ATOM      4  C   UNL     1       1.635   8.805  19.258  0.00  0.00    +0.000 A 
ATOM      5  C   UNL     1       1.250   9.603  18.189  0.00  0.00    +0.000 A 
ATOM      6  C   UNL     1       0.122  10.429  18.296  0.00  0.00    +0.000 A 
ENDROOT
BRANCH   1   9
ATOM      7  S   UNL     1      -1.324  12.928  21.642  0.00  0.00    +0.000 S 
ATOM      8  C   UNL     1      -2.249  12.192  20.453  0.00  0.00    +0.000 A 
ATOM      9  N   UNL     1      -1.906  11.196  19.505  0.00  0.00    +0.000 N 
ATOM     10  C   UNL     1      -2.998  11.037  18.620  0.00  0.00    +0.000 A 
ATOM     11  S   UNL     1      -3.314   9.835  17.492  0.00  0.00    +0.000 S 
ATOM     12  N   UNL     1      -3.917  12.066  18.916  0.00  0.00    +0.000 N 
ATOM     13  N   UNL     1      -3.585  12.575  20.178  0.00  0.00    +0.000 N 
ATOM     14  C   UNL     1      -4.245  13.805  20.606  0.00  0.00    +0.000 C 
ATOM     15  C   UNL     1      -5.728  13.832  20.262  0.00  0.00    +0.000 C 
ATOM     16  C   UNL     1      -5.919  13.502  18.791  0.00  0.00    +0.000 C 
ATOM     17  C   UNL     1      -5.313  12.139  18.501  0.00  0.00    +0.000 C 
ENDBRANCH   1   9
BRANCH   4  18
ATOM     18  O   UNL     1       2.690   7.963  19.035  0.00  0.00    +0.000 OA
BRANCH  18  19
ATOM     19  C   UNL     1       2.688   7.340  17.748  0.00  0.00    +0.000 C 
BRANCH  19  20
ATOM     20  C   UNL     1       2.913   5.856  17.890  0.00  0.00    +0.000 A 
ATOM     21  C   UNL     1       2.016   5.063  18.617  0.00  0.00    +0.000 A 
ATOM     22  C   UNL     1       2.212   3.685  18.719  0.00  0.00    +0.000 A 
ATOM     23  C   UNL     1       3.308   3.094  18.091  0.00  0.00    +0.000 A 
ATOM     24 CL   UNL     1       3.547   1.395  18.212  0.00  0.00    +0.000 Cl
ATOM     25  C   UNL     1       4.210   3.869  17.369  0.00  0.00    +0.000 A 
ATOM     26  C   UNL     1       4.015   5.247  17.269  0.00  0.00    +0.000 A 
ENDBRANCH  19  20
ENDBRANCH  18  19
ENDBRANCH   4  18
TORSDOF 4
ENDMDL
