MODEL 1
REMARK VINA RESULT:      -8.1      0.000      0.000
REMARK  Name = 
REMARK  5 active torsions:
REMARK  status: ('A' for Active; 'I' for Inactive)
REMARK    1  A    between atoms: C_1  and  C_2
REMARK    2  A    between atoms: C_2  and  C_3
REMARK    3  A    between atoms: C_3  and  C_4
REMARK    4  A    between atoms: C_4  and  N_5
REMARK    5  A    between atoms: C_16  and  N_17
REMARK                            x       y       z     vdW  Elec       q    Type
REMARK                         _______ _______ _______ _____ _____    ______ ____
ROOT
ATOM      1  N   UNL     1       2.386   5.879  20.090  0.00  0.00    +0.000 N 
ATOM      2  C   UNL     1       1.745   7.055  20.502  0.00  0.00    +0.000 A 
ATOM      3  O   UNL     1       1.168   7.161  21.585  0.00  0.00    +0.000 OA
ATOM      4  C   UNL     1       1.725   8.209  19.581  0.00  0.00    +0.000 A 
ATOM      5  C   UNL     1       0.906   9.305  19.910  0.00  0.00    +0.000 A 
ATOM      6  C   UNL     1       0.843  10.413  19.074  0.00  0.00    +0.000 A 
ATOM      7  C   UNL     1       1.600  10.425  17.912  0.00  0.00    +0.000 A 
ATOM      8  C   UNL     1       2.406   9.326  17.582  0.00  0.00    +0.000 A 
ATOM      9  C   UNL     1       2.485   8.185  18.408  0.00  0.00    +0.000 A 
ATOM     10  C   UNL     1       3.288   6.985  18.086  0.00  0.00    +0.000 A 
ATOM     11  C   UNL     1       4.147   6.943  16.960  0.00  0.00    +0.000 A 
ATOM     12  C   UNL     1       4.887   5.811  16.619  0.00  0.00    +0.000 A 
ATOM     13  C   UNL     1       4.768   4.682  17.422  0.00  0.00    +0.000 A 
ATOM     14  C   UNL     1       3.934   4.692  18.546  0.00  0.00    +0.000 A 
ATOM     15  C   UNL     1       3.195   5.835  18.906  0.00  0.00    +0.000 A 
ENDROOT
BRANCH  12  16
ATOM     16  N   UNL     1       5.757   5.743  15.510  0.00  0.00    +0.000 N 
ATOM     17  C   UNL     1       7.018   5.206  15.470  0.00  0.00    +0.000 C 
ATOM     18  N   UNL     1       7.576   5.298  14.228  0.00  0.00    +0.000 N 
ATOM     19  O   UNL     1       7.659   4.696  16.377  0.00  0.00    +0.000 OA
ATOM     20  H   UNL     1       5.467   6.223  14.671  0.00  0.00    +0.000 HD
ATOM     21  H   UNL     1       6.977   5.119  13.436  0.00  0.00    +0.000 HD
ATOM     22  H   UNL     1       8.471   4.826  14.177  0.00  0.00    +0.000 HD
ENDBRANCH  12  16
BRANCH   1  23
ATOM     23  C   UNL     1       2.184   4.719  20.962  0.00  0.00    +0.000 C 
BRANCH  23  24
ATOM     24  C   UNL     1       0.961   3.894  20.529  0.00  0.00    +0.000 C 
BRANCH  24  26
ATOM     25  C   UNL     1       1.090   2.303  18.592  0.00  0.00    +0.000 C 
ATOM     26  C   UNL     1       1.346   2.487  20.081  0.00  0.00    +0.000 C 
ENDBRANCH  24  26
ENDBRANCH  23  24
ENDBRANCH   1  23
TORSDOF 4
ENDMDL
MODEL 2
REMARK VINA RESULT:      -7.9      1.432      1.862
REMARK  Name = 
REMARK  5 active torsions:
REMARK  status: ('A' for Active; 'I' for Inactive)
REMARK    1  A    between atoms: C_1  and  C_2
REMARK    2  A    between atoms: C_2  and  C_3
REMARK    3  A    between atoms: C_3  and  C_4
REMARK    4  A    between atoms: C_4  and  N_5
REMARK    5  A    between atoms: C_16  and  N_17
REMARK                            x       y       z     vdW  Elec       q    Type
REMARK                         _______ _______ _______ _____ _____    ______ ____
ROOT
ATOM      1  N   UNL     1       3.596   4.469  19.379  0.00  0.00    +0.000 N 
ATOM      2  C   UNL     1       2.748   5.439  19.930  0.00  0.00    +0.000 A 
ATOM      3  O   UNL     1       2.098   5.255  20.960  0.00  0.00    +0.000 OA
ATOM      4  C   UNL     1       2.593   6.727  19.224  0.00  0.00    +0.000 A 
ATOM      5  C   UNL     1       1.587   7.606  19.664  0.00  0.00    +0.000 A 
ATOM      6  C   UNL     1       1.393   8.827  19.030  0.00  0.00    +0.000 A 
ATOM      7  C   UNL     1       2.205   9.168  17.959  0.00  0.00    +0.000 A 
ATOM      8  C   UNL     1       3.199   8.283  17.516  0.00  0.00    +0.000 A 
ATOM      9  C   UNL     1       3.414   7.034  18.135  0.00  0.00    +0.000 A 
ATOM     10  C   UNL     1       4.421   6.049  17.682  0.00  0.00    +0.000 A 
ATOM     11  C   UNL     1       5.340   6.346  16.646  0.00  0.00    +0.000 A 
ATOM     12  C   UNL     1       6.275   5.421  16.181  0.00  0.00    +0.000 A 
ATOM     13  C   UNL     1       6.295   4.159  16.763  0.00  0.00    +0.000 A 
ATOM     14  C   UNL     1       5.406   3.835  17.795  0.00  0.00    +0.000 A 
ATOM     15  C   UNL     1       4.470   4.766  18.280  0.00  0.00    +0.000 A 
ENDROOT
BRANCH  12  16
ATOM     16  N   UNL     1       7.209   5.691  15.157  0.00  0.00    +0.000 N 
ATOM     17  C   UNL     1       7.289   5.097  13.924  0.00  0.00    +0.000 C 
ATOM     18  N   UNL     1       8.310   5.607  13.175  0.00  0.00    +0.000 N 
ATOM     19  O   UNL     1       6.595   4.206  13.459  0.00  0.00    +0.000 OA
ATOM     20  H   UNL     1       7.963   6.323  15.381  0.00  0.00    +0.000 HD
ATOM     21  H   UNL     1       8.460   6.604  13.214  0.00  0.00    +0.000 HD
ATOM     22  H   UNL     1       8.316   5.230  12.234  0.00  0.00    +0.000 HD
ENDBRANCH  12  16
BRANCH   1  23
ATOM     23  C   UNL     1       3.536   3.151  20.016  0.00  0.00    +0.000 C 
BRANCH  23  24
ATOM     24  C   UNL     1       3.029   2.076  19.040  0.00  0.00    +0.000 C 
BRANCH  24  26
ATOM     25  C   UNL     1       0.561   2.533  19.071  0.00  0.00    +0.000 C 
ATOM     26  C   UNL     1       1.828   2.556  18.229  0.00  0.00    +0.000 C 
ENDBRANCH  24  26
ENDBRANCH  23  24
ENDBRANCH   1  23
TORSDOF 4
ENDMDL
MODEL 3
REMARK VINA RESULT:      -7.8      2.354      5.496
REMARK  Name = 
REMARK  5 active torsions:
REMARK  status: ('A' for Active; 'I' for Inactive)
REMARK    1  A    between atoms: C_1  and  C_2
REMARK    2  A    between atoms: C_2  and  C_3
REMARK    3  A    between atoms: C_3  and  C_4
REMARK    4  A    between atoms: C_4  and  N_5
REMARK    5  A    between atoms: C_16  and  N_17
REMARK                            x       y       z     vdW  Elec       q    Type
REMARK                         _______ _______ _______ _____ _____    ______ ____
ROOT
ATOM      1  N   UNL     1       3.182   4.894  19.588  0.00  0.00    +0.000 N 
ATOM      2  C   UNL     1       3.921   4.108  18.694  0.00  0.00    +0.000 A 
ATOM      3  O   UNL     1       4.130   2.907  18.871  0.00  0.00    +0.000 OA
ATOM      4  C   UNL     1       4.511   4.755  17.505  0.00  0.00    +0.000 A 
ATOM      5  C   UNL     1       5.420   4.012  16.730  0.00  0.00    +0.000 A 
ATOM      6  C   UNL     1       6.011   4.576  15.606  0.00  0.00    +0.000 A 
ATOM      7  C   UNL     1       5.691   5.879  15.256  0.00  0.00    +0.000 A 
ATOM      8  C   UNL     1       4.792   6.619  16.038  0.00  0.00    +0.000 A 
ATOM      9  C   UNL     1       4.182   6.076  17.189  0.00  0.00    +0.000 A 
ATOM     10  C   UNL     1       3.260   6.827  18.069  0.00  0.00    +0.000 A 
ATOM     11  C   UNL     1       2.821   8.135  17.745  0.00  0.00    +0.000 A 
ATOM     12  C   UNL     1       1.978   8.873  18.577  0.00  0.00    +0.000 A 
ATOM     13  C   UNL     1       1.560   8.294  19.769  0.00  0.00    +0.000 A 
ATOM     14  C   UNL     1       1.969   7.001  20.115  0.00  0.00    +0.000 A 
ATOM     15  C   UNL     1       2.807   6.243  19.276  0.00  0.00    +0.000 A 
ENDROOT
BRANCH  12  16
ATOM     16  N   UNL     1       1.518  10.173  18.277  0.00  0.00    +0.000 N 
ATOM     17  C   UNL     1       0.254  10.672  18.456  0.00  0.00    +0.000 C 
ATOM     18  N   UNL     1       0.158  11.978  18.069  0.00  0.00    +0.000 N 
ATOM     19  O   UNL     1      -0.738  10.103  18.887  0.00  0.00    +0.000 OA
ATOM     20  H   UNL     1       2.157  10.784  17.790  0.00  0.00    +0.000 HD
ATOM     21  H   UNL     1       0.928  12.587  18.298  0.00  0.00    +0.000 HD
ATOM     22  H   UNL     1      -0.752  12.371  18.280  0.00  0.00    +0.000 HD
ENDBRANCH  12  16
BRANCH   1  23
ATOM     23  C   UNL     1       2.810   4.232  20.842  0.00  0.00    +0.000 C 
BRANCH  23  24
ATOM     24  C   UNL     1       1.325   3.833  20.849  0.00  0.00    +0.000 C 
BRANCH  24  26
ATOM     25  C   UNL     1       0.648   2.485  18.843  0.00  0.00    +0.000 C 
ATOM     26  C   UNL     1       1.104   2.428  20.294  0.00  0.00    +0.000 C 
ENDBRANCH  24  26
ENDBRANCH  23  24
ENDBRANCH   1  23
TORSDOF 4
ENDMDL
MODEL 4
REMARK VINA RESULT:      -7.7      2.262      6.685
REMARK  Name = 
REMARK  5 active torsions:
REMARK  status: ('A' for Active; 'I' for Inactive)
REMARK    1  A    between atoms: C_1  and  C_2
REMARK    2  A    between atoms: C_2  and  C_3
REMARK    3  A    between atoms: C_3  and  C_4
REMARK    4  A    between atoms: C_4  and  N_5
REMARK    5  A    between atoms: C_16  and  N_17
REMARK                            x       y       z     vdW  Elec       q    Type
REMARK                         _______ _______ _______ _____ _____    ______ ____
ROOT
ATOM      1  N   UNL     1       4.079   5.780  17.824  0.00  0.00    +0.000 N 
ATOM      2  C   UNL     1       4.369   4.553  18.435  0.00  0.00    +0.000 A 
ATOM      3  O   UNL     1       5.258   3.798  18.038  0.00  0.00    +0.000 OA
ATOM      4  C   UNL     1       3.547   4.124  19.585  0.00  0.00    +0.000 A 
ATOM      5  C   UNL     1       3.703   2.808  20.057  0.00  0.00    +0.000 A 
ATOM      6  C   UNL     1       2.948   2.350  21.129  0.00  0.00    +0.000 A 
ATOM      7  C   UNL     1       2.040   3.208  21.730  0.00  0.00    +0.000 A 
ATOM      8  C   UNL     1       1.879   4.516  21.249  0.00  0.00    +0.000 A 
ATOM      9  C   UNL     1       2.626   5.006  20.158  0.00  0.00    +0.000 A 
ATOM     10  C   UNL     1       2.465   6.362  19.588  0.00  0.00    +0.000 A 
ATOM     11  C   UNL     1       1.616   7.326  20.185  0.00  0.00    +0.000 A 
ATOM     12  C   UNL     1       1.425   8.598  19.646  0.00  0.00    +0.000 A 
ATOM     13  C   UNL     1       2.097   8.922  18.473  0.00  0.00    +0.000 A 
ATOM     14  C   UNL     1       2.950   7.996  17.861  0.00  0.00    +0.000 A 
ATOM     15  C   UNL     1       3.160   6.715  18.406  0.00  0.00    +0.000 A 
ENDROOT
BRANCH  12  16
ATOM     16  N   UNL     1       0.593   9.582  20.224  0.00  0.00    +0.000 N 
ATOM     17  C   UNL     1       0.676  10.108  21.486  0.00  0.00    +0.000 C 
ATOM     18  N   UNL     1      -0.284  11.051  21.714  0.00  0.00    +0.000 N 
ATOM     19  O   UNL     1       1.463   9.829  22.379  0.00  0.00    +0.000 OA
ATOM     20  H   UNL     1      -0.214   9.869  19.689  0.00  0.00    +0.000 HD
ATOM     21  H   UNL     1      -0.491  11.692  20.963  0.00  0.00    +0.000 HD
ATOM     22  H   UNL     1      -0.170  11.500  22.615  0.00  0.00    +0.000 HD
ENDBRANCH  12  16
BRANCH   1  23
ATOM     23  C   UNL     1       4.793   6.038  16.571  0.00  0.00    +0.000 C 
BRANCH  23  24
ATOM     24  C   UNL     1       5.975   6.998  16.783  0.00  0.00    +0.000 C 
BRANCH  24  26
ATOM     25  C   UNL     1       7.734   6.461  18.491  0.00  0.00    +0.000 C 
ATOM     26  C   UNL     1       7.280   6.253  17.054  0.00  0.00    +0.000 C 
ENDBRANCH  24  26
ENDBRANCH  23  24
ENDBRANCH   1  23
TORSDOF 4
ENDMDL
MODEL 5
REMARK VINA RESULT:      -7.7      2.264      6.063
REMARK  Name = 
REMARK  5 active torsions:
REMARK  status: ('A' for Active; 'I' for Inactive)
REMARK    1  A    between atoms: C_1  and  C_2
REMARK    2  A    between atoms: C_2  and  C_3
REMARK    3  A    between atoms: C_3  and  C_4
REMARK    4  A    between atoms: C_4  and  N_5
REMARK    5  A    between atoms: C_16  and  N_17
REMARK                            x       y       z     vdW  Elec       q    Type
REMARK                         _______ _______ _______ _____ _____    ______ ____
ROOT
ATOM      1  N   UNL     1       4.951   4.795  18.239  0.00  0.00    +0.000 N 
ATOM      2  C   UNL     1       4.706   3.764  19.155  0.00  0.00    +0.000 A 
ATOM      3  O   UNL     1       5.521   2.872  19.396  0.00  0.00    +0.000 OA
ATOM      4  C   UNL     1       3.396   3.720  19.836  0.00  0.00    +0.000 A 
ATOM      5  C   UNL     1       3.079   2.574  20.589  0.00  0.00    +0.000 A 
ATOM      6  C   UNL     1       1.857   2.477  21.241  0.00  0.00    +0.000 A 
ATOM      7  C   UNL     1       0.954   3.525  21.144  0.00  0.00    +0.000 A 
ATOM      8  C   UNL     1       1.270   4.660  20.383  0.00  0.00    +0.000 A 
ATOM      9  C   UNL     1       2.500   4.784  19.703  0.00  0.00    +0.000 A 
ATOM     10  C   UNL     1       2.864   5.942  18.857  0.00  0.00    +0.000 A 
ATOM     11  C   UNL     1       2.034   7.086  18.762  0.00  0.00    +0.000 A 
ATOM     12  C   UNL     1       2.342   8.173  17.945  0.00  0.00    +0.000 A 
ATOM     13  C   UNL     1       3.511   8.121  17.195  0.00  0.00    +0.000 A 
ATOM     14  C   UNL     1       4.358   7.008  17.270  0.00  0.00    +0.000 A 
ATOM     15  C   UNL     1       4.062   5.913  18.104  0.00  0.00    +0.000 A 
ENDROOT
BRANCH  12  16
ATOM     16  N   UNL     1       1.541   9.330  17.837  0.00  0.00    +0.000 N 
ATOM     17  C   UNL     1       0.985  10.058  18.857  0.00  0.00    +0.000 C 
ATOM     18  N   UNL     1       0.274  11.128  18.396  0.00  0.00    +0.000 N 
ATOM     19  O   UNL     1       1.043   9.854  20.061  0.00  0.00    +0.000 OA
ATOM     20  H   UNL     1       1.262   9.608  16.908  0.00  0.00    +0.000 HD
ATOM     21  H   UNL     1       0.665  11.646  17.625  0.00  0.00    +0.000 HD
ATOM     22  H   UNL     1      -0.065  11.713  19.151  0.00  0.00    +0.000 HD
ENDBRANCH  12  16
BRANCH   1  23
ATOM     23  C   UNL     1       6.181   4.654  17.454  0.00  0.00    +0.000 C 
BRANCH  23  24
ATOM     24  C   UNL     1       5.923   3.912  16.132  0.00  0.00    +0.000 C 
BRANCH  24  26
ATOM     25  C   UNL     1       6.216   3.936  13.639  0.00  0.00    +0.000 C 
ATOM     26  C   UNL     1       6.652   4.560  14.957  0.00  0.00    +0.000 C 
ENDBRANCH  24  26
ENDBRANCH  23  24
ENDBRANCH   1  23
TORSDOF 4
ENDMDL
MODEL 6
REMARK VINA RESULT:      -7.6      1.978      4.919
REMARK  Name = 
REMARK  5 active torsions:
REMARK  status: ('A' for Active; 'I' for Inactive)
REMARK    1  A    between atoms: C_1  and  C_2
REMARK    2  A    between atoms: C_2  and  C_3
REMARK    3  A    between atoms: C_3  and  C_4
REMARK    4  A    between atoms: C_4  and  N_5
REMARK    5  A    between atoms: C_16  and  N_17
REMARK                            x       y       z     vdW  Elec       q    Type
REMARK                         _______ _______ _______ _____ _____    ______ ____
ROOT
ATOM      1  N   UNL     1       3.379   6.506  18.070  0.00  0.00    +0.000 N 
ATOM      2  C   UNL     1       2.506   5.852  18.950  0.00  0.00    +0.000 A 
ATOM      3  O   UNL     1       1.728   6.452  19.692  0.00  0.00    +0.000 OA
ATOM      4  C   UNL     1       2.546   4.378  19.020  0.00  0.00    +0.000 A 
ATOM      5  C   UNL     1       1.824   3.744  20.047  0.00  0.00    +0.000 A 
ATOM      6  C   UNL     1       1.835   2.359  20.164  0.00  0.00    +0.000 A 
ATOM      7  C   UNL     1       2.566   1.610  19.254  0.00  0.00    +0.000 A 
ATOM      8  C   UNL     1       3.293   2.247  18.238  0.00  0.00    +0.000 A 
ATOM      9  C   UNL     1       3.307   3.651  18.099  0.00  0.00    +0.000 A 
ATOM     10  C   UNL     1       4.089   4.372  17.071  0.00  0.00    +0.000 A 
ATOM     11  C   UNL     1       4.801   3.685  16.058  0.00  0.00    +0.000 A 
ATOM     12  C   UNL     1       5.571   4.344  15.099  0.00  0.00    +0.000 A 
ATOM     13  C   UNL     1       5.638   5.731  15.151  0.00  0.00    +0.000 A 
ATOM     14  C   UNL     1       4.940   6.442  16.135  0.00  0.00    +0.000 A 
ATOM     15  C   UNL     1       4.149   5.787  17.096  0.00  0.00    +0.000 A 
ENDROOT
BRANCH  12  16
ATOM     16  N   UNL     1       6.283   3.686  14.072  0.00  0.00    +0.000 N 
ATOM     17  C   UNL     1       5.850   3.408  12.802  0.00  0.00    +0.000 C 
ATOM     18  N   UNL     1       6.802   2.769  12.063  0.00  0.00    +0.000 N 
ATOM     19  O   UNL     1       4.762   3.646  12.298  0.00  0.00    +0.000 OA
ATOM     20  H   UNL     1       7.178   3.290  14.319  0.00  0.00    +0.000 HD
ATOM     21  H   UNL     1       7.755   3.084  12.163  0.00  0.00    +0.000 HD
ATOM     22  H   UNL     1       6.513   2.639  11.101  0.00  0.00    +0.000 HD
ENDBRANCH  12  16
BRANCH   1  23
ATOM     23  C   UNL     1       3.429   7.964  18.208  0.00  0.00    +0.000 C 
BRANCH  23  24
ATOM     24  C   UNL     1       2.235   8.637  17.511  0.00  0.00    +0.000 C 
BRANCH  24  26
ATOM     25  C   UNL     1       0.388   9.981  18.550  0.00  0.00    +0.000 C 
ATOM     26  C   UNL     1       1.860   9.964  18.166  0.00  0.00    +0.000 C 
ENDBRANCH  24  26
ENDBRANCH  23  24
ENDBRANCH   1  23
TORSDOF 4
ENDMDL
MODEL 7
REMARK VINA RESULT:      -7.6      2.432      6.572
REMARK  Name = 
REMARK  5 active torsions:
REMARK  status: ('A' for Active; 'I' for Inactive)
REMARK    1  A    between atoms: C_1  and  C_2
REMARK    2  A    between atoms: C_2  and  C_3
REMARK    3  A    between atoms: C_3  and  C_4
REMARK    4  A    between atoms: C_4  and  N_5
REMARK    5  A    between atoms: C_16  and  N_17
REMARK                            x       y       z     vdW  Elec       q    Type
REMARK                         _______ _______ _______ _____ _____    ______ ____
ROOT
ATOM      1  N   UNL     1       4.225   5.706  17.566  0.00  0.00    +0.000 N 
ATOM      2  C   UNL     1       4.462   4.511  18.257  0.00  0.00    +0.000 A 
ATOM      3  O   UNL     1       5.319   3.696  17.913  0.00  0.00    +0.000 OA
ATOM      4  C   UNL     1       3.622   4.192  19.429  0.00  0.00    +0.000 A 
ATOM      5  C   UNL     1       3.723   2.904  19.986  0.00  0.00    +0.000 A 
ATOM      6  C   UNL     1       2.948   2.550  21.084  0.00  0.00    +0.000 A 
ATOM      7  C   UNL     1       2.076   3.482  21.624  0.00  0.00    +0.000 A 
ATOM      8  C   UNL     1       1.970   4.761  21.059  0.00  0.00    +0.000 A 
ATOM      9  C   UNL     1       2.738   5.148  19.940  0.00  0.00    +0.000 A 
ATOM     10  C   UNL     1       2.635   6.469  19.283  0.00  0.00    +0.000 A 
ATOM     11  C   UNL     1       1.827   7.504  19.813  0.00  0.00    +0.000 A 
ATOM     12  C   UNL     1       1.689   8.746  19.192  0.00  0.00    +0.000 A 
ATOM     13  C   UNL     1       2.375   8.964  18.003  0.00  0.00    +0.000 A 
ATOM     14  C   UNL     1       3.189   7.965  17.455  0.00  0.00    +0.000 A 
ATOM     15  C   UNL     1       3.345   6.716  18.083  0.00  0.00    +0.000 A 
ENDROOT
BRANCH  12  16
ATOM     16  N   UNL     1       0.899   9.799  19.701  0.00  0.00    +0.000 N 
ATOM     17  C   UNL     1      -0.236  10.332  19.148  0.00  0.00    +0.000 C 
ATOM     18  N   UNL     1      -0.757  11.336  19.913  0.00  0.00    +0.000 N 
ATOM     19  O   UNL     1      -0.789  10.032  18.100  0.00  0.00    +0.000 OA
ATOM     20  H   UNL     1       1.250  10.282  20.514  0.00  0.00    +0.000 HD
ATOM     21  H   UNL     1      -0.752  11.207  20.913  0.00  0.00    +0.000 HD
ATOM     22  H   UNL     1      -1.640  11.672  19.548  0.00  0.00    +0.000 HD
ENDBRANCH  12  16
BRANCH   1  23
ATOM     23  C   UNL     1       4.950   5.852  16.301  0.00  0.00    +0.000 C 
BRANCH  23  24
ATOM     24  C   UNL     1       6.470   5.913  16.528  0.00  0.00    +0.000 C 
BRANCH  24  26
ATOM     25  C   UNL     1       7.836   6.706  18.478  0.00  0.00    +0.000 C 
ATOM     26  C   UNL     1       6.878   7.119  17.371  0.00  0.00    +0.000 C 
ENDBRANCH  24  26
ENDBRANCH  23  24
ENDBRANCH   1  23
TORSDOF 4
ENDMDL
MODEL 8
REMARK VINA RESULT:      -7.6      2.188      6.396
REMARK  Name = 
REMARK  5 active torsions:
REMARK  status: ('A' for Active; 'I' for Inactive)
REMARK    1  A    between atoms: C_1  and  C_2
REMARK    2  A    between atoms: C_2  and  C_3
REMARK    3  A    between atoms: C_3  and  C_4
REMARK    4  A    between atoms: C_4  and  N_5
REMARK    5  A    between atoms: C_16  and  N_17
REMARK                            x       y       z     vdW  Elec       q    Type
REMARK                         _______ _______ _______ _____ _____    ______ ____
ROOT
ATOM      1  N   UNL     1       4.612   5.628  17.998  0.00  0.00    +0.000 N 
ATOM      2  C   UNL     1       4.709   4.463  18.771  0.00  0.00    +0.000 A 
ATOM      3  O   UNL     1       5.657   3.681  18.690  0.00  0.00    +0.000 OA
ATOM      4  C   UNL     1       3.607   4.136  19.698  0.00  0.00    +0.000 A 
ATOM      5  C   UNL     1       3.610   2.869  20.309  0.00  0.00    +0.000 A 
ATOM      6  C   UNL     1       2.592   2.506  21.182  0.00  0.00    +0.000 A 
ATOM      7  C   UNL     1       1.574   3.410  21.445  0.00  0.00    +0.000 A 
ATOM      8  C   UNL     1       1.569   4.668  20.825  0.00  0.00    +0.000 A 
ATOM      9  C   UNL     1       2.584   5.061  19.928  0.00  0.00    +0.000 A 
ATOM     10  C   UNL     1       2.604   6.359  19.218  0.00  0.00    +0.000 A 
ATOM     11  C   UNL     1       1.646   7.368  19.483  0.00  0.00    +0.000 A 
ATOM     12  C   UNL     1       1.626   8.585  18.802  0.00  0.00    +0.000 A 
ATOM     13  C   UNL     1       2.587   8.806  17.823  0.00  0.00    +0.000 A 
ATOM     14  C   UNL     1       3.553   7.832  17.541  0.00  0.00    +0.000 A 
ATOM     15  C   UNL     1       3.590   6.608  18.233  0.00  0.00    +0.000 A 
ENDROOT
BRANCH  12  16
ATOM     16  N   UNL     1       0.690   9.613  19.051  0.00  0.00    +0.000 N 
ATOM     17  C   UNL     1       0.501  10.304  20.220  0.00  0.00    +0.000 C 
ATOM     18  N   UNL     1      -0.485  11.241  20.108  0.00  0.00    +0.000 N 
ATOM     19  O   UNL     1       1.078  10.168  21.288  0.00  0.00    +0.000 OA
ATOM     20  H   UNL     1       0.017   9.804  18.324  0.00  0.00    +0.000 HD
ATOM     21  H   UNL     1      -0.526  11.771  19.251  0.00  0.00    +0.000 HD
ATOM     22  H   UNL     1      -0.566  11.808  20.944  0.00  0.00    +0.000 HD
ENDBRANCH  12  16
BRANCH   1  23
ATOM     23  C   UNL     1       5.634   5.776  16.959  0.00  0.00    +0.000 C 
BRANCH  23  24
ATOM     24  C   UNL     1       5.227   5.056  15.663  0.00  0.00    +0.000 C 
BRANCH  24  26
ATOM     25  C   UNL     1       6.330   4.005  13.668  0.00  0.00    +0.000 C 
ATOM     26  C   UNL     1       6.298   4.077  15.187  0.00  0.00    +0.000 C 
ENDBRANCH  24  26
ENDBRANCH  23  24
ENDBRANCH   1  23
TORSDOF 4
ENDMDL
MODEL 9
REMARK VINA RESULT:      -7.5      2.481      6.512
REMARK  Name = 
REMARK  5 active torsions:
REMARK  status: ('A' for Active; 'I' for Inactive)
REMARK    1  A    between atoms: C_1  and  C_2
REMARK    2  A    between atoms: C_2  and  C_3
REMARK    3  A    between atoms: C_3  and  C_4
REMARK    4  A    between atoms: C_4  and  N_5
REMARK    5  A    between atoms: C_16  and  N_17
REMARK                            x       y       z     vdW  Elec       q    Type
REMARK                         _______ _______ _______ _____ _____    ______ ____
ROOT
ATOM      1  N   UNL     1       4.798   5.507  18.195  0.00  0.00    +0.000 N 
ATOM      2  C   UNL     1       4.774   4.362  19.003  0.00  0.00    +0.000 A 
ATOM      3  O   UNL     1       5.715   3.570  19.073  0.00  0.00    +0.000 OA
ATOM      4  C   UNL     1       3.551   4.068  19.777  0.00  0.00    +0.000 A 
ATOM      5  C   UNL     1       3.456   2.818  20.415  0.00  0.00    +0.000 A 
ATOM      6  C   UNL     1       2.323   2.487  21.148  0.00  0.00    +0.000 A 
ATOM      7  C   UNL     1       1.289   3.406  21.245  0.00  0.00    +0.000 A 
ATOM      8  C   UNL     1       1.384   4.647  20.598  0.00  0.00    +0.000 A 
ATOM      9  C   UNL     1       2.518   5.008  19.840  0.00  0.00    +0.000 A 
ATOM     10  C   UNL     1       2.650   6.286  19.107  0.00  0.00    +0.000 A 
ATOM     11  C   UNL     1       1.676   7.309  19.212  0.00  0.00    +0.000 A 
ATOM     12  C   UNL     1       1.764   8.508  18.504  0.00  0.00    +0.000 A 
ATOM     13  C   UNL     1       2.854   8.694  17.661  0.00  0.00    +0.000 A 
ATOM     14  C   UNL     1       3.838   7.706  17.540  0.00  0.00    +0.000 A 
ATOM     15  C   UNL     1       3.765   6.500  18.262  0.00  0.00    +0.000 A 
ENDROOT
BRANCH  12  16
ATOM     16  N   UNL     1       0.815   9.549  18.595  0.00  0.00    +0.000 N 
ATOM     17  C   UNL     1       0.507  10.302  19.698  0.00  0.00    +0.000 C 
ATOM     18  N   UNL     1      -0.454  11.234  19.431  0.00  0.00    +0.000 N 
ATOM     19  O   UNL     1       0.964  10.223  20.828  0.00  0.00    +0.000 OA
ATOM     20  H   UNL     1       0.226   9.702  17.790  0.00  0.00    +0.000 HD
ATOM     21  H   UNL     1      -0.398  11.717  18.547  0.00  0.00    +0.000 HD
ATOM     22  H   UNL     1      -0.620  11.846  20.221  0.00  0.00    +0.000 HD
ENDBRANCH  12  16
BRANCH   1  23
ATOM     23  C   UNL     1       5.956   5.618  17.303  0.00  0.00    +0.000 C 
BRANCH  23  24
ATOM     24  C   UNL     1       7.119   6.360  17.980  0.00  0.00    +0.000 C 
BRANCH  24  26
ATOM     25  C   UNL     1       8.223   8.609  18.134  0.00  0.00    +0.000 C 
ATOM     26  C   UNL     1       7.521   7.619  17.216  0.00  0.00    +0.000 C 
ENDBRANCH  24  26
ENDBRANCH  23  24
ENDBRANCH   1  23
TORSDOF 4
ENDMDL
