MODEL 1
REMARK VINA RESULT:      -6.8      0.000      0.000
REMARK  Name = 
REMARK  5 active torsions:
REMARK  status: ('A' for Active; 'I' for Inactive)
REMARK    1  A    between atoms: C_1  and  N_2
REMARK    2  A    between atoms: N_2  and  C_3
REMARK    3  A    between atoms: N_2  and  C_4
REMARK    4  A    between atoms: C_7  and  C_8
REMARK    5  A    between atoms: N_21  and  C_22
REMARK                            x       y       z     vdW  Elec       q    Type
REMARK                         _______ _______ _______ _____ _____    ______ ____
ROOT
ATOM      1  C   UNL     1      -0.103  11.983  18.589  0.00  0.00    +0.000 C 
ATOM      2  C   UNL     1      -1.597  11.843  18.335  0.00  0.00    +0.000 A 
ATOM      3  S   UNL     1      -2.279  11.440  16.771  0.00  0.00    +0.000 S 
ATOM      4  C   UNL     1      -3.925  11.463  17.432  0.00  0.00    +0.000 A 
ATOM      5  O   UNL     1      -4.933  11.221  16.806  0.00  0.00    +0.000 OA
ATOM      6  N   UNL     1      -3.829  11.814  18.752  0.00  0.00    +0.000 N 
ATOM      7  C   UNL     1      -2.568  12.021  19.237  0.00  0.00    +0.000 A 
ATOM      8  S   UNL     1      -2.358  12.442  20.870  0.00  0.00    +0.000 S 
ATOM      9  C   UNL     1      -0.619  13.030  20.935  0.00  0.00    +0.000 C 
ATOM     10  C   UNL     1       0.163  13.153  19.597  0.00  0.00    +0.000 C 
ATOM     11  C   UNL     1      -0.283  14.464  18.913  0.00  0.00    +0.000 C 
ATOM     12  C   UNL     1       0.411  15.446  19.783  0.00  0.00    +0.000 C 
ATOM     13  O   UNL     1      -0.148  16.359  20.365  0.00  0.00    +0.000 OA
ATOM     14  N   UNL     1       1.698  14.980  19.887  0.00  0.00    +0.000 N 
ATOM     15  C   UNL     1       1.658  13.589  19.817  0.00  0.00    +0.000 C 
ATOM     16  O   UNL     1       2.588  12.813  19.965  0.00  0.00    +0.000 OA
ATOM     17  H   UNL     1      -4.653  11.890  19.334  0.00  0.00    +0.000 HD
ENDROOT
BRANCH  14  18
ATOM     18  C   UNL     1       2.784  15.898  19.684  0.00  0.00    +0.000 A 
ATOM     19  C   UNL     1       3.448  15.895  18.427  0.00  0.00    +0.000 A 
ATOM     20  C   UNL     1       4.728  16.414  18.256  0.00  0.00    +0.000 A 
ATOM     21  C   UNL     1       5.366  17.019  19.324  0.00  0.00    +0.000 A 
ATOM     22 CL   UNL     1       7.000  17.515  19.147  0.00  0.00    +0.000 Cl
ATOM     23  C   UNL     1       4.685  17.164  20.537  0.00  0.00    +0.000 A 
ATOM     24  C   UNL     1       3.393  16.623  20.718  0.00  0.00    +0.000 A 
ENDBRANCH  14  18
BRANCH   1  28
ATOM     25  C   UNL     1       1.751   8.100  19.554  0.00  0.00    +0.000 A 
ATOM     26  C   UNL     1       0.999   8.838  20.478  0.00  0.00    +0.000 A 
ATOM     27  C   UNL     1       0.380  10.052  20.138  0.00  0.00    +0.000 A 
ATOM     28  C   UNL     1       0.461  10.584  18.840  0.00  0.00    +0.000 A 
ATOM     29  C   UNL     1       1.196   9.854  17.909  0.00  0.00    +0.000 A 
ATOM     30  C   UNL     1       1.813   8.639  18.260  0.00  0.00    +0.000 A 
BRANCH  25  32
ATOM     31  C   UNL     1       3.351   6.313  18.956  0.00  0.00    +0.000 C 
ATOM     32  N   UNL     1       2.387   6.900  19.883  0.00  0.00    +0.000 N 
ATOM     33  C   UNL     1       1.684   5.968  20.762  0.00  0.00    +0.000 C 
ENDBRANCH  25  32
ENDBRANCH   1  28
TORSDOF 3
ENDMDL
MODEL 2
REMARK VINA RESULT:      -6.8      3.865      7.470
REMARK  Name = 
REMARK  5 active torsions:
REMARK  status: ('A' for Active; 'I' for Inactive)
REMARK    1  A    between atoms: C_1  and  N_2
REMARK    2  A    between atoms: N_2  and  C_3
REMARK    3  A    between atoms: N_2  and  C_4
REMARK    4  A    between atoms: C_7  and  C_8
REMARK    5  A    between atoms: N_21  and  C_22
REMARK                            x       y       z     vdW  Elec       q    Type
REMARK                         _______ _______ _______ _____ _____    ______ ____
ROOT
ATOM      1  C   UNL     1      -0.816  12.212  19.926  0.00  0.00    +0.000 C 
ATOM      2  C   UNL     1      -0.644  13.544  20.643  0.00  0.00    +0.000 A 
ATOM      3  S   UNL     1      -0.103  15.009  19.846  0.00  0.00    +0.000 S 
ATOM      4  C   UNL     1      -0.251  15.937  21.350  0.00  0.00    +0.000 A 
ATOM      5  O   UNL     1      -0.025  17.121  21.466  0.00  0.00    +0.000 OA
ATOM      6  N   UNL     1      -0.648  15.065  22.329  0.00  0.00    +0.000 N 
ATOM      7  C   UNL     1      -0.858  13.770  21.943  0.00  0.00    +0.000 A 
ATOM      8  S   UNL     1      -1.370  12.628  23.092  0.00  0.00    +0.000 S 
ATOM      9  C   UNL     1      -1.090  11.023  22.245  0.00  0.00    +0.000 C 
ATOM     10  C   UNL     1      -0.374  11.037  20.865  0.00  0.00    +0.000 C 
ATOM     11  C   UNL     1       1.139  11.195  21.124  0.00  0.00    +0.000 C 
ATOM     12  C   UNL     1       1.448   9.835  21.633  0.00  0.00    +0.000 C 
ATOM     13  O   UNL     1       1.980   9.610  22.705  0.00  0.00    +0.000 OA
ATOM     14  N   UNL     1       0.863   8.980  20.733  0.00  0.00    +0.000 N 
ATOM     15  C   UNL     1      -0.277   9.603  20.227  0.00  0.00    +0.000 C 
ATOM     16  O   UNL     1      -1.111   9.125  19.475  0.00  0.00    +0.000 OA
ATOM     17  H   UNL     1      -0.799  15.379  23.279  0.00  0.00    +0.000 HD
ENDROOT
BRANCH  14  18
ATOM     18  C   UNL     1       1.631   7.878  20.225  0.00  0.00    +0.000 A 
ATOM     19  C   UNL     1       2.243   8.009  18.949  0.00  0.00    +0.000 A 
ATOM     20  C   UNL     1       2.642   6.909  18.194  0.00  0.00    +0.000 A 
ATOM     21  C   UNL     1       2.506   5.637  18.719  0.00  0.00    +0.000 A 
ATOM     22 CL   UNL     1       2.854   4.282  17.724  0.00  0.00    +0.000 Cl
ATOM     23  C   UNL     1       2.038   5.482  20.029  0.00  0.00    +0.000 A 
ATOM     24  C   UNL     1       1.617   6.594  20.790  0.00  0.00    +0.000 A 
ENDBRANCH  14  18
BRANCH   1  28
ATOM     25  C   UNL     1      -4.890  11.971  18.257  0.00  0.00    +0.000 A 
ATOM     26  C   UNL     1      -4.616  12.483  19.532  0.00  0.00    +0.000 A 
ATOM     27  C   UNL     1      -3.307  12.592  20.028  0.00  0.00    +0.000 A 
ATOM     28  C   UNL     1      -2.192  12.213  19.261  0.00  0.00    +0.000 A 
ATOM     29  C   UNL     1      -2.450  11.714  17.987  0.00  0.00    +0.000 A 
ATOM     30  C   UNL     1      -3.766  11.608  17.499  0.00  0.00    +0.000 A 
BRANCH  25  32
ATOM     31  C   UNL     1      -6.813  12.963  17.061  0.00  0.00    +0.000 C 
ATOM     32  N   UNL     1      -6.188  11.841  17.757  0.00  0.00    +0.000 N 
ATOM     33  C   UNL     1      -7.094  10.911  18.428  0.00  0.00    +0.000 C 
ENDBRANCH  25  32
ENDBRANCH   1  28
TORSDOF 3
ENDMDL
MODEL 3
REMARK VINA RESULT:      -6.4      4.280      6.841
REMARK  Name = 
REMARK  5 active torsions:
REMARK  status: ('A' for Active; 'I' for Inactive)
REMARK    1  A    between atoms: C_1  and  N_2
REMARK    2  A    between atoms: N_2  and  C_3
REMARK    3  A    between atoms: N_2  and  C_4
REMARK    4  A    between atoms: C_7  and  C_8
REMARK    5  A    between atoms: N_21  and  C_22
REMARK                            x       y       z     vdW  Elec       q    Type
REMARK                         _______ _______ _______ _____ _____    ______ ____
ROOT
ATOM      1  C   UNL     1      -1.171  13.211  20.018  0.00  0.00    +0.000 C 
ATOM      2  C   UNL     1      -1.332  11.926  19.220  0.00  0.00    +0.000 A 
ATOM      3  S   UNL     1      -2.031  11.865  17.613  0.00  0.00    +0.000 S 
ATOM      4  C   UNL     1      -1.768  10.113  17.514  0.00  0.00    +0.000 A 
ATOM      5  O   UNL     1      -2.041   9.419  16.561  0.00  0.00    +0.000 OA
ATOM      6  N   UNL     1      -1.223   9.716  18.706  0.00  0.00    +0.000 N 
ATOM      7  C   UNL     1      -0.990  10.698  19.627  0.00  0.00    +0.000 A 
ATOM      8  S   UNL     1      -0.299  10.294  21.125  0.00  0.00    +0.000 S 
ATOM      9  C   UNL     1      -0.586  11.795  22.143  0.00  0.00    +0.000 C 
ATOM     10  C   UNL     1      -1.448  12.938  21.536  0.00  0.00    +0.000 C 
ATOM     11  C   UNL     1      -2.930  12.530  21.671  0.00  0.00    +0.000 C 
ATOM     12  C   UNL     1      -3.112  12.731  23.130  0.00  0.00    +0.000 C 
ATOM     13  O   UNL     1      -3.512  11.871  23.895  0.00  0.00    +0.000 OA
ATOM     14  N   UNL     1      -2.584  13.972  23.385  0.00  0.00    +0.000 N 
ATOM     15  C   UNL     1      -1.539  14.187  22.487  0.00  0.00    +0.000 C 
ATOM     16  O   UNL     1      -0.769  15.133  22.461  0.00  0.00    +0.000 OA
ATOM     17  H   UNL     1      -0.987   8.747  18.875  0.00  0.00    +0.000 HD
ENDROOT
BRANCH  14  18
ATOM     18  C   UNL     1      -3.346  14.899  24.175  0.00  0.00    +0.000 A 
ATOM     19  C   UNL     1      -4.719  15.089  23.860  0.00  0.00    +0.000 A 
ATOM     20  C   UNL     1      -5.428  16.219  24.258  0.00  0.00    +0.000 A 
ATOM     21  C   UNL     1      -4.806  17.170  25.048  0.00  0.00    +0.000 A 
ATOM     22 CL   UNL     1      -5.636  18.631  25.404  0.00  0.00    +0.000 Cl
ATOM     23  C   UNL     1      -3.499  16.944  25.493  0.00  0.00    +0.000 A 
ATOM     24  C   UNL     1      -2.772  15.807  25.076  0.00  0.00    +0.000 A 
ENDBRANCH  14  18
BRANCH   1  28
ATOM     25  C   UNL     1       2.383  15.262  18.403  0.00  0.00    +0.000 A 
ATOM     26  C   UNL     1       1.222  15.941  18.795  0.00  0.00    +0.000 A 
ATOM     27  C   UNL     1       0.117  15.274  19.349  0.00  0.00    +0.000 A 
ATOM     28  C   UNL     1       0.123  13.885  19.562  0.00  0.00    +0.000 A 
ATOM     29  C   UNL     1       1.277  13.199  19.186  0.00  0.00    +0.000 A 
ATOM     30  C   UNL     1       2.378  13.877  18.633  0.00  0.00    +0.000 A 
BRANCH  25  32
ATOM     31  C   UNL     1       3.278  16.888  16.771  0.00  0.00    +0.000 C 
ATOM     32  N   UNL     1       3.483  15.910  17.836  0.00  0.00    +0.000 N 
ATOM     33  C   UNL     1       4.767  15.212  17.835  0.00  0.00    +0.000 C 
ENDBRANCH  25  32
ENDBRANCH   1  28
TORSDOF 3
ENDMDL
MODEL 4
REMARK VINA RESULT:      -6.3      4.178      6.632
REMARK  Name = 
REMARK  5 active torsions:
REMARK  status: ('A' for Active; 'I' for Inactive)
REMARK    1  A    between atoms: C_1  and  N_2
REMARK    2  A    between atoms: N_2  and  C_3
REMARK    3  A    between atoms: N_2  and  C_4
REMARK    4  A    between atoms: C_7  and  C_8
REMARK    5  A    between atoms: N_21  and  C_22
REMARK                            x       y       z     vdW  Elec       q    Type
REMARK                         _______ _______ _______ _____ _____    ______ ____
ROOT
ATOM      1  C   UNL     1      -0.845  13.063  20.109  0.00  0.00    +0.000 C 
ATOM      2  C   UNL     1      -1.096  11.826  19.258  0.00  0.00    +0.000 A 
ATOM      3  S   UNL     1      -1.754  11.885  17.634  0.00  0.00    +0.000 S 
ATOM      4  C   UNL     1      -1.641  10.122  17.474  0.00  0.00    +0.000 A 
ATOM      5  O   UNL     1      -1.947   9.489  16.489  0.00  0.00    +0.000 OA
ATOM      6  N   UNL     1      -1.165   9.636  18.663  0.00  0.00    +0.000 N 
ATOM      7  C   UNL     1      -0.872  10.560  19.626  0.00  0.00    +0.000 A 
ATOM      8  S   UNL     1      -0.259  10.042  21.124  0.00  0.00    +0.000 S 
ATOM      9  C   UNL     1      -0.443  11.524  22.192  0.00  0.00    +0.000 C 
ATOM     10  C   UNL     1      -1.185  12.760  21.608  0.00  0.00    +0.000 C 
ATOM     11  C   UNL     1      -2.701  12.478  21.693  0.00  0.00    +0.000 C 
ATOM     12  C   UNL     1      -2.903  12.641  23.154  0.00  0.00    +0.000 C 
ATOM     13  O   UNL     1      -3.397  11.793  23.876  0.00  0.00    +0.000 OA
ATOM     14  N   UNL     1      -2.277  13.822  23.469  0.00  0.00    +0.000 N 
ATOM     15  C   UNL     1      -1.194  13.977  22.605  0.00  0.00    +0.000 C 
ATOM     16  O   UNL     1      -0.344  14.852  22.633  0.00  0.00    +0.000 OA
ATOM     17  H   UNL     1      -1.018   8.644  18.800  0.00  0.00    +0.000 HD
ENDROOT
BRANCH  14  18
ATOM     18  C   UNL     1      -2.977  14.782  24.276  0.00  0.00    +0.000 A 
ATOM     19  C   UNL     1      -4.336  15.062  23.970  0.00  0.00    +0.000 A 
ATOM     20  C   UNL     1      -4.972  16.228  24.388  0.00  0.00    +0.000 A 
ATOM     21  C   UNL     1      -4.290  17.127  25.188  0.00  0.00    +0.000 A 
ATOM     22 CL   UNL     1      -5.026  18.631  25.569  0.00  0.00    +0.000 Cl
ATOM     23  C   UNL     1      -2.997  16.813  25.624  0.00  0.00    +0.000 A 
ATOM     24  C   UNL     1      -2.345  15.640  25.187  0.00  0.00    +0.000 A 
ENDBRANCH  14  18
BRANCH   1  28
ATOM     25  C   UNL     1       3.116  14.824  19.305  0.00  0.00    +0.000 A 
ATOM     26  C   UNL     1       2.929  13.713  20.137  0.00  0.00    +0.000 A 
ATOM     27  C   UNL     1       1.664  13.139  20.345  0.00  0.00    +0.000 A 
ATOM     28  C   UNL     1       0.514  13.637  19.710  0.00  0.00    +0.000 A 
ATOM     29  C   UNL     1       0.688  14.735  18.871  0.00  0.00    +0.000 A 
ATOM     30  C   UNL     1       1.960  15.302  18.669  0.00  0.00    +0.000 A 
BRANCH  25  32
ATOM     31  C   UNL     1       4.584  16.804  19.499  0.00  0.00    +0.000 C 
ATOM     32  N   UNL     1       4.366  15.415  19.102  0.00  0.00    +0.000 N 
ATOM     33  C   UNL     1       5.190  14.920  18.001  0.00  0.00    +0.000 C 
ENDBRANCH  25  32
ENDBRANCH   1  28
TORSDOF 3
ENDMDL
MODEL 5
REMARK VINA RESULT:      -6.2      3.891      5.541
REMARK  Name = 
REMARK  5 active torsions:
REMARK  status: ('A' for Active; 'I' for Inactive)
REMARK    1  A    between atoms: C_1  and  N_2
REMARK    2  A    between atoms: N_2  and  C_3
REMARK    3  A    between atoms: N_2  and  C_4
REMARK    4  A    between atoms: C_7  and  C_8
REMARK    5  A    between atoms: N_21  and  C_22
REMARK                            x       y       z     vdW  Elec       q    Type
REMARK                         _______ _______ _______ _____ _____    ______ ____
ROOT
ATOM      1  C   UNL     1       1.782  15.418  19.762  0.00  0.00    +0.000 C 
ATOM      2  C   UNL     1       0.797  16.542  19.473  0.00  0.00    +0.000 A 
ATOM      3  S   UNL     1      -0.392  16.480  18.185  0.00  0.00    +0.000 S 
ATOM      4  C   UNL     1      -1.031  18.072  18.637  0.00  0.00    +0.000 A 
ATOM      5  O   UNL     1      -1.960  18.630  18.096  0.00  0.00    +0.000 OA
ATOM      6  N   UNL     1      -0.274  18.534  19.680  0.00  0.00    +0.000 N 
ATOM      7  C   UNL     1       0.716  17.705  20.129  0.00  0.00    +0.000 A 
ATOM      8  S   UNL     1       1.690  18.194  21.433  0.00  0.00    +0.000 S 
ATOM      9  C   UNL     1       3.093  17.010  21.379  0.00  0.00    +0.000 C 
ATOM     10  C   UNL     1       3.167  16.016  20.186  0.00  0.00    +0.000 C 
ATOM     11  C   UNL     1       3.733  16.783  18.971  0.00  0.00    +0.000 C 
ATOM     12  C   UNL     1       5.153  16.894  19.387  0.00  0.00    +0.000 C 
ATOM     13  O   UNL     1       5.761  17.946  19.472  0.00  0.00    +0.000 OA
ATOM     14  N   UNL     1       5.506  15.628  19.784  0.00  0.00    +0.000 N 
ATOM     15  C   UNL     1       4.374  15.014  20.317  0.00  0.00    +0.000 C 
ATOM     16  O   UNL     1       4.308  13.923  20.860  0.00  0.00    +0.000 OA
ATOM     17  H   UNL     1      -0.462  19.433  20.104  0.00  0.00    +0.000 HD
ENDROOT
BRANCH  14  18
ATOM     18  C   UNL     1       6.734  15.066  19.295  0.00  0.00    +0.000 A 
ATOM     19  C   UNL     1       6.756  14.532  17.978  0.00  0.00    +0.000 A 
ATOM     20  C   UNL     1       7.720  13.619  17.558  0.00  0.00    +0.000 A 
ATOM     21  C   UNL     1       8.739  13.258  18.420  0.00  0.00    +0.000 A 
ATOM     22 CL   UNL     1       9.830  12.018  17.951  0.00  0.00    +0.000 Cl
ATOM     23  C   UNL     1       8.825  13.873  19.675  0.00  0.00    +0.000 A 
ATOM     24  C   UNL     1       7.840  14.786  20.109  0.00  0.00    +0.000 A 
ENDBRANCH  14  18
BRANCH   1  28
ATOM     25  C   UNL     1      -0.487  12.366  21.993  0.00  0.00    +0.000 A 
ATOM     26  C   UNL     1       0.332  12.060  20.898  0.00  0.00    +0.000 A 
ATOM     27  C   UNL     1       1.081  13.041  20.228  0.00  0.00    +0.000 A 
ATOM     28  C   UNL     1       1.069  14.386  20.635  0.00  0.00    +0.000 A 
ATOM     29  C   UNL     1       0.268  14.701  21.731  0.00  0.00    +0.000 A 
ATOM     30  C   UNL     1      -0.479  13.711  22.395  0.00  0.00    +0.000 A 
BRANCH  25  32
ATOM     31  C   UNL     1      -2.444  11.808  23.396  0.00  0.00    +0.000 C 
ATOM     32  N   UNL     1      -1.250  11.403  22.659  0.00  0.00    +0.000 N 
ATOM     33  C   UNL     1      -0.575  10.197  23.133  0.00  0.00    +0.000 C 
ENDBRANCH  25  32
ENDBRANCH   1  28
TORSDOF 3
ENDMDL
MODEL 6
REMARK VINA RESULT:      -6.1      3.396      7.470
REMARK  Name = 
REMARK  5 active torsions:
REMARK  status: ('A' for Active; 'I' for Inactive)
REMARK    1  A    between atoms: C_1  and  N_2
REMARK    2  A    between atoms: N_2  and  C_3
REMARK    3  A    between atoms: N_2  and  C_4
REMARK    4  A    between atoms: C_7  and  C_8
REMARK    5  A    between atoms: N_21  and  C_22
REMARK                            x       y       z     vdW  Elec       q    Type
REMARK                         _______ _______ _______ _____ _____    ______ ____
ROOT
ATOM      1  C   UNL     1      -0.042  13.346  21.019  0.00  0.00    +0.000 C 
ATOM      2  C   UNL     1      -1.133  13.758  21.996  0.00  0.00    +0.000 A 
ATOM      3  S   UNL     1      -0.810  14.517  23.544  0.00  0.00    +0.000 S 
ATOM      4  C   UNL     1      -2.544  14.644  23.896  0.00  0.00    +0.000 A 
ATOM      5  O   UNL     1      -3.020  15.141  24.892  0.00  0.00    +0.000 OA
ATOM      6  N   UNL     1      -3.215  14.068  22.850  0.00  0.00    +0.000 N 
ATOM      7  C   UNL     1      -2.448  13.588  21.824  0.00  0.00    +0.000 A 
ATOM      8  S   UNL     1      -3.202  12.876  20.479  0.00  0.00    +0.000 S 
ATOM      9  C   UNL     1      -1.820  12.020  19.624  0.00  0.00    +0.000 C 
ATOM     10  C   UNL     1      -0.430  11.998  20.320  0.00  0.00    +0.000 C 
ATOM     11  C   UNL     1      -0.469  10.905  21.409  0.00  0.00    +0.000 C 
ATOM     12  C   UNL     1      -0.418   9.695  20.550  0.00  0.00    +0.000 C 
ATOM     13  O   UNL     1      -1.241   8.798  20.582  0.00  0.00    +0.000 OA
ATOM     14  N   UNL     1       0.609   9.929  19.670  0.00  0.00    +0.000 N 
ATOM     15  C   UNL     1       0.670  11.302  19.436  0.00  0.00    +0.000 C 
ATOM     16  O   UNL     1       1.388  11.887  18.642  0.00  0.00    +0.000 OA
ATOM     17  H   UNL     1      -4.225  14.028  22.836  0.00  0.00    +0.000 HD
ENDROOT
BRANCH  14  18
ATOM     18  C   UNL     1       1.587   8.899  19.458  0.00  0.00    +0.000 A 
ATOM     19  C   UNL     1       2.186   8.787  18.174  0.00  0.00    +0.000 A 
ATOM     20  C   UNL     1       2.806   7.620  17.737  0.00  0.00    +0.000 A 
ATOM     21  C   UNL     1       2.909   6.540  18.596  0.00  0.00    +0.000 A 
ATOM     22 CL   UNL     1       3.533   5.056  18.000  0.00  0.00    +0.000 Cl
ATOM     23  C   UNL     1       2.454   6.666  19.914  0.00  0.00    +0.000 A 
ATOM     24  C   UNL     1       1.811   7.844  20.354  0.00  0.00    +0.000 A 
ENDBRANCH  14  18
BRANCH   1  28
ATOM     25  C   UNL     1       0.953  16.715  18.354  0.00  0.00    +0.000 A 
ATOM     26  C   UNL     1      -0.358  16.261  18.555  0.00  0.00    +0.000 A 
ATOM     27  C   UNL     1      -0.658  15.215  19.442  0.00  0.00    +0.000 A 
ATOM     28  C   UNL     1       0.340  14.577  20.198  0.00  0.00    +0.000 A 
ATOM     29  C   UNL     1       1.646  15.027  20.016  0.00  0.00    +0.000 A 
ATOM     30  C   UNL     1       1.937  16.076  19.125  0.00  0.00    +0.000 A 
BRANCH  25  32
ATOM     31  C   UNL     1       0.215  18.631  16.977  0.00  0.00    +0.000 C 
ATOM     32  N   UNL     1       1.268  17.744  17.463  0.00  0.00    +0.000 N 
ATOM     33  C   UNL     1       2.417  17.558  16.578  0.00  0.00    +0.000 C 
ENDBRANCH  25  32
ENDBRANCH   1  28
TORSDOF 3
ENDMDL
MODEL 7
REMARK VINA RESULT:      -6.0      3.723      7.488
REMARK  Name = 
REMARK  5 active torsions:
REMARK  status: ('A' for Active; 'I' for Inactive)
REMARK    1  A    between atoms: C_1  and  N_2
REMARK    2  A    between atoms: N_2  and  C_3
REMARK    3  A    between atoms: N_2  and  C_4
REMARK    4  A    between atoms: C_7  and  C_8
REMARK    5  A    between atoms: N_21  and  C_22
REMARK                            x       y       z     vdW  Elec       q    Type
REMARK                         _______ _______ _______ _____ _____    ______ ____
ROOT
ATOM      1  C   UNL     1      -0.942  12.298  19.923  0.00  0.00    +0.000 C 
ATOM      2  C   UNL     1      -0.673  13.617  20.633  0.00  0.00    +0.000 A 
ATOM      3  S   UNL     1      -0.161  15.075  19.805  0.00  0.00    +0.000 S 
ATOM      4  C   UNL     1      -0.156  15.991  21.325  0.00  0.00    +0.000 A 
ATOM      5  O   UNL     1       0.112  17.167  21.431  0.00  0.00    +0.000 OA
ATOM      6  N   UNL     1      -0.491  15.120  22.326  0.00  0.00    +0.000 N 
ATOM      7  C   UNL     1      -0.769  13.835  21.949  0.00  0.00    +0.000 A 
ATOM      8  S   UNL     1      -1.213  12.695  23.128  0.00  0.00    +0.000 S 
ATOM      9  C   UNL     1      -1.050  11.091  22.246  0.00  0.00    +0.000 C 
ATOM     10  C   UNL     1      -0.454  11.102  20.810  0.00  0.00    +0.000 C 
ATOM     11  C   UNL     1       1.080  11.217  20.941  0.00  0.00    +0.000 C 
ATOM     12  C   UNL     1       1.393   9.843  21.409  0.00  0.00    +0.000 C 
ATOM     13  O   UNL     1       2.008   9.592  22.430  0.00  0.00    +0.000 OA
ATOM     14  N   UNL     1       0.710   9.014  20.555  0.00  0.00    +0.000 N 
ATOM     15  C   UNL     1      -0.451   9.672  20.154  0.00  0.00    +0.000 C 
ATOM     16  O   UNL     1      -1.359   9.225  19.472  0.00  0.00    +0.000 OA
ATOM     17  H   UNL     1      -0.552  15.427  23.288  0.00  0.00    +0.000 HD
ENDROOT
BRANCH  14  18
ATOM     18  C   UNL     1       1.402   7.897  19.974  0.00  0.00    +0.000 A 
ATOM     19  C   UNL     1       1.485   6.690  20.720  0.00  0.00    +0.000 A 
ATOM     20  C   UNL     1       2.447   5.717  20.462  0.00  0.00    +0.000 A 
ATOM     21  C   UNL     1       3.320   5.885  19.403  0.00  0.00    +0.000 A 
ATOM     22 CL   UNL     1       4.599   4.760  19.188  0.00  0.00    +0.000 Cl
ATOM     23  C   UNL     1       3.174   6.995  18.563  0.00  0.00    +0.000 A 
ATOM     24  C   UNL     1       2.210   7.992  18.832  0.00  0.00    +0.000 A 
ENDBRANCH  14  18
BRANCH   1  28
ATOM     25  C   UNL     1      -5.154  12.205  18.622  0.00  0.00    +0.000 A 
ATOM     26  C   UNL     1      -4.742  12.770  19.836  0.00  0.00    +0.000 A 
ATOM     27  C   UNL     1      -3.390  12.830  20.212  0.00  0.00    +0.000 A 
ATOM     28  C   UNL     1      -2.369  12.344  19.378  0.00  0.00    +0.000 A 
ATOM     29  C   UNL     1      -2.765  11.789  18.162  0.00  0.00    +0.000 A 
ATOM     30  C   UNL     1      -4.122  11.734  17.795  0.00  0.00    +0.000 A 
BRANCH  25  32
ATOM     31  C   UNL     1      -6.982  12.924  17.121  0.00  0.00    +0.000 C 
ATOM     32  N   UNL     1      -6.496  12.124  18.242  0.00  0.00    +0.000 N 
ATOM     33  C   UNL     1      -7.481  11.780  19.266  0.00  0.00    +0.000 C 
ENDBRANCH  25  32
ENDBRANCH   1  28
TORSDOF 3
ENDMDL
MODEL 8
REMARK VINA RESULT:      -5.9      4.760      7.515
REMARK  Name = 
REMARK  5 active torsions:
REMARK  status: ('A' for Active; 'I' for Inactive)
REMARK    1  A    between atoms: C_1  and  N_2
REMARK    2  A    between atoms: N_2  and  C_3
REMARK    3  A    between atoms: N_2  and  C_4
REMARK    4  A    between atoms: C_7  and  C_8
REMARK    5  A    between atoms: N_21  and  C_22
REMARK                            x       y       z     vdW  Elec       q    Type
REMARK                         _______ _______ _______ _____ _____    ______ ____
ROOT
ATOM      1  C   UNL     1      -1.361  13.593  20.590  0.00  0.00    +0.000 C 
ATOM      2  C   UNL     1      -1.157  12.252  19.899  0.00  0.00    +0.000 A 
ATOM      3  S   UNL     1      -1.345  12.016  18.171  0.00  0.00    +0.000 S 
ATOM      4  C   UNL     1      -0.898  10.305  18.310  0.00  0.00    +0.000 A 
ATOM      5  O   UNL     1      -0.811   9.528  17.386  0.00  0.00    +0.000 OA
ATOM      6  N   UNL     1      -0.691  10.045  19.639  0.00  0.00    +0.000 N 
ATOM      7  C   UNL     1      -0.834  11.100  20.496  0.00  0.00    +0.000 A 
ATOM      8  S   UNL     1      -0.577  10.868  22.159  0.00  0.00    +0.000 S 
ATOM      9  C   UNL     1      -1.293  12.382  22.913  0.00  0.00    +0.000 C 
ATOM     10  C   UNL     1      -2.043  13.378  21.984  0.00  0.00    +0.000 C 
ATOM     11  C   UNL     1      -3.454  12.807  21.727  0.00  0.00    +0.000 C 
ATOM     12  C   UNL     1      -4.074  13.070  23.050  0.00  0.00    +0.000 C 
ATOM     13  O   UNL     1      -4.597  12.215  23.743  0.00  0.00    +0.000 OA
ATOM     14  N   UNL     1      -3.766  14.378  23.331  0.00  0.00    +0.000 N 
ATOM     15  C   UNL     1      -2.529  14.662  22.753  0.00  0.00    +0.000 C 
ATOM     16  O   UNL     1      -1.879  15.688  22.862  0.00  0.00    +0.000 OA
ATOM     17  H   UNL     1      -0.423   9.122  19.956  0.00  0.00    +0.000 HD
ENDROOT
BRANCH  14  18
ATOM     18  C   UNL     1      -4.811  15.253  23.784  0.00  0.00    +0.000 A 
ATOM     19  C   UNL     1      -6.098  15.134  23.193  0.00  0.00    +0.000 A 
ATOM     20  C   UNL     1      -7.040  16.157  23.240  0.00  0.00    +0.000 A 
ATOM     21  C   UNL     1      -6.754  17.315  23.941  0.00  0.00    +0.000 A 
ATOM     22 CL   UNL     1      -7.855  18.631  23.865  0.00  0.00    +0.000 Cl
ATOM     23  C   UNL     1      -5.552  17.407  24.652  0.00  0.00    +0.000 A 
ATOM     24  C   UNL     1      -4.588  16.377  24.592  0.00  0.00    +0.000 A 
ENDBRANCH  14  18
BRANCH   1  28
ATOM     25  C   UNL     1       2.449  15.706  19.910  0.00  0.00    +0.000 A 
ATOM     26  C   UNL     1       1.327  15.870  19.087  0.00  0.00    +0.000 A 
ATOM     27  C   UNL     1       0.108  15.222  19.347  0.00  0.00    +0.000 A 
ATOM     28  C   UNL     1      -0.061  14.386  20.463  0.00  0.00    +0.000 A 
ATOM     29  C   UNL     1       1.044  14.223  21.296  0.00  0.00    +0.000 A 
ATOM     30  C   UNL     1       2.261  14.877  21.027  0.00  0.00    +0.000 A 
BRANCH  25  32
ATOM     31  C   UNL     1       4.107  16.539  18.277  0.00  0.00    +0.000 C 
ATOM     32  N   UNL     1       3.672  16.331  19.655  0.00  0.00    +0.000 N 
ATOM     33  C   UNL     1       4.731  16.205  20.655  0.00  0.00    +0.000 C 
ENDBRANCH  25  32
ENDBRANCH   1  28
TORSDOF 3
ENDMDL
MODEL 9
REMARK VINA RESULT:      -5.8      4.531      7.301
REMARK  Name = 
REMARK  5 active torsions:
REMARK  status: ('A' for Active; 'I' for Inactive)
REMARK    1  A    between atoms: C_1  and  N_2
REMARK    2  A    between atoms: N_2  and  C_3
REMARK    3  A    between atoms: N_2  and  C_4
REMARK    4  A    between atoms: C_7  and  C_8
REMARK    5  A    between atoms: N_21  and  C_22
REMARK                            x       y       z     vdW  Elec       q    Type
REMARK                         _______ _______ _______ _____ _____    ______ ____
ROOT
ATOM      1  C   UNL     1      -1.354  13.405  20.223  0.00  0.00    +0.000 C 
ATOM      2  C   UNL     1      -1.288  12.072  19.492  0.00  0.00    +0.000 A 
ATOM      3  S   UNL     1      -1.737  11.867  17.809  0.00  0.00    +0.000 S 
ATOM      4  C   UNL     1      -1.317  10.145  17.859  0.00  0.00    +0.000 A 
ATOM      5  O   UNL     1      -1.388   9.381  16.922  0.00  0.00    +0.000 OA
ATOM      6  N   UNL     1      -0.921   9.859  19.138  0.00  0.00    +0.000 N 
ATOM      7  C   UNL     1      -0.909  10.903  20.020  0.00  0.00    +0.000 A 
ATOM      8  S   UNL     1      -0.413  10.638  21.624  0.00  0.00    +0.000 S 
ATOM      9  C   UNL     1      -0.971  12.156  22.495  0.00  0.00    +0.000 C 
ATOM     10  C   UNL     1      -1.826  13.183  21.701  0.00  0.00    +0.000 C 
ATOM     11  C   UNL     1      -3.273  12.648  21.650  0.00  0.00    +0.000 C 
ATOM     12  C   UNL     1      -3.683  12.904  23.053  0.00  0.00    +0.000 C 
ATOM     13  O   UNL     1      -4.118  12.051  23.806  0.00  0.00    +0.000 OA
ATOM     14  N   UNL     1      -3.304  14.200  23.302  0.00  0.00    +0.000 N 
ATOM     15  C   UNL     1      -2.160  14.465  22.550  0.00  0.00    +0.000 C 
ATOM     16  O   UNL     1      -1.476  15.474  22.574  0.00  0.00    +0.000 OA
ATOM     17  H   UNL     1      -0.632   8.925  19.400  0.00  0.00    +0.000 HD
ENDROOT
BRANCH  14  18
ATOM     18  C   UNL     1      -4.248  15.091  23.917  0.00  0.00    +0.000 A 
ATOM     19  C   UNL     1      -5.581  15.112  23.423  0.00  0.00    +0.000 A 
ATOM     20  C   UNL     1      -6.442  16.183  23.641  0.00  0.00    +0.000 A 
ATOM     21  C   UNL     1      -6.023  17.247  24.420  0.00  0.00    +0.000 A 
ATOM     22 CL   UNL     1      -7.031  18.631  24.554  0.00  0.00    +0.000 Cl
ATOM     23  C   UNL     1      -4.768  17.193  25.037  0.00  0.00    +0.000 A 
ATOM     24  C   UNL     1      -3.887  16.115  24.804  0.00  0.00    +0.000 A 
ENDBRANCH  14  18
BRANCH   1  28
ATOM     25  C   UNL     1       2.395  15.664  19.691  0.00  0.00    +0.000 A 
ATOM     26  C   UNL     1       2.340  14.415  20.325  0.00  0.00    +0.000 A 
ATOM     27  C   UNL     1       1.142  13.691  20.445  0.00  0.00    +0.000 A 
ATOM     28  C   UNL     1      -0.068  14.171  19.914  0.00  0.00    +0.000 A 
ATOM     29  C   UNL     1      -0.023  15.406  19.271  0.00  0.00    +0.000 A 
ATOM     30  C   UNL     1       1.182  16.123  19.156  0.00  0.00    +0.000 A 
BRANCH  25  32
ATOM     31  C   UNL     1       3.845  17.487  20.519  0.00  0.00    +0.000 C 
ATOM     32  N   UNL     1       3.576  16.403  19.579  0.00  0.00    +0.000 N 
ATOM     33  C   UNL     1       4.187  16.526  18.257  0.00  0.00    +0.000 C 
ENDBRANCH  25  32
ENDBRANCH   1  28
TORSDOF 3
ENDMDL
