MODEL 1
REMARK VINA RESULT:      -8.7      0.000      0.000
REMARK  Name = 
REMARK  5 active torsions:
REMARK  status: ('A' for Active; 'I' for Inactive)
REMARK    1  A    between atoms: C_6  and  N_7
REMARK    2  A    between atoms: C_8  and  C_10
REMARK    3  A    between atoms: C_10  and  C_11
REMARK    4  A    between atoms: N_13  and  C_14
REMARK    5  A    between atoms: C_27  and  C_28
REMARK                            x       y       z     vdW  Elec       q    Type
REMARK                         _______ _______ _______ _____ _____    ______ ____
ROOT
ATOM      1  O   UNL     1       2.283   4.729  21.007  0.00  0.00    +0.000 OA
ATOM      2  C   UNL     1       2.117   5.787  20.433  0.00  0.00    +0.000 C 
ATOM      3  N   UNL     1       1.500   6.899  20.967  0.00  0.00    +0.000 N 
ATOM      4  C   UNL     1       1.510   7.961  20.075  0.00  0.00    +0.000 A 
ATOM      5  C   UNL     1       0.958   9.197  20.313  0.00  0.00    +0.000 A 
ATOM      6  C   UNL     1       1.003  10.155  19.298  0.00  0.00    +0.000 A 
ATOM      7  C   UNL     1       1.653   9.835  18.083  0.00  0.00    +0.000 A 
ATOM      8  C   UNL     1       2.221   8.558  17.867  0.00  0.00    +0.000 A 
ATOM      9  C   UNL     1       2.142   7.621  18.885  0.00  0.00    +0.000 A 
ATOM     10  C   UNL     1       2.551   6.216  19.043  0.00  0.00    +0.000 C 
ATOM     11  C   UNL     1       3.160   5.446  18.130  0.00  0.00    +0.000 C 
ATOM     12  H   UNL     1       1.089   6.907  21.889  0.00  0.00    +0.000 HD
ENDROOT
BRANCH  11  13
ATOM     13  C   UNL     1       3.356   4.060  18.339  0.00  0.00    +0.000 A 
ATOM     14  C   UNL     1       2.657   2.949  17.911  0.00  0.00    +0.000 A 
ATOM     15  C   UNL     1       3.244   1.813  18.519  0.00  0.00    +0.000 A 
ATOM     16  C   UNL     1       4.306   2.256  19.274  0.00  0.00    +0.000 A 
ATOM     17  N   UNL     1       4.375   3.623  19.151  0.00  0.00    +0.000 N 
ATOM     18  H   UNL     1       5.030   4.215  19.640  0.00  0.00    +0.000 HD
ENDBRANCH  11  13
BRANCH   6  19
ATOM     19  N   UNL     1       0.414  11.433  19.469  0.00  0.00    +0.000 N 
ATOM     20  C   UNL     1       0.863  12.390  20.368  0.00  0.00    +0.000 C 
ATOM     21  O   UNL     1       1.768  12.270  21.184  0.00  0.00    +0.000 OA
ATOM     22  H   UNL     1      -0.465  11.617  18.994  0.00  0.00    +0.000 HD
BRANCH  20  23
ATOM     23  C   UNL     1       0.129  13.691  20.361  0.00  0.00    +0.000 C 
ATOM     24  C   UNL     1       0.974  14.908  19.985  0.00  0.00    +0.000 C 
ATOM     25  C   UNL     1      -0.091  14.444  19.048  0.00  0.00    +0.000 C 
BRANCH  23  26
ATOM     26  C   UNL     1      -1.010  13.761  21.323  0.00  0.00    +0.000 C 
ATOM     27  O   UNL     1      -0.993  14.706  22.109  0.00  0.00    +0.000 OA
ATOM     28  N   UNL     1      -1.969  12.762  21.242  0.00  0.00    +0.000 N 
ATOM     29  H   UNL     1      -1.774  11.965  20.648  0.00  0.00    +0.000 HD
BRANCH  28  30
ATOM     30  C   UNL     1      -3.121  12.710  22.064  0.00  0.00    +0.000 A 
ATOM     31  C   UNL     1      -4.392  13.033  21.569  0.00  0.00    +0.000 A 
ATOM     32  C   UNL     1      -5.494  13.120  22.415  0.00  0.00    +0.000 A 
ATOM     33  C   UNL     1      -5.339  12.851  23.762  0.00  0.00    +0.000 A 
ATOM     34  F   UNL     1      -6.386  12.984  24.586  0.00  0.00    +0.000 F 
ATOM     35  C   UNL     1      -4.108  12.446  24.267  0.00  0.00    +0.000 A 
ATOM     36  C   UNL     1      -2.997  12.356  23.415  0.00  0.00    +0.000 A 
ENDBRANCH  28  30
ENDBRANCH  23  26
ENDBRANCH  20  23
ENDBRANCH   6  19
TORSDOF 5
ENDMDL
MODEL 2
REMARK VINA RESULT:      -8.6      4.237     10.785
REMARK  Name = 
REMARK  5 active torsions:
REMARK  status: ('A' for Active; 'I' for Inactive)
REMARK    1  A    between atoms: C_6  and  N_7
REMARK    2  A    between atoms: C_8  and  C_10
REMARK    3  A    between atoms: C_10  and  C_11
REMARK    4  A    between atoms: N_13  and  C_14
REMARK    5  A    between atoms: C_27  and  C_28
REMARK                            x       y       z     vdW  Elec       q    Type
REMARK                         _______ _______ _______ _____ _____    ______ ____
ROOT
ATOM      1  O   UNL     1       0.041  12.307  21.826  0.00  0.00    +0.000 OA
ATOM      2  C   UNL     1       0.454  11.427  21.096  0.00  0.00    +0.000 C 
ATOM      3  N   UNL     1       0.903  10.189  21.508  0.00  0.00    +0.000 N 
ATOM      4  C   UNL     1       1.263   9.397  20.428  0.00  0.00    +0.000 A 
ATOM      5  C   UNL     1       1.761   8.119  20.518  0.00  0.00    +0.000 A 
ATOM      6  C   UNL     1       2.127   7.460  19.344  0.00  0.00    +0.000 A 
ATOM      7  C   UNL     1       1.931   8.112  18.103  0.00  0.00    +0.000 A 
ATOM      8  C   UNL     1       1.408   9.425  18.038  0.00  0.00    +0.000 A 
ATOM      9  C   UNL     1       1.074  10.061  19.223  0.00  0.00    +0.000 A 
ATOM     10  C   UNL     1       0.561  11.393  19.582  0.00  0.00    +0.000 C 
ATOM     11  C   UNL     1       0.272  12.399  18.744  0.00  0.00    +0.000 C 
ATOM     12  H   UNL     1       0.962   9.925  22.480  0.00  0.00    +0.000 HD
ENDROOT
BRANCH  11  13
ATOM     13  C   UNL     1      -0.058  13.690  19.219  0.00  0.00    +0.000 A 
ATOM     14  C   UNL     1       0.702  14.822  19.438  0.00  0.00    +0.000 A 
ATOM     15  C   UNL     1      -0.138  15.795  20.031  0.00  0.00    +0.000 A 
ATOM     16  C   UNL     1      -1.396  15.245  20.128  0.00  0.00    +0.000 A 
ATOM     17  N   UNL     1      -1.342  13.969  19.623  0.00  0.00    +0.000 N 
ATOM     18  H   UNL     1      -2.113  13.317  19.617  0.00  0.00    +0.000 HD
ENDBRANCH  11  13
BRANCH   6  19
ATOM     19  N   UNL     1       2.686   6.158  19.376  0.00  0.00    +0.000 N 
ATOM     20  C   UNL     1       2.094   5.065  19.995  0.00  0.00    +0.000 C 
ATOM     21  O   UNL     1       1.061   5.060  20.652  0.00  0.00    +0.000 OA
ATOM     22  H   UNL     1       3.635   6.040  19.033  0.00  0.00    +0.000 HD
BRANCH  20  23
ATOM     23  C   UNL     1       2.826   3.768  19.876  0.00  0.00    +0.000 C 
ATOM     24  C   UNL     1       2.685   2.835  21.078  0.00  0.00    +0.000 C 
ATOM     25  C   UNL     1       2.051   2.453  19.783  0.00  0.00    +0.000 C 
BRANCH  23  26
ATOM     26  C   UNL     1       4.059   3.832  19.038  0.00  0.00    +0.000 C 
ATOM     27  O   UNL     1       5.069   3.330  19.529  0.00  0.00    +0.000 OA
ATOM     28  N   UNL     1       3.951   4.445  17.799  0.00  0.00    +0.000 N 
ATOM     29  H   UNL     1       3.095   4.946  17.590  0.00  0.00    +0.000 HD
BRANCH  28  30
ATOM     30  C   UNL     1       5.023   4.554  16.880  0.00  0.00    +0.000 A 
ATOM     31  C   UNL     1       6.064   5.472  17.070  0.00  0.00    +0.000 A 
ATOM     32  C   UNL     1       7.034   5.676  16.092  0.00  0.00    +0.000 A 
ATOM     33  C   UNL     1       6.988   4.934  14.926  0.00  0.00    +0.000 A 
ATOM     34  F   UNL     1       7.890   5.164  13.963  0.00  0.00    +0.000 F 
ATOM     35  C   UNL     1       6.015   3.957  14.745  0.00  0.00    +0.000 A 
ATOM     36  C   UNL     1       5.039   3.750  15.731  0.00  0.00    +0.000 A 
ENDBRANCH  28  30
ENDBRANCH  23  26
ENDBRANCH  20  23
ENDBRANCH   6  19
TORSDOF 5
ENDMDL
MODEL 3
REMARK VINA RESULT:      -8.6      0.842      1.121
REMARK  Name = 
REMARK  5 active torsions:
REMARK  status: ('A' for Active; 'I' for Inactive)
REMARK    1  A    between atoms: C_6  and  N_7
REMARK    2  A    between atoms: C_8  and  C_10
REMARK    3  A    between atoms: C_10  and  C_11
REMARK    4  A    between atoms: N_13  and  C_14
REMARK    5  A    between atoms: C_27  and  C_28
REMARK                            x       y       z     vdW  Elec       q    Type
REMARK                         _______ _______ _______ _____ _____    ______ ____
ROOT
ATOM      1  O   UNL     1       2.387   4.606  21.007  0.00  0.00    +0.000 OA
ATOM      2  C   UNL     1       2.201   5.667  20.444  0.00  0.00    +0.000 C 
ATOM      3  N   UNL     1       1.549   6.756  20.984  0.00  0.00    +0.000 N 
ATOM      4  C   UNL     1       1.542   7.828  20.104  0.00  0.00    +0.000 A 
ATOM      5  C   UNL     1       0.956   9.047  20.350  0.00  0.00    +0.000 A 
ATOM      6  C   UNL     1       0.987  10.018  19.347  0.00  0.00    +0.000 A 
ATOM      7  C   UNL     1       1.657   9.729  18.135  0.00  0.00    +0.000 A 
ATOM      8  C   UNL     1       2.260   8.469  17.911  0.00  0.00    +0.000 A 
ATOM      9  C   UNL     1       2.194   7.519  18.917  0.00  0.00    +0.000 A 
ATOM     10  C   UNL     1       2.638   6.122  19.063  0.00  0.00    +0.000 C 
ATOM     11  C   UNL     1       3.276   5.379  18.149  0.00  0.00    +0.000 C 
ATOM     12  H   UNL     1       1.128   6.742  21.901  0.00  0.00    +0.000 HD
ENDROOT
BRANCH  11  13
ATOM     13  C   UNL     1       3.505   3.997  18.343  0.00  0.00    +0.000 A 
ATOM     14  C   UNL     1       2.870   2.872  17.856  0.00  0.00    +0.000 A 
ATOM     15  C   UNL     1       3.458   1.744  18.477  0.00  0.00    +0.000 A 
ATOM     16  C   UNL     1       4.459   2.206  19.301  0.00  0.00    +0.000 A 
ATOM     17  N   UNL     1       4.489   3.576  19.206  0.00  0.00    +0.000 N 
ATOM     18  H   UNL     1       5.095   4.179  19.744  0.00  0.00    +0.000 HD
ENDBRANCH  11  13
BRANCH   6  19
ATOM     19  N   UNL     1       0.363  11.278  19.526  0.00  0.00    +0.000 N 
ATOM     20  C   UNL     1       0.853  12.287  20.344  0.00  0.00    +0.000 C 
ATOM     21  O   UNL     1       1.833  12.233  21.075  0.00  0.00    +0.000 OA
ATOM     22  H   UNL     1      -0.564  11.409  19.129  0.00  0.00    +0.000 HD
BRANCH  20  23
ATOM     23  C   UNL     1       0.067  13.558  20.359  0.00  0.00    +0.000 C 
ATOM     24  C   UNL     1       0.897  14.828  20.546  0.00  0.00    +0.000 C 
ATOM     25  C   UNL     1       0.234  14.579  19.232  0.00  0.00    +0.000 C 
BRANCH  23  26
ATOM     26  C   UNL     1      -1.325  13.415  20.876  0.00  0.00    +0.000 C 
ATOM     27  O   UNL     1      -2.121  12.850  20.129  0.00  0.00    +0.000 OA
ATOM     28  N   UNL     1      -1.587  13.929  22.137  0.00  0.00    +0.000 N 
ATOM     29  H   UNL     1      -0.874  14.501  22.575  0.00  0.00    +0.000 HD
BRANCH  28  30
ATOM     30  C   UNL     1      -2.849  13.843  22.775  0.00  0.00    +0.000 A 
ATOM     31  C   UNL     1      -3.164  12.787  23.641  0.00  0.00    +0.000 A 
ATOM     32  C   UNL     1      -4.451  12.630  24.149  0.00  0.00    +0.000 A 
ATOM     33  C   UNL     1      -5.428  13.551  23.818  0.00  0.00    +0.000 A 
ATOM     34  F   UNL     1      -6.678  13.373  24.263  0.00  0.00    +0.000 F 
ATOM     35  C   UNL     1      -5.124  14.654  23.028  0.00  0.00    +0.000 A 
ATOM     36  C   UNL     1      -3.826  14.814  22.518  0.00  0.00    +0.000 A 
ENDBRANCH  28  30
ENDBRANCH  23  26
ENDBRANCH  20  23
ENDBRANCH   6  19
TORSDOF 5
ENDMDL
MODEL 4
REMARK VINA RESULT:      -8.6      0.910      1.245
REMARK  Name = 
REMARK  5 active torsions:
REMARK  status: ('A' for Active; 'I' for Inactive)
REMARK    1  A    between atoms: C_6  and  N_7
REMARK    2  A    between atoms: C_8  and  C_10
REMARK    3  A    between atoms: C_10  and  C_11
REMARK    4  A    between atoms: N_13  and  C_14
REMARK    5  A    between atoms: C_27  and  C_28
REMARK                            x       y       z     vdW  Elec       q    Type
REMARK                         _______ _______ _______ _____ _____    ______ ____
ROOT
ATOM      1  O   UNL     1       2.133   4.795  20.939  0.00  0.00    +0.000 OA
ATOM      2  C   UNL     1       2.055   5.867  20.372  0.00  0.00    +0.000 C 
ATOM      3  N   UNL     1       1.648   7.051  20.950  0.00  0.00    +0.000 N 
ATOM      4  C   UNL     1       1.712   8.103  20.049  0.00  0.00    +0.000 A 
ATOM      5  C   UNL     1       1.358   9.402  20.324  0.00  0.00    +0.000 A 
ATOM      6  C   UNL     1       1.429  10.346  19.299  0.00  0.00    +0.000 A 
ATOM      7  C   UNL     1       1.905   9.943  18.029  0.00  0.00    +0.000 A 
ATOM      8  C   UNL     1       2.272   8.601  17.774  0.00  0.00    +0.000 A 
ATOM      9  C   UNL     1       2.170   7.682  18.806  0.00  0.00    +0.000 A 
ATOM     10  C   UNL     1       2.401   6.235  18.940  0.00  0.00    +0.000 C 
ATOM     11  C   UNL     1       2.807   5.391  17.981  0.00  0.00    +0.000 C 
ATOM     12  H   UNL     1       1.337   7.113  21.908  0.00  0.00    +0.000 HD
ENDROOT
BRANCH  11  13
ATOM     13  C   UNL     1       2.835   3.991  18.186  0.00  0.00    +0.000 A 
ATOM     14  C   UNL     1       1.894   3.003  17.977  0.00  0.00    +0.000 A 
ATOM     15  C   UNL     1       2.431   1.788  18.468  0.00  0.00    +0.000 A 
ATOM     16  C   UNL     1       3.698   2.059  18.933  0.00  0.00    +0.000 A 
ATOM     17  N   UNL     1       3.941   3.399  18.748  0.00  0.00    +0.000 N 
ATOM     18  H   UNL     1       4.776   3.881  19.047  0.00  0.00    +0.000 HD
ENDBRANCH  11  13
BRANCH   6  19
ATOM     19  N   UNL     1       1.037  11.692  19.512  0.00  0.00    +0.000 N 
ATOM     20  C   UNL     1      -0.236  12.186  19.262  0.00  0.00    +0.000 C 
ATOM     21  O   UNL     1      -1.179  11.582  18.768  0.00  0.00    +0.000 OA
ATOM     22  H   UNL     1       1.760  12.366  19.745  0.00  0.00    +0.000 HD
BRANCH  20  23
ATOM     23  C   UNL     1      -0.457  13.625  19.596  0.00  0.00    +0.000 C 
ATOM     24  C   UNL     1       0.784  14.511  19.489  0.00  0.00    +0.000 C 
ATOM     25  C   UNL     1      -0.328  14.696  18.511  0.00  0.00    +0.000 C 
BRANCH  23  26
ATOM     26  C   UNL     1      -1.543  13.868  20.591  0.00  0.00    +0.000 C 
ATOM     27  O   UNL     1      -1.758  15.044  20.876  0.00  0.00    +0.000 OA
ATOM     28  N   UNL     1      -2.199  12.755  21.095  0.00  0.00    +0.000 N 
ATOM     29  H   UNL     1      -1.816  11.841  20.883  0.00  0.00    +0.000 HD
BRANCH  28  30
ATOM     30  C   UNL     1      -3.270  12.825  22.020  0.00  0.00    +0.000 A 
ATOM     31  C   UNL     1      -3.065  12.652  23.395  0.00  0.00    +0.000 A 
ATOM     32  C   UNL     1      -4.138  12.577  24.280  0.00  0.00    +0.000 A 
ATOM     33  C   UNL     1      -5.426  12.708  23.797  0.00  0.00    +0.000 A 
ATOM     34  F   UNL     1      -6.461  12.585  24.638  0.00  0.00    +0.000 F 
ATOM     35  C   UNL     1      -5.656  12.964  22.449  0.00  0.00    +0.000 A 
ATOM     36  C   UNL     1      -4.575  13.041  21.557  0.00  0.00    +0.000 A 
ENDBRANCH  28  30
ENDBRANCH  23  26
ENDBRANCH  20  23
ENDBRANCH   6  19
TORSDOF 5
ENDMDL
MODEL 5
REMARK VINA RESULT:      -8.5      4.035     10.695
REMARK  Name = 
REMARK  5 active torsions:
REMARK  status: ('A' for Active; 'I' for Inactive)
REMARK    1  A    between atoms: C_6  and  N_7
REMARK    2  A    between atoms: C_8  and  C_10
REMARK    3  A    between atoms: C_10  and  C_11
REMARK    4  A    between atoms: N_13  and  C_14
REMARK    5  A    between atoms: C_27  and  C_28
REMARK                            x       y       z     vdW  Elec       q    Type
REMARK                         _______ _______ _______ _____ _____    ______ ____
ROOT
ATOM      1  O   UNL     1      -1.156  11.877  22.658  0.00  0.00    +0.000 OA
ATOM      2  C   UNL     1      -0.523  11.126  21.943  0.00  0.00    +0.000 C 
ATOM      3  N   UNL     1      -0.065   9.875  22.302  0.00  0.00    +0.000 N 
ATOM      4  C   UNL     1       0.583   9.252  21.247  0.00  0.00    +0.000 A 
ATOM      5  C   UNL     1       1.161   8.006  21.300  0.00  0.00    +0.000 A 
ATOM      6  C   UNL     1       1.823   7.527  20.168  0.00  0.00    +0.000 A 
ATOM      7  C   UNL     1       1.837   8.320  18.997  0.00  0.00    +0.000 A 
ATOM      8  C   UNL     1       1.226   9.595  18.965  0.00  0.00    +0.000 A 
ATOM      9  C   UNL     1       0.595  10.052  20.111  0.00  0.00    +0.000 A 
ATOM     10  C   UNL     1      -0.096  11.293  20.496  0.00  0.00    +0.000 C 
ATOM     11  C   UNL     1      -0.289  12.379  19.733  0.00  0.00    +0.000 C 
ATOM     12  H   UNL     1      -0.189   9.492  23.227  0.00  0.00    +0.000 HD
ENDROOT
BRANCH  11  13
ATOM     13  C   UNL     1      -0.824  13.575  20.266  0.00  0.00    +0.000 A 
ATOM     14  C   UNL     1      -0.236  14.668  20.871  0.00  0.00    +0.000 A 
ATOM     15  C   UNL     1      -1.272  15.526  21.311  0.00  0.00    +0.000 A 
ATOM     16  C   UNL     1      -2.465  14.953  20.933  0.00  0.00    +0.000 A 
ATOM     17  N   UNL     1      -2.184  13.772  20.288  0.00  0.00    +0.000 N 
ATOM     18  H   UNL     1      -2.877  13.120  19.949  0.00  0.00    +0.000 HD
ENDBRANCH  11  13
BRANCH   6  19
ATOM     19  N   UNL     1       2.475   6.268  20.177  0.00  0.00    +0.000 N 
ATOM     20  C   UNL     1       1.821   5.047  20.274  0.00  0.00    +0.000 C 
ATOM     21  O   UNL     1       0.622   4.863  20.433  0.00  0.00    +0.000 OA
ATOM     22  H   UNL     1       3.489   6.259  20.239  0.00  0.00    +0.000 HD
BRANCH  20  23
ATOM     23  C   UNL     1       2.690   3.833  20.220  0.00  0.00    +0.000 C 
ATOM     24  C   UNL     1       2.725   3.007  21.506  0.00  0.00    +0.000 C 
ATOM     25  C   UNL     1       2.067   2.437  20.294  0.00  0.00    +0.000 C 
BRANCH  23  26
ATOM     26  C   UNL     1       3.859   3.951  19.300  0.00  0.00    +0.000 C 
ATOM     27  O   UNL     1       4.902   3.429  19.686  0.00  0.00    +0.000 OA
ATOM     28  N   UNL     1       3.660   4.633  18.109  0.00  0.00    +0.000 N 
ATOM     29  H   UNL     1       2.790   5.140  17.991  0.00  0.00    +0.000 HD
BRANCH  28  30
ATOM     30  C   UNL     1       4.661   4.801  17.122  0.00  0.00    +0.000 A 
ATOM     31  C   UNL     1       4.862   3.853  16.110  0.00  0.00    +0.000 A 
ATOM     32  C   UNL     1       5.939   3.951  15.233  0.00  0.00    +0.000 A 
ATOM     33  C   UNL     1       6.807   5.021  15.342  0.00  0.00    +0.000 A 
ATOM     34  F   UNL     1       7.873   5.091  14.533  0.00  0.00    +0.000 F 
ATOM     35  C   UNL     1       6.586   6.022  16.282  0.00  0.00    +0.000 A 
ATOM     36  C   UNL     1       5.500   5.924  17.165  0.00  0.00    +0.000 A 
ENDBRANCH  28  30
ENDBRANCH  23  26
ENDBRANCH  20  23
ENDBRANCH   6  19
TORSDOF 5
ENDMDL
MODEL 6
REMARK VINA RESULT:      -8.4      1.007      1.128
REMARK  Name = 
REMARK  5 active torsions:
REMARK  status: ('A' for Active; 'I' for Inactive)
REMARK    1  A    between atoms: C_6  and  N_7
REMARK    2  A    between atoms: C_8  and  C_10
REMARK    3  A    between atoms: C_10  and  C_11
REMARK    4  A    between atoms: N_13  and  C_14
REMARK    5  A    between atoms: C_27  and  C_28
REMARK                            x       y       z     vdW  Elec       q    Type
REMARK                         _______ _______ _______ _____ _____    ______ ____
ROOT
ATOM      1  O   UNL     1       2.528   4.813  20.744  0.00  0.00    +0.000 OA
ATOM      2  C   UNL     1       2.240   5.909  20.304  0.00  0.00    +0.000 C 
ATOM      3  N   UNL     1       1.678   6.940  21.027  0.00  0.00    +0.000 N 
ATOM      4  C   UNL     1       1.514   8.075  20.246  0.00  0.00    +0.000 A 
ATOM      5  C   UNL     1       0.966   9.259  20.679  0.00  0.00    +0.000 A 
ATOM      6  C   UNL     1       0.820  10.302  19.763  0.00  0.00    +0.000 A 
ATOM      7  C   UNL     1       1.280  10.119  18.438  0.00  0.00    +0.000 A 
ATOM      8  C   UNL     1       1.848   8.893  18.020  0.00  0.00    +0.000 A 
ATOM      9  C   UNL     1       1.961   7.869  18.947  0.00  0.00    +0.000 A 
ATOM     10  C   UNL     1       2.435   6.476  18.909  0.00  0.00    +0.000 C 
ATOM     11  C   UNL     1       2.917   5.817  17.846  0.00  0.00    +0.000 C 
ATOM     12  H   UNL     1       1.418   6.849  21.997  0.00  0.00    +0.000 HD
ENDROOT
BRANCH  11  13
ATOM     13  C   UNL     1       3.189   4.429  17.892  0.00  0.00    +0.000 A 
ATOM     14  C   UNL     1       4.369   3.713  17.895  0.00  0.00    +0.000 A 
ATOM     15  C   UNL     1       4.037   2.338  17.837  0.00  0.00    +0.000 A 
ATOM     16  C   UNL     1       2.664   2.249  17.835  0.00  0.00    +0.000 A 
ATOM     17  N   UNL     1       2.155   3.524  17.880  0.00  0.00    +0.000 N 
ATOM     18  H   UNL     1       1.173   3.755  17.838  0.00  0.00    +0.000 HD
ENDBRANCH  11  13
BRANCH   6  19
ATOM     19  N   UNL     1       0.223  11.531  20.141  0.00  0.00    +0.000 N 
ATOM     20  C   UNL     1       0.896  12.569  20.772  0.00  0.00    +0.000 C 
ATOM     21  O   UNL     1       2.058  12.568  21.157  0.00  0.00    +0.000 OA
ATOM     22  H   UNL     1      -0.786  11.615  20.056  0.00  0.00    +0.000 HD
BRANCH  20  23
ATOM     23  C   UNL     1       0.094  13.800  21.044  0.00  0.00    +0.000 C 
ATOM     24  C   UNL     1       0.864  14.936  21.717  0.00  0.00    +0.000 C 
ATOM     25  C   UNL     1       0.408  15.102  20.305  0.00  0.00    +0.000 C 
BRANCH  23  26
ATOM     26  C   UNL     1      -1.357  13.549  21.286  0.00  0.00    +0.000 C 
ATOM     27  O   UNL     1      -2.016  13.220  20.302  0.00  0.00    +0.000 OA
ATOM     28  N   UNL     1      -1.820  13.710  22.583  0.00  0.00    +0.000 N 
ATOM     29  H   UNL     1      -1.195  14.131  23.261  0.00  0.00    +0.000 HD
BRANCH  28  30
ATOM     30  C   UNL     1      -3.161  13.479  22.974  0.00  0.00    +0.000 A 
ATOM     31  C   UNL     1      -4.226  14.187  22.400  0.00  0.00    +0.000 A 
ATOM     32  C   UNL     1      -5.523  14.060  22.890  0.00  0.00    +0.000 A 
ATOM     33  C   UNL     1      -5.770  13.195  23.940  0.00  0.00    +0.000 A 
ATOM     34  F   UNL     1      -7.007  13.110  24.446  0.00  0.00    +0.000 F 
ATOM     35  C   UNL     1      -4.748  12.418  24.474  0.00  0.00    +0.000 A 
ATOM     36  C   UNL     1      -3.441  12.544  23.979  0.00  0.00    +0.000 A 
ENDBRANCH  28  30
ENDBRANCH  23  26
ENDBRANCH  20  23
ENDBRANCH   6  19
TORSDOF 5
ENDMDL
MODEL 7
REMARK VINA RESULT:      -8.3      1.354      1.577
REMARK  Name = 
REMARK  5 active torsions:
REMARK  status: ('A' for Active; 'I' for Inactive)
REMARK    1  A    between atoms: C_6  and  N_7
REMARK    2  A    between atoms: C_8  and  C_10
REMARK    3  A    between atoms: C_10  and  C_11
REMARK    4  A    between atoms: N_13  and  C_14
REMARK    5  A    between atoms: C_27  and  C_28
REMARK                            x       y       z     vdW  Elec       q    Type
REMARK                         _______ _______ _______ _____ _____    ______ ____
ROOT
ATOM      1  O   UNL     1       2.528   4.214  20.938  0.00  0.00    +0.000 OA
ATOM      2  C   UNL     1       2.380   5.289  20.393  0.00  0.00    +0.000 C 
ATOM      3  N   UNL     1       1.796   6.402  20.962  0.00  0.00    +0.000 N 
ATOM      4  C   UNL     1       1.819   7.485  20.095  0.00  0.00    +0.000 A 
ATOM      5  C   UNL     1       1.300   8.728  20.370  0.00  0.00    +0.000 A 
ATOM      6  C   UNL     1       1.353   9.708  19.378  0.00  0.00    +0.000 A 
ATOM      7  C   UNL     1       1.977   9.402  18.146  0.00  0.00    +0.000 A 
ATOM      8  C   UNL     1       2.511   8.118  17.892  0.00  0.00    +0.000 A 
ATOM      9  C   UNL     1       2.425   7.159  18.888  0.00  0.00    +0.000 A 
ATOM     10  C   UNL     1       2.803   5.741  19.006  0.00  0.00    +0.000 C 
ATOM     11  C   UNL     1       3.380   4.979  18.067  0.00  0.00    +0.000 C 
ATOM     12  H   UNL     1       1.399   6.398  21.889  0.00  0.00    +0.000 HD
ENDROOT
BRANCH  11  13
ATOM     13  C   UNL     1       3.546   3.585  18.239  0.00  0.00    +0.000 A 
ATOM     14  C   UNL     1       2.827   2.500  17.780  0.00  0.00    +0.000 A 
ATOM     15  C   UNL     1       3.387   1.336  18.360  0.00  0.00    +0.000 A 
ATOM     16  C   UNL     1       4.454   1.737  19.131  0.00  0.00    +0.000 A 
ATOM     17  N   UNL     1       4.552   3.105  19.044  0.00  0.00    +0.000 N 
ATOM     18  H   UNL     1       5.217   3.670  19.552  0.00  0.00    +0.000 HD
ENDBRANCH  11  13
BRANCH   6  19
ATOM     19  N   UNL     1       0.796  10.995  19.588  0.00  0.00    +0.000 N 
ATOM     20  C   UNL     1      -0.437  11.405  19.101  0.00  0.00    +0.000 C 
ATOM     21  O   UNL     1      -1.192  10.770  18.376  0.00  0.00    +0.000 OA
ATOM     22  H   UNL     1       1.386  11.703  20.017  0.00  0.00    +0.000 HD
BRANCH  20  23
ATOM     23  C   UNL     1      -0.861  12.788  19.473  0.00  0.00    +0.000 C 
ATOM     24  C   UNL     1       0.283  13.771  19.716  0.00  0.00    +0.000 C 
ATOM     25  C   UNL     1      -0.592  13.957  18.522  0.00  0.00    +0.000 C 
BRANCH  23  26
ATOM     26  C   UNL     1      -2.161  12.860  20.203  0.00  0.00    +0.000 C 
ATOM     27  O   UNL     1      -3.141  12.428  19.600  0.00  0.00    +0.000 OA
ATOM     28  N   UNL     1      -2.141  13.402  21.479  0.00  0.00    +0.000 N 
ATOM     29  H   UNL     1      -1.288  13.854  21.790  0.00  0.00    +0.000 HD
BRANCH  28  30
ATOM     30  C   UNL     1      -3.285  13.508  22.307  0.00  0.00    +0.000 A 
ATOM     31  C   UNL     1      -3.504  12.626  23.374  0.00  0.00    +0.000 A 
ATOM     32  C   UNL     1      -4.698  12.644  24.091  0.00  0.00    +0.000 A 
ATOM     33  C   UNL     1      -5.671  13.570  23.764  0.00  0.00    +0.000 A 
ATOM     34  F   UNL     1      -6.840  13.555  24.418  0.00  0.00    +0.000 F 
ATOM     35  C   UNL     1      -5.448  14.511  22.765  0.00  0.00    +0.000 A 
ATOM     36  C   UNL     1      -4.245  14.495  22.044  0.00  0.00    +0.000 A 
ENDBRANCH  28  30
ENDBRANCH  23  26
ENDBRANCH  20  23
ENDBRANCH   6  19
TORSDOF 5
ENDMDL
MODEL 8
REMARK VINA RESULT:      -8.3      0.599      1.117
REMARK  Name = 
REMARK  5 active torsions:
REMARK  status: ('A' for Active; 'I' for Inactive)
REMARK    1  A    between atoms: C_6  and  N_7
REMARK    2  A    between atoms: C_8  and  C_10
REMARK    3  A    between atoms: C_10  and  C_11
REMARK    4  A    between atoms: N_13  and  C_14
REMARK    5  A    between atoms: C_27  and  C_28
REMARK                            x       y       z     vdW  Elec       q    Type
REMARK                         _______ _______ _______ _____ _____    ______ ____
ROOT
ATOM      1  O   UNL     1       2.287   4.783  20.976  0.00  0.00    +0.000 OA
ATOM      2  C   UNL     1       2.136   5.834  20.385  0.00  0.00    +0.000 C 
ATOM      3  N   UNL     1       1.588   6.982  20.920  0.00  0.00    +0.000 N 
ATOM      4  C   UNL     1       1.597   8.022  20.003  0.00  0.00    +0.000 A 
ATOM      5  C   UNL     1       1.105   9.284  20.235  0.00  0.00    +0.000 A 
ATOM      6  C   UNL     1       1.139  10.216  19.196  0.00  0.00    +0.000 A 
ATOM      7  C   UNL     1       1.716   9.842  17.960  0.00  0.00    +0.000 A 
ATOM      8  C   UNL     1       2.223   8.538  17.749  0.00  0.00    +0.000 A 
ATOM      9  C   UNL     1       2.157   7.629  18.793  0.00  0.00    +0.000 A 
ATOM     10  C   UNL     1       2.518   6.213  18.966  0.00  0.00    +0.000 C 
ATOM     11  C   UNL     1       3.052   5.398  18.045  0.00  0.00    +0.000 C 
ATOM     12  H   UNL     1       1.222   7.027  21.859  0.00  0.00    +0.000 HD
ENDROOT
BRANCH  11  13
ATOM     13  C   UNL     1       3.204   4.011  18.278  0.00  0.00    +0.000 A 
ATOM     14  C   UNL     1       4.305   3.236  18.583  0.00  0.00    +0.000 A 
ATOM     15  C   UNL     1       3.888   1.883  18.595  0.00  0.00    +0.000 A 
ATOM     16  C   UNL     1       2.537   1.870  18.331  0.00  0.00    +0.000 A 
ATOM     17  N   UNL     1       2.126   3.168  18.150  0.00  0.00    +0.000 N 
ATOM     18  H   UNL     1       1.191   3.448  17.893  0.00  0.00    +0.000 HD
ENDBRANCH  11  13
BRANCH   6  19
ATOM     19  N   UNL     1       0.608  11.519  19.363  0.00  0.00    +0.000 N 
ATOM     20  C   UNL     1       0.592  12.212  20.566  0.00  0.00    +0.000 C 
ATOM     21  O   UNL     1       0.957  11.800  21.659  0.00  0.00    +0.000 OA
ATOM     22  H   UNL     1       0.097  11.927  18.584  0.00  0.00    +0.000 HD
BRANCH  20  23
ATOM     23  C   UNL     1       0.027  13.594  20.518  0.00  0.00    +0.000 C 
ATOM     24  C   UNL     1       1.028  14.690  20.154  0.00  0.00    +0.000 C 
ATOM     25  C   UNL     1      -0.057  14.347  19.189  0.00  0.00    +0.000 C 
BRANCH  23  26
ATOM     26  C   UNL     1      -1.123  13.821  21.442  0.00  0.00    +0.000 C 
ATOM     27  O   UNL     1      -1.128  14.895  22.041  0.00  0.00    +0.000 OA
ATOM     28  N   UNL     1      -2.067  12.810  21.537  0.00  0.00    +0.000 N 
ATOM     29  H   UNL     1      -1.856  11.920  21.100  0.00  0.00    +0.000 HD
BRANCH  28  30
ATOM     30  C   UNL     1      -3.228  12.891  22.345  0.00  0.00    +0.000 A 
ATOM     31  C   UNL     1      -3.197  12.574  23.710  0.00  0.00    +0.000 A 
ATOM     32  C   UNL     1      -4.367  12.515  24.463  0.00  0.00    +0.000 A 
ATOM     33  C   UNL     1      -5.577  12.807  23.861  0.00  0.00    +0.000 A 
ATOM     34  F   UNL     1      -6.708  12.701  24.570  0.00  0.00    +0.000 F 
ATOM     35  C   UNL     1      -5.629  13.206  22.530  0.00  0.00    +0.000 A 
ATOM     36  C   UNL     1      -4.450  13.267  21.771  0.00  0.00    +0.000 A 
ENDBRANCH  28  30
ENDBRANCH  23  26
ENDBRANCH  20  23
ENDBRANCH   6  19
TORSDOF 5
ENDMDL
MODEL 9
REMARK VINA RESULT:      -8.3      4.330     10.988
REMARK  Name = 
REMARK  5 active torsions:
REMARK  status: ('A' for Active; 'I' for Inactive)
REMARK    1  A    between atoms: C_6  and  N_7
REMARK    2  A    between atoms: C_8  and  C_10
REMARK    3  A    between atoms: C_10  and  C_11
REMARK    4  A    between atoms: N_13  and  C_14
REMARK    5  A    between atoms: C_27  and  C_28
REMARK                            x       y       z     vdW  Elec       q    Type
REMARK                         _______ _______ _______ _____ _____    ______ ____
ROOT
ATOM      1  O   UNL     1      -0.396  10.806  23.054  0.00  0.00    +0.000 OA
ATOM      2  C   UNL     1       0.152  10.210  22.148  0.00  0.00    +0.000 C 
ATOM      3  N   UNL     1       0.701   8.947  22.237  0.00  0.00    +0.000 N 
ATOM      4  C   UNL     1       1.210   8.529  21.016  0.00  0.00    +0.000 A 
ATOM      5  C   UNL     1       1.833   7.325  20.791  0.00  0.00    +0.000 A 
ATOM      6  C   UNL     1       2.340   7.063  19.517  0.00  0.00    +0.000 A 
ATOM      7  C   UNL     1       2.156   8.024  18.496  0.00  0.00    +0.000 A 
ATOM      8  C   UNL     1       1.503   9.253  18.752  0.00  0.00    +0.000 A 
ATOM      9  C   UNL     1       1.030   9.493  20.032  0.00  0.00    +0.000 A 
ATOM     10  C   UNL     1       0.359  10.620  20.701  0.00  0.00    +0.000 C 
ATOM     11  C   UNL     1       0.020  11.796  20.155  0.00  0.00    +0.000 C 
ATOM     12  H   UNL     1       0.726   8.421  23.097  0.00  0.00    +0.000 HD
ENDROOT
BRANCH  11  13
ATOM     13  C   UNL     1      -0.474  12.865  20.939  0.00  0.00    +0.000 A 
ATOM     14  C   UNL     1      -1.737  13.403  21.087  0.00  0.00    +0.000 A 
ATOM     15  C   UNL     1      -1.624  14.540  21.922  0.00  0.00    +0.000 A 
ATOM     16  C   UNL     1      -0.303  14.647  22.291  0.00  0.00    +0.000 A 
ATOM     17  N   UNL     1       0.389  13.619  21.698  0.00  0.00    +0.000 N 
ATOM     18  H   UNL     1       1.388  13.485  21.756  0.00  0.00    +0.000 HD
ENDBRANCH  11  13
BRANCH   6  19
ATOM     19  N   UNL     1       3.029   5.857  19.236  0.00  0.00    +0.000 N 
ATOM     20  C   UNL     1       2.654   4.609  19.714  0.00  0.00    +0.000 C 
ATOM     21  O   UNL     1       1.739   4.360  20.488  0.00  0.00    +0.000 OA
ATOM     22  H   UNL     1       3.922   5.921  18.755  0.00  0.00    +0.000 HD
BRANCH  20  23
ATOM     23  C   UNL     1       3.490   3.455  19.264  0.00  0.00    +0.000 C 
ATOM     24  C   UNL     1       3.543   2.278  20.236  0.00  0.00    +0.000 C 
ATOM     25  C   UNL     1       2.835   2.113  18.933  0.00  0.00    +0.000 C 
BRANCH  23  26
ATOM     26  C   UNL     1       4.633   3.831  18.381  0.00  0.00    +0.000 C 
ATOM     27  O   UNL     1       5.695   4.070  18.950  0.00  0.00    +0.000 OA
ATOM     28  N   UNL     1       4.391   3.875  17.016  0.00  0.00    +0.000 N 
ATOM     29  H   UNL     1       3.430   3.801  16.702  0.00  0.00    +0.000 HD
BRANCH  28  30
ATOM     30  C   UNL     1       5.381   4.183  16.051  0.00  0.00    +0.000 A 
ATOM     31  C   UNL     1       6.379   5.135  16.300  0.00  0.00    +0.000 A 
ATOM     32  C   UNL     1       7.257   5.537  15.298  0.00  0.00    +0.000 A 
ATOM     33  C   UNL     1       7.164   4.964  14.044  0.00  0.00    +0.000 A 
ATOM     34  F   UNL     1       7.974   5.387  13.064  0.00  0.00    +0.000 F 
ATOM     35  C   UNL     1       6.238   3.958  13.791  0.00  0.00    +0.000 A 
ATOM     36  C   UNL     1       5.354   3.550  14.801  0.00  0.00    +0.000 A 
ENDBRANCH  28  30
ENDBRANCH  23  26
ENDBRANCH  20  23
ENDBRANCH   6  19
TORSDOF 5
ENDMDL
