MODEL 1
REMARK VINA RESULT:      -6.3      0.000      0.000
REMARK  Name = 
REMARK  9 active torsions:
REMARK  status: ('A' for Active; 'I' for Inactive)
REMARK    1  A    between atoms: C_1  and  C_2
REMARK    2  A    between atoms: C_2  and  C_3
REMARK    3  A    between atoms: C_2  and  C_4
REMARK    4  A    between atoms: C_2  and  C_6
REMARK    5  A    between atoms: C_4  and  O_5
REMARK    6  A    between atoms: C_6  and  N_7
REMARK    7  A    between atoms: C_8  and  C_10
REMARK    8  A    between atoms: C_10  and  O_11
REMARK    9  A    between atoms: O_11  and  C_12
REMARK                            x       y       z     vdW  Elec       q    Type
REMARK                         _______ _______ _______ _____ _____    ______ ____
ROOT
ATOM      1  N   UNL     1       6.031   3.799  17.370  0.00  0.00    +0.000 N 
ATOM      2  C   UNL     1       4.927   4.189  16.639  0.00  0.00    +0.000 C 
ATOM      3  O   UNL     1       4.915   5.160  15.880  0.00  0.00    +0.000 OA
ATOM      4  H   UNL     1       5.888   3.163  18.151  0.00  0.00    +0.000 HD
ENDROOT
BRANCH   1   5
ATOM      5  C   UNL     1       7.246   4.584  17.405  0.00  0.00    +0.000 C 
BRANCH   5   7
ATOM      6  C   UNL     1       5.966   5.635  19.341  0.00  0.00    +0.000 C 
ATOM      7  C   UNL     1       7.277   5.645  18.534  0.00  0.00    +0.000 C 
ATOM      8  C   UNL     1       7.412   7.034  17.874  0.00  0.00    +0.000 C 
BRANCH   7   9
ATOM      9  C   UNL     1       8.487   5.421  19.468  0.00  0.00    +0.000 C 
BRANCH   9  10
ATOM     10  O   UNL     1       8.120   5.380  20.845  0.00  0.00    +0.000 OA
ATOM     11  H   UNL     1       7.279   5.867  20.937  0.00  0.00    +0.000 HD
ENDBRANCH   9  10
ENDBRANCH   7   9
ENDBRANCH   5   7
ENDBRANCH   1   5
BRANCH   2  12
ATOM     12  C   UNL     1       3.728   3.266  16.797  0.00  0.00    +0.000 C 
BRANCH  12  13
ATOM     13  O   UNL     1       2.515   3.932  17.142  0.00  0.00    +0.000 OA
BRANCH  13  14
ATOM     14  C   UNL     1       2.230   3.868  18.489  0.00  0.00    +0.000 A 
ATOM     15  C   UNL     1       1.977   2.651  19.135  0.00  0.00    +0.000 A 
ATOM     16  C   UNL     1       1.652   2.602  20.487  0.00  0.00    +0.000 A 
ATOM     17  C   UNL     1       1.619   3.771  21.234  0.00  0.00    +0.000 A 
ATOM     18  C   UNL     1       1.916   4.992  20.625  0.00  0.00    +0.000 A 
ATOM     19  C   UNL     1       2.219   5.043  19.258  0.00  0.00    +0.000 A 
ATOM     20 BR   UNL     1       2.557   6.747  18.493  0.00  0.00    +0.000 Br
ENDBRANCH  13  14
ENDBRANCH  12  13
ENDBRANCH   2  12
TORSDOF 7
ENDMDL
MODEL 2
REMARK VINA RESULT:      -6.2      2.546      5.519
REMARK  Name = 
REMARK  9 active torsions:
REMARK  status: ('A' for Active; 'I' for Inactive)
REMARK    1  A    between atoms: C_1  and  C_2
REMARK    2  A    between atoms: C_2  and  C_3
REMARK    3  A    between atoms: C_2  and  C_4
REMARK    4  A    between atoms: C_2  and  C_6
REMARK    5  A    between atoms: C_4  and  O_5
REMARK    6  A    between atoms: C_6  and  N_7
REMARK    7  A    between atoms: C_8  and  C_10
REMARK    8  A    between atoms: C_10  and  O_11
REMARK    9  A    between atoms: O_11  and  C_12
REMARK                            x       y       z     vdW  Elec       q    Type
REMARK                         _______ _______ _______ _____ _____    ______ ____
ROOT
ATOM      1  N   UNL     1       2.465   5.267  18.239  0.00  0.00    +0.000 N 
ATOM      2  C   UNL     1       3.504   6.076  18.652  0.00  0.00    +0.000 C 
ATOM      3  O   UNL     1       4.147   5.893  19.687  0.00  0.00    +0.000 OA
ATOM      4  H   UNL     1       1.831   5.626  17.530  0.00  0.00    +0.000 HD
ENDROOT
BRANCH   1   5
ATOM      5  C   UNL     1       1.952   4.194  19.065  0.00  0.00    +0.000 C 
BRANCH   5   7
ATOM      6  C   UNL     1       2.909   2.742  17.203  0.00  0.00    +0.000 C 
ATOM      7  C   UNL     1       2.497   2.794  18.685  0.00  0.00    +0.000 C 
ATOM      8  C   UNL     1       1.359   1.772  18.892  0.00  0.00    +0.000 C 
BRANCH   7   9
ATOM      9  C   UNL     1       3.686   2.401  19.590  0.00  0.00    +0.000 C 
BRANCH   9  10
ATOM     10  O   UNL     1       4.903   3.036  19.207  0.00  0.00    +0.000 OA
ATOM     11  H   UNL     1       4.834   3.251  18.257  0.00  0.00    +0.000 HD
ENDBRANCH   9  10
ENDBRANCH   7   9
ENDBRANCH   5   7
ENDBRANCH   1   5
BRANCH   2  12
ATOM     12  C   UNL     1       3.840   7.191  17.672  0.00  0.00    +0.000 C 
BRANCH  12  13
ATOM     13  O   UNL     1       5.228   7.305  17.365  0.00  0.00    +0.000 OA
BRANCH  13  14
ATOM     14  C   UNL     1       5.706   6.242  16.630  0.00  0.00    +0.000 A 
ATOM     15  C   UNL     1       5.172   5.907  15.379  0.00  0.00    +0.000 A 
ATOM     16  C   UNL     1       5.636   4.809  14.663  0.00  0.00    +0.000 A 
ATOM     17  C   UNL     1       6.682   4.047  15.166  0.00  0.00    +0.000 A 
ATOM     18  C   UNL     1       7.266   4.390  16.387  0.00  0.00    +0.000 A 
ATOM     19  C   UNL     1       6.780   5.481  17.119  0.00  0.00    +0.000 A 
ATOM     20 BR   UNL     1       7.590   5.849  18.796  0.00  0.00    +0.000 Br
ENDBRANCH  13  14
ENDBRANCH  12  13
ENDBRANCH   2  12
TORSDOF 7
ENDMDL
MODEL 3
REMARK VINA RESULT:      -6.1      2.492      5.826
REMARK  Name = 
REMARK  9 active torsions:
REMARK  status: ('A' for Active; 'I' for Inactive)
REMARK    1  A    between atoms: C_1  and  C_2
REMARK    2  A    between atoms: C_2  and  C_3
REMARK    3  A    between atoms: C_2  and  C_4
REMARK    4  A    between atoms: C_2  and  C_6
REMARK    5  A    between atoms: C_4  and  O_5
REMARK    6  A    between atoms: C_6  and  N_7
REMARK    7  A    between atoms: C_8  and  C_10
REMARK    8  A    between atoms: C_10  and  O_11
REMARK    9  A    between atoms: O_11  and  C_12
REMARK                            x       y       z     vdW  Elec       q    Type
REMARK                         _______ _______ _______ _____ _____    ______ ____
ROOT
ATOM      1  N   UNL     1       2.784   5.484  18.957  0.00  0.00    +0.000 N 
ATOM      2  C   UNL     1       2.789   6.847  18.740  0.00  0.00    +0.000 C 
ATOM      3  O   UNL     1       2.237   7.662  19.480  0.00  0.00    +0.000 OA
ATOM      4  H   UNL     1       3.031   4.875  18.181  0.00  0.00    +0.000 HD
ENDROOT
BRANCH   1   5
ATOM      5  C   UNL     1       2.009   4.878  20.019  0.00  0.00    +0.000 C 
BRANCH   5   7
ATOM      6  C   UNL     1       1.884   2.855  21.563  0.00  0.00    +0.000 C 
ATOM      7  C   UNL     1       2.196   3.345  20.137  0.00  0.00    +0.000 C 
ATOM      8  C   UNL     1       3.677   3.025  19.844  0.00  0.00    +0.000 C 
BRANCH   7   9
ATOM      9  C   UNL     1       1.316   2.602  19.107  0.00  0.00    +0.000 C 
BRANCH   9  10
ATOM     10  O   UNL     1       1.023   3.394  17.959  0.00  0.00    +0.000 OA
ATOM     11  H   UNL     1       0.079   3.636  18.004  0.00  0.00    +0.000 HD
ENDBRANCH   9  10
ENDBRANCH   7   9
ENDBRANCH   5   7
ENDBRANCH   1   5
BRANCH   2  12
ATOM     12  C   UNL     1       3.605   7.273  17.528  0.00  0.00    +0.000 C 
BRANCH  12  13
ATOM     13  O   UNL     1       5.017   7.184  17.708  0.00  0.00    +0.000 OA
BRANCH  13  14
ATOM     14  C   UNL     1       5.604   6.237  16.897  0.00  0.00    +0.000 A 
ATOM     15  C   UNL     1       5.156   5.999  15.591  0.00  0.00    +0.000 A 
ATOM     16  C   UNL     1       5.732   5.013  14.796  0.00  0.00    +0.000 A 
ATOM     17  C   UNL     1       6.803   4.274  15.277  0.00  0.00    +0.000 A 
ATOM     18  C   UNL     1       7.301   4.526  16.558  0.00  0.00    +0.000 A 
ATOM     19  C   UNL     1       6.704   5.501  17.367  0.00  0.00    +0.000 A 
ATOM     20 BR   UNL     1       7.404   5.745  19.114  0.00  0.00    +0.000 Br
ENDBRANCH  13  14
ENDBRANCH  12  13
ENDBRANCH   2  12
TORSDOF 7
ENDMDL
MODEL 4
REMARK VINA RESULT:      -6.0      1.197      1.539
REMARK  Name = 
REMARK  9 active torsions:
REMARK  status: ('A' for Active; 'I' for Inactive)
REMARK    1  A    between atoms: C_1  and  C_2
REMARK    2  A    between atoms: C_2  and  C_3
REMARK    3  A    between atoms: C_2  and  C_4
REMARK    4  A    between atoms: C_2  and  C_6
REMARK    5  A    between atoms: C_4  and  O_5
REMARK    6  A    between atoms: C_6  and  N_7
REMARK    7  A    between atoms: C_8  and  C_10
REMARK    8  A    between atoms: C_10  and  O_11
REMARK    9  A    between atoms: O_11  and  C_12
REMARK                            x       y       z     vdW  Elec       q    Type
REMARK                         _______ _______ _______ _____ _____    ______ ____
ROOT
ATOM      1  N   UNL     1       4.594   5.299  17.189  0.00  0.00    +0.000 N 
ATOM      2  C   UNL     1       4.293   4.163  16.467  0.00  0.00    +0.000 C 
ATOM      3  O   UNL     1       5.065   3.634  15.665  0.00  0.00    +0.000 OA
ATOM      4  H   UNL     1       3.828   5.810  17.622  0.00  0.00    +0.000 HD
ENDROOT
BRANCH   1   5
ATOM      5  C   UNL     1       5.811   6.051  16.967  0.00  0.00    +0.000 C 
BRANCH   5   7
ATOM      6  C   UNL     1       7.844   7.013  18.166  0.00  0.00    +0.000 C 
ATOM      7  C   UNL     1       6.909   5.797  18.031  0.00  0.00    +0.000 C 
ATOM      8  C   UNL     1       7.761   4.601  17.554  0.00  0.00    +0.000 C 
BRANCH   7   9
ATOM      9  C   UNL     1       6.282   5.444  19.398  0.00  0.00    +0.000 C 
BRANCH   9  10
ATOM     10  O   UNL     1       5.841   4.091  19.469  0.00  0.00    +0.000 OA
ATOM     11  H   UNL     1       6.541   3.579  19.916  0.00  0.00    +0.000 HD
ENDBRANCH   9  10
ENDBRANCH   7   9
ENDBRANCH   5   7
ENDBRANCH   1   5
BRANCH   2  12
ATOM     12  C   UNL     1       2.933   3.566  16.799  0.00  0.00    +0.000 C 
BRANCH  12  13
ATOM     13  O   UNL     1       2.090   4.418  17.572  0.00  0.00    +0.000 OA
BRANCH  13  14
ATOM     14  C   UNL     1       2.017   4.045  18.897  0.00  0.00    +0.000 A 
ATOM     15  C   UNL     1       1.817   2.713  19.281  0.00  0.00    +0.000 A 
ATOM     16  C   UNL     1       1.706   2.354  20.621  0.00  0.00    +0.000 A 
ATOM     17  C   UNL     1       1.841   3.319  21.609  0.00  0.00    +0.000 A 
ATOM     18  C   UNL     1       2.092   4.646  21.254  0.00  0.00    +0.000 A 
ATOM     19  C   UNL     1       2.177   5.010  19.904  0.00  0.00    +0.000 A 
ATOM     20 BR   UNL     1       2.464   6.843  19.502  0.00  0.00    +0.000 Br
ENDBRANCH  13  14
ENDBRANCH  12  13
ENDBRANCH   2  12
TORSDOF 7
ENDMDL
MODEL 5
REMARK VINA RESULT:      -6.0      2.587      5.904
REMARK  Name = 
REMARK  9 active torsions:
REMARK  status: ('A' for Active; 'I' for Inactive)
REMARK    1  A    between atoms: C_1  and  C_2
REMARK    2  A    between atoms: C_2  and  C_3
REMARK    3  A    between atoms: C_2  and  C_4
REMARK    4  A    between atoms: C_2  and  C_6
REMARK    5  A    between atoms: C_4  and  O_5
REMARK    6  A    between atoms: C_6  and  N_7
REMARK    7  A    between atoms: C_8  and  C_10
REMARK    8  A    between atoms: C_10  and  O_11
REMARK    9  A    between atoms: O_11  and  C_12
REMARK                            x       y       z     vdW  Elec       q    Type
REMARK                         _______ _______ _______ _____ _____    ______ ____
ROOT
ATOM      1  N   UNL     1       2.290   5.462  19.317  0.00  0.00    +0.000 N 
ATOM      2  C   UNL     1       3.567   5.905  19.039  0.00  0.00    +0.000 C 
ATOM      3  O   UNL     1       4.558   5.609  19.709  0.00  0.00    +0.000 OA
ATOM      4  H   UNL     1       1.509   5.949  18.885  0.00  0.00    +0.000 HD
ENDROOT
BRANCH   1   5
ATOM      5  C   UNL     1       1.983   4.703  20.511  0.00  0.00    +0.000 C 
BRANCH   5   7
ATOM      6  C   UNL     1       0.564   2.982  19.281  0.00  0.00    +0.000 C 
ATOM      7  C   UNL     1       1.739   3.195  20.252  0.00  0.00    +0.000 C 
ATOM      8  C   UNL     1       1.361   2.540  21.597  0.00  0.00    +0.000 C 
BRANCH   7   9
ATOM      9  C   UNL     1       3.016   2.515  19.711  0.00  0.00    +0.000 C 
BRANCH   9  10
ATOM     10  O   UNL     1       2.737   1.520  18.730  0.00  0.00    +0.000 OA
ATOM     11  H   UNL     1       2.648   0.667  19.196  0.00  0.00    +0.000 HD
ENDBRANCH   9  10
ENDBRANCH   7   9
ENDBRANCH   5   7
ENDBRANCH   1   5
BRANCH   2  12
ATOM     12  C   UNL     1       3.664   6.749  17.776  0.00  0.00    +0.000 C 
BRANCH  12  13
ATOM     13  O   UNL     1       4.993   7.119  17.417  0.00  0.00    +0.000 OA
BRANCH  13  14
ATOM     14  C   UNL     1       5.609   6.192  16.605  0.00  0.00    +0.000 A 
ATOM     15  C   UNL     1       5.056   5.795  15.380  0.00  0.00    +0.000 A 
ATOM     16  C   UNL     1       5.667   4.830  14.587  0.00  0.00    +0.000 A 
ATOM     17  C   UNL     1       6.875   4.273  14.983  0.00  0.00    +0.000 A 
ATOM     18  C   UNL     1       7.473   4.688  16.175  0.00  0.00    +0.000 A 
ATOM     19  C   UNL     1       6.844   5.641  16.985  0.00  0.00    +0.000 A 
ATOM     20 BR   UNL     1       7.693   6.111  18.616  0.00  0.00    +0.000 Br
ENDBRANCH  13  14
ENDBRANCH  12  13
ENDBRANCH   2  12
TORSDOF 7
ENDMDL
MODEL 6
REMARK VINA RESULT:      -6.0      2.097      5.678
REMARK  Name = 
REMARK  9 active torsions:
REMARK  status: ('A' for Active; 'I' for Inactive)
REMARK    1  A    between atoms: C_1  and  C_2
REMARK    2  A    between atoms: C_2  and  C_3
REMARK    3  A    between atoms: C_2  and  C_4
REMARK    4  A    between atoms: C_2  and  C_6
REMARK    5  A    between atoms: C_4  and  O_5
REMARK    6  A    between atoms: C_6  and  N_7
REMARK    7  A    between atoms: C_8  and  C_10
REMARK    8  A    between atoms: C_10  and  O_11
REMARK    9  A    between atoms: O_11  and  C_12
REMARK                            x       y       z     vdW  Elec       q    Type
REMARK                         _______ _______ _______ _____ _____    ______ ____
ROOT
ATOM      1  N   UNL     1       3.711   3.771  18.895  0.00  0.00    +0.000 N 
ATOM      2  C   UNL     1       4.007   3.056  17.753  0.00  0.00    +0.000 C 
ATOM      3  O   UNL     1       3.816   1.845  17.631  0.00  0.00    +0.000 OA
ATOM      4  H   UNL     1       4.130   4.690  19.008  0.00  0.00    +0.000 HD
ENDROOT
BRANCH   1   5
ATOM      5  C   UNL     1       3.262   3.124  20.111  0.00  0.00    +0.000 C 
BRANCH   5   7
ATOM      6  C   UNL     1       1.531   4.914  20.653  0.00  0.00    +0.000 C 
ATOM      7  C   UNL     1       1.779   3.406  20.462  0.00  0.00    +0.000 C 
ATOM      8  C   UNL     1       1.469   2.706  21.801  0.00  0.00    +0.000 C 
BRANCH   7   9
ATOM      9  C   UNL     1       0.838   2.838  19.376  0.00  0.00    +0.000 C 
BRANCH   9  10
ATOM     10  O   UNL     1       1.271   1.575  18.878  0.00  0.00    +0.000 OA
ATOM     11  H   UNL     1       2.213   1.476  19.113  0.00  0.00    +0.000 HD
ENDBRANCH   9  10
ENDBRANCH   7   9
ENDBRANCH   5   7
ENDBRANCH   1   5
BRANCH   2  12
ATOM     12  C   UNL     1       4.536   3.914  16.612  0.00  0.00    +0.000 C 
BRANCH  12  13
ATOM     13  O   UNL     1       5.950   3.862  16.443  0.00  0.00    +0.000 OA
BRANCH  13  14
ATOM     14  C   UNL     1       6.610   4.870  17.112  0.00  0.00    +0.000 A 
ATOM     15  C   UNL     1       7.461   4.608  18.194  0.00  0.00    +0.000 A 
ATOM     16  C   UNL     1       8.091   5.637  18.886  0.00  0.00    +0.000 A 
ATOM     17  C   UNL     1       7.918   6.952  18.479  0.00  0.00    +0.000 A 
ATOM     18  C   UNL     1       7.115   7.237  17.373  0.00  0.00    +0.000 A 
ATOM     19  C   UNL     1       6.461   6.202  16.692  0.00  0.00    +0.000 A 
ATOM     20 BR   UNL     1       5.343   6.675  15.233  0.00  0.00    +0.000 Br
ENDBRANCH  13  14
ENDBRANCH  12  13
ENDBRANCH   2  12
TORSDOF 7
ENDMDL
MODEL 7
REMARK VINA RESULT:      -5.9      2.245      3.142
REMARK  Name = 
REMARK  9 active torsions:
REMARK  status: ('A' for Active; 'I' for Inactive)
REMARK    1  A    between atoms: C_1  and  C_2
REMARK    2  A    between atoms: C_2  and  C_3
REMARK    3  A    between atoms: C_2  and  C_4
REMARK    4  A    between atoms: C_2  and  C_6
REMARK    5  A    between atoms: C_4  and  O_5
REMARK    6  A    between atoms: C_6  and  N_7
REMARK    7  A    between atoms: C_8  and  C_10
REMARK    8  A    between atoms: C_10  and  O_11
REMARK    9  A    between atoms: O_11  and  C_12
REMARK                            x       y       z     vdW  Elec       q    Type
REMARK                         _______ _______ _______ _____ _____    ______ ____
ROOT
ATOM      1  N   UNL     1       4.867   3.655  17.489  0.00  0.00    +0.000 N 
ATOM      2  C   UNL     1       4.309   2.795  18.413  0.00  0.00    +0.000 C 
ATOM      3  O   UNL     1       4.752   2.629  19.551  0.00  0.00    +0.000 OA
ATOM      4  H   UNL     1       4.608   3.542  16.512  0.00  0.00    +0.000 HD
ENDROOT
BRANCH   1   5
ATOM      5  C   UNL     1       6.113   4.349  17.740  0.00  0.00    +0.000 C 
BRANCH   5   7
ATOM      6  C   UNL     1       7.351   6.515  17.223  0.00  0.00    +0.000 C 
ATOM      7  C   UNL     1       6.491   5.377  16.644  0.00  0.00    +0.000 C 
ATOM      8  C   UNL     1       5.184   6.000  16.109  0.00  0.00    +0.000 C 
BRANCH   7   9
ATOM      9  C   UNL     1       7.226   4.688  15.472  0.00  0.00    +0.000 C 
BRANCH   9  10
ATOM     10  O   UNL     1       7.691   5.614  14.493  0.00  0.00    +0.000 OA
ATOM     11  H   UNL     1       8.464   5.211  14.054  0.00  0.00    +0.000 HD
ENDBRANCH   9  10
ENDBRANCH   7   9
ENDBRANCH   5   7
ENDBRANCH   1   5
BRANCH   2  12
ATOM     12  C   UNL     1       3.042   2.109  17.926  0.00  0.00    +0.000 C 
BRANCH  12  13
ATOM     13  O   UNL     1       1.841   2.606  18.513  0.00  0.00    +0.000 OA
BRANCH  13  14
ATOM     14  C   UNL     1       1.931   3.930  18.883  0.00  0.00    +0.000 A 
ATOM     15  C   UNL     1       2.037   4.958  17.937  0.00  0.00    +0.000 A 
ATOM     16  C   UNL     1       2.167   6.289  18.324  0.00  0.00    +0.000 A 
ATOM     17  C   UNL     1       2.146   6.623  19.671  0.00  0.00    +0.000 A 
ATOM     18  C   UNL     1       1.992   5.621  20.632  0.00  0.00    +0.000 A 
ATOM     19  C   UNL     1       1.887   4.280  20.243  0.00  0.00    +0.000 A 
ATOM     20 BR   UNL     1       1.735   2.974  21.611  0.00  0.00    +0.000 Br
ENDBRANCH  13  14
ENDBRANCH  12  13
ENDBRANCH   2  12
TORSDOF 7
ENDMDL
MODEL 8
REMARK VINA RESULT:      -5.9      2.672      5.734
REMARK  Name = 
REMARK  9 active torsions:
REMARK  status: ('A' for Active; 'I' for Inactive)
REMARK    1  A    between atoms: C_1  and  C_2
REMARK    2  A    between atoms: C_2  and  C_3
REMARK    3  A    between atoms: C_2  and  C_4
REMARK    4  A    between atoms: C_2  and  C_6
REMARK    5  A    between atoms: C_4  and  O_5
REMARK    6  A    between atoms: C_6  and  N_7
REMARK    7  A    between atoms: C_8  and  C_10
REMARK    8  A    between atoms: C_10  and  O_11
REMARK    9  A    between atoms: O_11  and  C_12
REMARK                            x       y       z     vdW  Elec       q    Type
REMARK                         _______ _______ _______ _____ _____    ______ ____
ROOT
ATOM      1  N   UNL     1       2.496   5.311  18.960  0.00  0.00    +0.000 N 
ATOM      2  C   UNL     1       2.736   6.669  18.909  0.00  0.00    +0.000 C 
ATOM      3  O   UNL     1       2.417   7.457  19.801  0.00  0.00    +0.000 OA
ATOM      4  H   UNL     1       2.551   4.781  18.094  0.00  0.00    +0.000 HD
ENDROOT
BRANCH   1   5
ATOM      5  C   UNL     1       1.723   4.707  20.026  0.00  0.00    +0.000 C 
BRANCH   5   7
ATOM      6  C   UNL     1       1.148   2.420  19.061  0.00  0.00    +0.000 C 
ATOM      7  C   UNL     1       1.922   3.176  20.156  0.00  0.00    +0.000 C 
ATOM      8  C   UNL     1       1.350   2.740  21.522  0.00  0.00    +0.000 C 
BRANCH   7   9
ATOM      9  C   UNL     1       3.422   2.809  20.107  0.00  0.00    +0.000 C 
BRANCH   9  10
ATOM     10  O   UNL     1       3.880   2.202  21.312  0.00  0.00    +0.000 OA
ATOM     11  H   UNL     1       3.093   1.971  21.841  0.00  0.00    +0.000 HD
ENDBRANCH   9  10
ENDBRANCH   7   9
ENDBRANCH   5   7
ENDBRANCH   1   5
BRANCH   2  12
ATOM     12  C   UNL     1       3.501   7.111  17.670  0.00  0.00    +0.000 C 
BRANCH  12  13
ATOM     13  O   UNL     1       4.919   7.090  17.815  0.00  0.00    +0.000 OA
BRANCH  13  14
ATOM     14  C   UNL     1       5.534   6.190  16.972  0.00  0.00    +0.000 A 
ATOM     15  C   UNL     1       5.088   5.982  15.659  0.00  0.00    +0.000 A 
ATOM     16  C   UNL     1       5.693   5.043  14.830  0.00  0.00    +0.000 A 
ATOM     17  C   UNL     1       6.789   4.323  15.282  0.00  0.00    +0.000 A 
ATOM     18  C   UNL     1       7.284   4.548  16.569  0.00  0.00    +0.000 A 
ATOM     19  C   UNL     1       6.659   5.476  17.413  0.00  0.00    +0.000 A 
ATOM     20 BR   UNL     1       7.357   5.683  19.165  0.00  0.00    +0.000 Br
ENDBRANCH  13  14
ENDBRANCH  12  13
ENDBRANCH   2  12
TORSDOF 7
ENDMDL
MODEL 9
REMARK VINA RESULT:      -5.9      2.174      3.395
REMARK  Name = 
REMARK  9 active torsions:
REMARK  status: ('A' for Active; 'I' for Inactive)
REMARK    1  A    between atoms: C_1  and  C_2
REMARK    2  A    between atoms: C_2  and  C_3
REMARK    3  A    between atoms: C_2  and  C_4
REMARK    4  A    between atoms: C_2  and  C_6
REMARK    5  A    between atoms: C_4  and  O_5
REMARK    6  A    between atoms: C_6  and  N_7
REMARK    7  A    between atoms: C_8  and  C_10
REMARK    8  A    between atoms: C_10  and  O_11
REMARK    9  A    between atoms: O_11  and  C_12
REMARK                            x       y       z     vdW  Elec       q    Type
REMARK                         _______ _______ _______ _____ _____    ______ ____
ROOT
ATOM      1  N   UNL     1       5.707   3.950  16.804  0.00  0.00    +0.000 N 
ATOM      2  C   UNL     1       6.567   4.447  17.762  0.00  0.00    +0.000 C 
ATOM      3  O   UNL     1       7.772   4.624  17.579  0.00  0.00    +0.000 OA
ATOM      4  H   UNL     1       4.804   3.596  17.107  0.00  0.00    +0.000 HD
ENDROOT
BRANCH   1   5
ATOM      5  C   UNL     1       6.181   3.466  15.524  0.00  0.00    +0.000 C 
BRANCH   5   7
ATOM      6  C   UNL     1       5.184   5.704  14.823  0.00  0.00    +0.000 C 
ATOM      7  C   UNL     1       5.972   4.466  14.358  0.00  0.00    +0.000 C 
ATOM      8  C   UNL     1       5.135   3.757  13.273  0.00  0.00    +0.000 C 
BRANCH   7   9
ATOM      9  C   UNL     1       7.325   4.887  13.744  0.00  0.00    +0.000 C 
BRANCH   9  10
ATOM     10  O   UNL     1       8.105   5.691  14.626  0.00  0.00    +0.000 OA
ATOM     11  H   UNL     1       8.439   5.108  15.333  0.00  0.00    +0.000 HD
ENDBRANCH   9  10
ENDBRANCH   7   9
ENDBRANCH   5   7
ENDBRANCH   1   5
BRANCH   2  12
ATOM     12  C   UNL     1       5.879   4.830  19.064  0.00  0.00    +0.000 C 
BRANCH  12  13
ATOM     13  O   UNL     1       4.599   5.436  18.897  0.00  0.00    +0.000 OA
BRANCH  13  14
ATOM     14  C   UNL     1       3.597   4.772  19.572  0.00  0.00    +0.000 A 
ATOM     15  C   UNL     1       3.695   3.412  19.891  0.00  0.00    +0.000 A 
ATOM     16  C   UNL     1       2.660   2.743  20.538  0.00  0.00    +0.000 A 
ATOM     17  C   UNL     1       1.521   3.436  20.921  0.00  0.00    +0.000 A 
ATOM     18  C   UNL     1       1.420   4.805  20.659  0.00  0.00    +0.000 A 
ATOM     19  C   UNL     1       2.451   5.471  19.985  0.00  0.00    +0.000 A 
ATOM     20 BR   UNL     1       2.214   7.318  19.617  0.00  0.00    +0.000 Br
ENDBRANCH  13  14
ENDBRANCH  12  13
ENDBRANCH   2  12
TORSDOF 7
ENDMDL
