MODEL 1
REMARK VINA RESULT:      -8.9      0.000      0.000
REMARK  Name = 
REMARK  9 active torsions:
REMARK  status: ('A' for Active; 'I' for Inactive)
REMARK    1  A    between atoms: C_1  and  O_2
REMARK    2  A    between atoms: O_2  and  C_3
REMARK    3  A    between atoms: C_11  and  C_12
REMARK    4  A    between atoms: C_12  and  C_13
REMARK    5  A    between atoms: C_13  and  O_14
REMARK    6  A    between atoms: C_13  and  C_15
REMARK    7  A    between atoms: C_18  and  N_19
REMARK    8  A    between atoms: N_19  and  C_20
REMARK    9  A    between atoms: C_20  and  C_21
REMARK                            x       y       z     vdW  Elec       q    Type
REMARK                         _______ _______ _______ _____ _____    ______ ____
ROOT
ATOM      1  C   UNL     1       7.837   8.111  18.002  0.00  0.00    +0.000 C 
ATOM      2  O   UNL     1       7.892   7.525  16.696  0.00  0.00    +0.000 OA
ATOM      3  C   UNL     1       7.155   6.301  16.660  0.00  0.00    +0.000 C 
ATOM      4  C   UNL     1       7.682   5.280  17.683  0.00  0.00    +0.000 C 
ATOM      5  C   UNL     1       7.793   6.002  19.046  0.00  0.00    +0.000 C 
ATOM      6  O   UNL     1       8.484   7.252  18.937  0.00  0.00    +0.000 OA
ENDROOT
BRANCH   4   7
ATOM      7  N   UNL     1       6.827   4.082  17.802  0.00  0.00    +0.000 NA
ATOM      8  H   UNL     1       7.334   3.264  17.446  0.00  0.00    +0.000 HD
BRANCH   7   9
ATOM      9  C   UNL     1       5.582   4.156  17.017  0.00  0.00    +0.000 C 
BRANCH   9  10
ATOM     10  C   UNL     1       4.365   4.159  17.932  0.00  0.00    +0.000 A 
ATOM     11  C   UNL     1       4.369   3.476  19.149  0.00  0.00    +0.000 A 
ATOM     12  C   UNL     1       3.196   3.444  19.903  0.00  0.00    +0.000 A 
ATOM     13  C   UNL     1       2.072   4.126  19.454  0.00  0.00    +0.000 A 
ATOM     14  C   UNL     1       2.160   4.798  18.248  0.00  0.00    +0.000 A 
ATOM     15  N   UNL     1       3.268   4.820  17.472  0.00  0.00    +0.000 NA
ATOM     16  O   UNL     1       0.892   4.153  20.138  0.00  0.00    +0.000 OA
ATOM     17  C   UNL     1       0.741   2.931  20.861  0.00  0.00    +0.000 C 
ATOM     18  C   UNL     1       1.953   2.642  21.738  0.00  0.00    +0.000 C 
ATOM     19  O   UNL     1       3.209   2.688  21.045  0.00  0.00    +0.000 OA
ENDBRANCH   9  10
ENDBRANCH   7   9
ENDBRANCH   4   7
BRANCH   1  20
ATOM     20  C   UNL     1       8.529   9.512  17.949  0.00  0.00    +0.000 C 
BRANCH  20  21
ATOM     21  O   UNL     1       7.556  10.546  17.726  0.00  0.00    +0.000 OA
ATOM     22  H   UNL     1       8.056  11.317  17.395  0.00  0.00    +0.000 HD
ENDBRANCH  20  21
BRANCH  20  23
ATOM     23  C   UNL     1       9.256   9.787  19.282  0.00  0.00    +0.000 C 
BRANCH  23  32
ATOM     24  C   UNL     1       8.529  12.428  22.807  0.00  0.00    +0.000 A 
ATOM     25  C   UNL     1       8.942  13.752  22.736  0.00  0.00    +0.000 A 
ATOM     26  C   UNL     1       9.670  14.192  21.625  0.00  0.00    +0.000 A 
ATOM     27  C   UNL     1       9.988  13.347  20.572  0.00  0.00    +0.000 A 
ATOM     28  N   UNL     1      10.689  13.871  19.549  0.00  0.00    +0.000 NA
ATOM     29  C   UNL     1      10.973  13.057  18.511  0.00  0.00    +0.000 A 
ATOM     30  C   UNL     1      10.558  11.744  18.427  0.00  0.00    +0.000 A 
ATOM     31  F   UNL     1      10.840  11.033  17.324  0.00  0.00    +0.000 F 
ATOM     32  C   UNL     1       9.807  11.190  19.467  0.00  0.00    +0.000 A 
ATOM     33  C   UNL     1       9.530  12.007  20.597  0.00  0.00    +0.000 A 
ATOM     34  C   UNL     1       8.822  11.568  21.743  0.00  0.00    +0.000 A 
BRANCH  24  36
ATOM     35  C   UNL     1       6.424  11.799  23.707  0.00  0.00    +0.000 C 
ATOM     36  O   UNL     1       7.840  11.855  23.838  0.00  0.00    +0.000 OA
ENDBRANCH  24  36
ENDBRANCH  23  32
ENDBRANCH  20  23
ENDBRANCH   1  20
TORSDOF 8
ENDMDL
MODEL 2
REMARK VINA RESULT:      -8.8      3.378      9.432
REMARK  Name = 
REMARK  9 active torsions:
REMARK  status: ('A' for Active; 'I' for Inactive)
REMARK    1  A    between atoms: C_1  and  O_2
REMARK    2  A    between atoms: O_2  and  C_3
REMARK    3  A    between atoms: C_11  and  C_12
REMARK    4  A    between atoms: C_12  and  C_13
REMARK    5  A    between atoms: C_13  and  O_14
REMARK    6  A    between atoms: C_13  and  C_15
REMARK    7  A    between atoms: C_18  and  N_19
REMARK    8  A    between atoms: N_19  and  C_20
REMARK    9  A    between atoms: C_20  and  C_21
REMARK                            x       y       z     vdW  Elec       q    Type
REMARK                         _______ _______ _______ _____ _____    ______ ____
ROOT
ATOM      1  C   UNL     1       5.407   4.545  17.745  0.00  0.00    +0.000 C 
ATOM      2  O   UNL     1       6.130   4.326  18.961  0.00  0.00    +0.000 OA
ATOM      3  C   UNL     1       6.762   5.532  19.399  0.00  0.00    +0.000 C 
ATOM      4  C   UNL     1       7.728   6.093  18.342  0.00  0.00    +0.000 C 
ATOM      5  C   UNL     1       6.971   6.137  16.994  0.00  0.00    +0.000 C 
ATOM      6  O   UNL     1       6.317   4.896  16.705  0.00  0.00    +0.000 OA
ENDROOT
BRANCH   4   7
ATOM      7  N   UNL     1       8.250   7.432  18.683  0.00  0.00    +0.000 NA
ATOM      8  H   UNL     1       7.801   7.764  19.544  0.00  0.00    +0.000 HD
BRANCH   7   9
ATOM      9  C   UNL     1       7.973   8.459  17.663  0.00  0.00    +0.000 C 
BRANCH   9  10
ATOM     10  C   UNL     1       8.462   9.825  18.123  0.00  0.00    +0.000 A 
ATOM     11  C   UNL     1       9.144   9.984  19.331  0.00  0.00    +0.000 A 
ATOM     12  C   UNL     1       9.490  11.272  19.740  0.00  0.00    +0.000 A 
ATOM     13  C   UNL     1       9.195  12.354  18.922  0.00  0.00    +0.000 A 
ATOM     14  C   UNL     1       8.539  12.107  17.730  0.00  0.00    +0.000 A 
ATOM     15  N   UNL     1       8.152  10.877  17.319  0.00  0.00    +0.000 NA
ATOM     16  O   UNL     1       9.511  13.642  19.245  0.00  0.00    +0.000 OA
ATOM     17  C   UNL     1       9.476  13.791  20.665  0.00  0.00    +0.000 C 
ATOM     18  C   UNL     1      10.345  12.752  21.363  0.00  0.00    +0.000 C 
ATOM     19  O   UNL     1      10.075  11.398  20.972  0.00  0.00    +0.000 OA
ENDBRANCH   9  10
ENDBRANCH   7   9
ENDBRANCH   4   7
BRANCH   1  20
ATOM     20  C   UNL     1       4.620   3.242  17.391  0.00  0.00    +0.000 C 
BRANCH  20  21
ATOM     21  O   UNL     1       4.753   2.272  18.444  0.00  0.00    +0.000 OA
ATOM     22  H   UNL     1       5.147   1.481  18.031  0.00  0.00    +0.000 HD
ENDBRANCH  20  21
BRANCH  20  23
ATOM     23  C   UNL     1       3.124   3.570  17.199  0.00  0.00    +0.000 C 
BRANCH  23  32
ATOM     24  C   UNL     1       2.378   7.640  18.873  0.00  0.00    +0.000 A 
ATOM     25  C   UNL     1       1.810   7.741  20.136  0.00  0.00    +0.000 A 
ATOM     26  C   UNL     1       1.383   6.584  20.797  0.00  0.00    +0.000 A 
ATOM     27  C   UNL     1       1.519   5.323  20.236  0.00  0.00    +0.000 A 
ATOM     28  N   UNL     1       1.078   4.274  20.956  0.00  0.00    +0.000 NA
ATOM     29  C   UNL     1       1.238   3.045  20.424  0.00  0.00    +0.000 A 
ATOM     30  C   UNL     1       1.851   2.805  19.211  0.00  0.00    +0.000 A 
ATOM     31  F   UNL     1       2.017   1.540  18.795  0.00  0.00    +0.000 F 
ATOM     32  C   UNL     1       2.339   3.878  18.461  0.00  0.00    +0.000 A 
ATOM     33  C   UNL     1       2.145   5.191  18.972  0.00  0.00    +0.000 A 
ATOM     34  C   UNL     1       2.544   6.374  18.301  0.00  0.00    +0.000 A 
BRANCH  24  36
ATOM     35  C   UNL     1       1.907   9.765  17.923  0.00  0.00    +0.000 C 
ATOM     36  O   UNL     1       2.812   8.681  18.102  0.00  0.00    +0.000 OA
ENDBRANCH  24  36
ENDBRANCH  23  32
ENDBRANCH  20  23
ENDBRANCH   1  20
TORSDOF 8
ENDMDL
MODEL 3
REMARK VINA RESULT:      -8.7      6.914     10.227
REMARK  Name = 
REMARK  9 active torsions:
REMARK  status: ('A' for Active; 'I' for Inactive)
REMARK    1  A    between atoms: C_1  and  O_2
REMARK    2  A    between atoms: O_2  and  C_3
REMARK    3  A    between atoms: C_11  and  C_12
REMARK    4  A    between atoms: C_12  and  C_13
REMARK    5  A    between atoms: C_13  and  O_14
REMARK    6  A    between atoms: C_13  and  C_15
REMARK    7  A    between atoms: C_18  and  N_19
REMARK    8  A    between atoms: N_19  and  C_20
REMARK    9  A    between atoms: C_20  and  C_21
REMARK                            x       y       z     vdW  Elec       q    Type
REMARK                         _______ _______ _______ _____ _____    ______ ____
ROOT
ATOM      1  C   UNL     1       1.667   8.506  20.139  0.00  0.00    +0.000 C 
ATOM      2  O   UNL     1       1.255   9.053  18.882  0.00  0.00    +0.000 OA
ATOM      3  C   UNL     1       0.686  10.353  19.057  0.00  0.00    +0.000 C 
ATOM      4  C   UNL     1      -0.522  10.331  20.008  0.00  0.00    +0.000 C 
ATOM      5  C   UNL     1      -0.099   9.563  21.282  0.00  0.00    +0.000 C 
ATOM      6  O   UNL     1       0.526   8.313  20.972  0.00  0.00    +0.000 OA
ENDROOT
BRANCH   4   7
ATOM      7  N   UNL     1      -1.012  11.679  20.358  0.00  0.00    +0.000 NA
ATOM      8  H   UNL     1      -1.711  11.605  21.105  0.00  0.00    +0.000 HD
BRANCH   7   9
ATOM      9  C   UNL     1      -1.684  12.377  19.247  0.00  0.00    +0.000 C 
BRANCH   9  10
ATOM     10  C   UNL     1      -3.190  12.163  19.305  0.00  0.00    +0.000 A 
ATOM     11  C   UNL     1      -3.927  12.484  20.447  0.00  0.00    +0.000 A 
ATOM     12  C   UNL     1      -5.289  12.185  20.471  0.00  0.00    +0.000 A 
ATOM     13  C   UNL     1      -5.888  11.623  19.351  0.00  0.00    +0.000 A 
ATOM     14  C   UNL     1      -5.091  11.358  18.253  0.00  0.00    +0.000 A 
ATOM     15  N   UNL     1      -3.760  11.598  18.206  0.00  0.00    +0.000 NA
ATOM     16  O   UNL     1      -7.216  11.312  19.293  0.00  0.00    +0.000 OA
ATOM     17  C   UNL     1      -7.674  10.960  20.598  0.00  0.00    +0.000 C 
ATOM     18  C   UNL     1      -7.340  12.037  21.623  0.00  0.00    +0.000 C 
ATOM     19  O   UNL     1      -5.960  12.429  21.640  0.00  0.00    +0.000 OA
ENDBRANCH   9  10
ENDBRANCH   7   9
ENDBRANCH   4   7
BRANCH   1  20
ATOM     20  C   UNL     1       2.411   7.157  19.876  0.00  0.00    +0.000 C 
BRANCH  20  21
ATOM     21  O   UNL     1       1.899   6.124  20.735  0.00  0.00    +0.000 OA
ATOM     22  H   UNL     1       1.566   6.579  21.532  0.00  0.00    +0.000 HD
ENDBRANCH  20  21
BRANCH  20  23
ATOM     23  C   UNL     1       2.213   6.728  18.407  0.00  0.00    +0.000 C 
BRANCH  23  32
ATOM     24  C   UNL     1       6.390   6.566  16.840  0.00  0.00    +0.000 A 
ATOM     25  C   UNL     1       6.848   5.371  16.302  0.00  0.00    +0.000 A 
ATOM     26  C   UNL     1       6.042   4.228  16.368  0.00  0.00    +0.000 A 
ATOM     27  C   UNL     1       4.782   4.249  16.947  0.00  0.00    +0.000 A 
ATOM     28  N   UNL     1       4.087   3.097  16.957  0.00  0.00    +0.000 NA
ATOM     29  C   UNL     1       2.849   3.123  17.493  0.00  0.00    +0.000 A 
ATOM     30  C   UNL     1       2.252   4.261  17.995  0.00  0.00    +0.000 A 
ATOM     31  F   UNL     1       0.992   4.198  18.453  0.00  0.00    +0.000 F 
ATOM     32  C   UNL     1       2.948   5.473  17.970  0.00  0.00    +0.000 A 
ATOM     33  C   UNL     1       4.272   5.470  17.454  0.00  0.00    +0.000 A 
ATOM     34  C   UNL     1       5.112   6.611  17.408  0.00  0.00    +0.000 A 
BRANCH  24  36
ATOM     35  C   UNL     1       7.973   7.936  17.961  0.00  0.00    +0.000 C 
ATOM     36  O   UNL     1       7.076   7.748  16.872  0.00  0.00    +0.000 OA
ENDBRANCH  24  36
ENDBRANCH  23  32
ENDBRANCH  20  23
ENDBRANCH   1  20
TORSDOF 8
ENDMDL
MODEL 4
REMARK VINA RESULT:      -8.7      3.307      9.678
REMARK  Name = 
REMARK  9 active torsions:
REMARK  status: ('A' for Active; 'I' for Inactive)
REMARK    1  A    between atoms: C_1  and  O_2
REMARK    2  A    between atoms: O_2  and  C_3
REMARK    3  A    between atoms: C_11  and  C_12
REMARK    4  A    between atoms: C_12  and  C_13
REMARK    5  A    between atoms: C_13  and  O_14
REMARK    6  A    between atoms: C_13  and  C_15
REMARK    7  A    between atoms: C_18  and  N_19
REMARK    8  A    between atoms: N_19  and  C_20
REMARK    9  A    between atoms: C_20  and  C_21
REMARK                            x       y       z     vdW  Elec       q    Type
REMARK                         _______ _______ _______ _____ _____    ______ ____
ROOT
ATOM      1  C   UNL     1       5.951   5.237  18.060  0.00  0.00    +0.000 C 
ATOM      2  O   UNL     1       7.364   5.184  18.286  0.00  0.00    +0.000 OA
ATOM      3  C   UNL     1       7.885   6.490  18.546  0.00  0.00    +0.000 C 
ATOM      4  C   UNL     1       7.605   7.463  17.389  0.00  0.00    +0.000 C 
ATOM      5  C   UNL     1       6.102   7.353  17.040  0.00  0.00    +0.000 C 
ATOM      6  O   UNL     1       5.686   5.992  16.880  0.00  0.00    +0.000 OA
ENDROOT
BRANCH   4   7
ATOM      7  N   UNL     1       7.960   8.860  17.705  0.00  0.00    +0.000 NA
ATOM      8  H   UNL     1       8.527   9.250  16.943  0.00  0.00    +0.000 HD
BRANCH   7   9
ATOM      9  C   UNL     1       8.772   9.009  18.926  0.00  0.00    +0.000 C 
BRANCH   9  10
ATOM     10  C   UNL     1       9.294  10.432  19.060  0.00  0.00    +0.000 A 
ATOM     11  C   UNL     1       9.406  11.052  20.306  0.00  0.00    +0.000 A 
ATOM     12  C   UNL     1       9.808  12.386  20.357  0.00  0.00    +0.000 A 
ATOM     13  C   UNL     1      10.133  13.050  19.182  0.00  0.00    +0.000 A 
ATOM     14  C   UNL     1      10.018  12.357  17.991  0.00  0.00    +0.000 A 
ATOM     15  N   UNL     1       9.594  11.075  17.899  0.00  0.00    +0.000 NA
ATOM     16  O   UNL     1      10.545  14.351  19.149  0.00  0.00    +0.000 OA
ATOM     17  C   UNL     1       9.935  15.064  20.226  0.00  0.00    +0.000 C 
ATOM     18  C   UNL     1      10.175  14.377  21.564  0.00  0.00    +0.000 C 
ATOM     19  O   UNL     1       9.818  12.987  21.588  0.00  0.00    +0.000 OA
ENDBRANCH   9  10
ENDBRANCH   7   9
ENDBRANCH   4   7
BRANCH   1  20
ATOM     20  C   UNL     1       5.412   3.775  17.928  0.00  0.00    +0.000 C 
BRANCH  20  21
ATOM     21  O   UNL     1       5.581   3.063  19.165  0.00  0.00    +0.000 OA
ATOM     22  H   UNL     1       6.352   3.469  19.605  0.00  0.00    +0.000 HD
ENDBRANCH  20  21
BRANCH  20  23
ATOM     23  C   UNL     1       3.913   3.801  17.566  0.00  0.00    +0.000 C 
BRANCH  23  32
ATOM     24  C   UNL     1       2.331   7.722  18.999  0.00  0.00    +0.000 A 
ATOM     25  C   UNL     1       1.614   7.750  20.187  0.00  0.00    +0.000 A 
ATOM     26  C   UNL     1       1.306   6.551  20.840  0.00  0.00    +0.000 A 
ATOM     27  C   UNL     1       1.708   5.319  20.343  0.00  0.00    +0.000 A 
ATOM     28  N   UNL     1       1.363   4.226  21.047  0.00  0.00    +0.000 NA
ATOM     29  C   UNL     1       1.779   3.031  20.581  0.00  0.00    +0.000 A 
ATOM     30  C   UNL     1       2.558   2.873  19.453  0.00  0.00    +0.000 A 
ATOM     31  F   UNL     1       2.972   1.646  19.103  0.00  0.00    +0.000 F 
ATOM     32  C   UNL     1       2.948   3.999  18.722  0.00  0.00    +0.000 A 
ATOM     33  C   UNL     1       2.487   5.270  19.161  0.00  0.00    +0.000 A 
ATOM     34  C   UNL     1       2.764   6.491  18.496  0.00  0.00    +0.000 A 
BRANCH  24  36
ATOM     35  C   UNL     1       1.651   9.759  17.986  0.00  0.00    +0.000 C 
ATOM     36  O   UNL     1       2.676   8.807  18.243  0.00  0.00    +0.000 OA
ENDBRANCH  24  36
ENDBRANCH  23  32
ENDBRANCH  20  23
ENDBRANCH   1  20
TORSDOF 8
ENDMDL
MODEL 5
REMARK VINA RESULT:      -8.6      3.410      9.653
REMARK  Name = 
REMARK  9 active torsions:
REMARK  status: ('A' for Active; 'I' for Inactive)
REMARK    1  A    between atoms: C_1  and  O_2
REMARK    2  A    between atoms: O_2  and  C_3
REMARK    3  A    between atoms: C_11  and  C_12
REMARK    4  A    between atoms: C_12  and  C_13
REMARK    5  A    between atoms: C_13  and  O_14
REMARK    6  A    between atoms: C_13  and  C_15
REMARK    7  A    between atoms: C_18  and  N_19
REMARK    8  A    between atoms: N_19  and  C_20
REMARK    9  A    between atoms: C_20  and  C_21
REMARK                            x       y       z     vdW  Elec       q    Type
REMARK                         _______ _______ _______ _____ _____    ______ ____
ROOT
ATOM      1  C   UNL     1       5.315   4.803  17.438  0.00  0.00    +0.000 C 
ATOM      2  O   UNL     1       6.639   4.345  17.733  0.00  0.00    +0.000 OA
ATOM      3  C   UNL     1       7.391   5.363  18.398  0.00  0.00    +0.000 C 
ATOM      4  C   UNL     1       7.486   6.649  17.560  0.00  0.00    +0.000 C 
ATOM      5  C   UNL     1       6.056   7.011  17.096  0.00  0.00    +0.000 C 
ATOM      6  O   UNL     1       5.380   5.889  16.517  0.00  0.00    +0.000 OA
ENDROOT
BRANCH   4   7
ATOM      7  N   UNL     1       8.090   7.778  18.295  0.00  0.00    +0.000 NA
ATOM      8  H   UNL     1       7.492   8.029  19.090  0.00  0.00    +0.000 HD
BRANCH   7   9
ATOM      9  C   UNL     1       8.227   9.008  17.493  0.00  0.00    +0.000 C 
BRANCH   9  10
ATOM     10  C   UNL     1       8.699  10.168  18.357  0.00  0.00    +0.000 A 
ATOM     11  C   UNL     1       8.769  11.469  17.854  0.00  0.00    +0.000 A 
ATOM     12  C   UNL     1       9.291  12.475  18.666  0.00  0.00    +0.000 A 
ATOM     13  C   UNL     1       9.682  12.174  19.965  0.00  0.00    +0.000 A 
ATOM     14  C   UNL     1       9.557  10.866  20.394  0.00  0.00    +0.000 A 
ATOM     15  N   UNL     1       9.092   9.856  19.622  0.00  0.00    +0.000 NA
ATOM     16  O   UNL     1      10.191  13.104  20.825  0.00  0.00    +0.000 OA
ATOM     17  C   UNL     1      10.897  14.096  20.080  0.00  0.00    +0.000 C 
ATOM     18  C   UNL     1      10.035  14.690  18.973  0.00  0.00    +0.000 C 
ATOM     19  O   UNL     1       9.430  13.718  18.108  0.00  0.00    +0.000 OA
ENDBRANCH   9  10
ENDBRANCH   7   9
ENDBRANCH   4   7
BRANCH   1  20
ATOM     20  C   UNL     1       4.494   3.610  16.849  0.00  0.00    +0.000 C 
BRANCH  20  21
ATOM     21  O   UNL     1       4.676   2.429  17.649  0.00  0.00    +0.000 OA
ATOM     22  H   UNL     1       3.908   1.857  17.459  0.00  0.00    +0.000 HD
ENDBRANCH  20  21
BRANCH  20  23
ATOM     23  C   UNL     1       2.994   3.970  16.821  0.00  0.00    +0.000 C 
BRANCH  23  32
ATOM     24  C   UNL     1       2.300   7.832  18.949  0.00  0.00    +0.000 A 
ATOM     25  C   UNL     1       1.847   7.792  20.260  0.00  0.00    +0.000 A 
ATOM     26  C   UNL     1       1.511   6.562  20.839  0.00  0.00    +0.000 A 
ATOM     27  C   UNL     1       1.628   5.367  20.146  0.00  0.00    +0.000 A 
ATOM     28  N   UNL     1       1.281   4.240  20.795  0.00  0.00    +0.000 NA
ATOM     29  C   UNL     1       1.423   3.074  20.132  0.00  0.00    +0.000 A 
ATOM     30  C   UNL     1       1.929   2.972  18.853  0.00  0.00    +0.000 A 
ATOM     31  F   UNL     1       2.088   1.760  18.300  0.00  0.00    +0.000 F 
ATOM     32  C   UNL     1       2.319   4.129  18.172  0.00  0.00    +0.000 A 
ATOM     33  C   UNL     1       2.139   5.379  18.825  0.00  0.00    +0.000 A 
ATOM     34  C   UNL     1       2.445   6.634  18.242  0.00  0.00    +0.000 A 
BRANCH  24  36
ATOM     35  C   UNL     1       1.618   9.940  18.093  0.00  0.00    +0.000 C 
ATOM     36  O   UNL     1       2.635   8.957  18.249  0.00  0.00    +0.000 OA
ENDBRANCH  24  36
ENDBRANCH  23  32
ENDBRANCH  20  23
ENDBRANCH   1  20
TORSDOF 8
ENDMDL
MODEL 6
REMARK VINA RESULT:      -8.5      6.917     10.564
REMARK  Name = 
REMARK  9 active torsions:
REMARK  status: ('A' for Active; 'I' for Inactive)
REMARK    1  A    between atoms: C_1  and  O_2
REMARK    2  A    between atoms: O_2  and  C_3
REMARK    3  A    between atoms: C_11  and  C_12
REMARK    4  A    between atoms: C_12  and  C_13
REMARK    5  A    between atoms: C_13  and  O_14
REMARK    6  A    between atoms: C_13  and  C_15
REMARK    7  A    between atoms: C_18  and  N_19
REMARK    8  A    between atoms: N_19  and  C_20
REMARK    9  A    between atoms: C_20  and  C_21
REMARK                            x       y       z     vdW  Elec       q    Type
REMARK                         _______ _______ _______ _____ _____    ______ ____
ROOT
ATOM      1  C   UNL     1       1.618   8.816  19.678  0.00  0.00    +0.000 C 
ATOM      2  O   UNL     1       0.541   9.665  19.264  0.00  0.00    +0.000 OA
ATOM      3  C   UNL     1       0.206  10.597  20.294  0.00  0.00    +0.000 C 
ATOM      4  C   UNL     1      -0.193   9.893  21.602  0.00  0.00    +0.000 C 
ATOM      5  C   UNL     1       0.899   8.845  21.919  0.00  0.00    +0.000 C 
ATOM      6  O   UNL     1       1.200   8.023  20.786  0.00  0.00    +0.000 OA
ENDROOT
BRANCH   4   7
ATOM      7  N   UNL     1      -0.360  10.823  22.736  0.00  0.00    +0.000 NA
ATOM      8  H   UNL     1      -1.200  10.568  23.266  0.00  0.00    +0.000 HD
BRANCH   7   9
ATOM      9  C   UNL     1      -0.550  12.228  22.333  0.00  0.00    +0.000 C 
BRANCH   9  10
ATOM     10  C   UNL     1      -2.031  12.570  22.245  0.00  0.00    +0.000 A 
ATOM     11  C   UNL     1      -2.881  12.408  23.341  0.00  0.00    +0.000 A 
ATOM     12  C   UNL     1      -4.243  12.656  23.174  0.00  0.00    +0.000 A 
ATOM     13  C   UNL     1      -4.714  13.101  21.946  0.00  0.00    +0.000 A 
ATOM     14  C   UNL     1      -3.802  13.259  20.919  0.00  0.00    +0.000 A 
ATOM     15  N   UNL     1      -2.480  12.991  21.032  0.00  0.00    +0.000 NA
ATOM     16  O   UNL     1      -6.030  13.377  21.707  0.00  0.00    +0.000 OA
ATOM     17  C   UNL     1      -6.842  12.526  22.516  0.00  0.00    +0.000 C 
ATOM     18  C   UNL     1      -6.455  12.609  23.987  0.00  0.00    +0.000 C 
ATOM     19  O   UNL     1      -5.059  12.398  24.244  0.00  0.00    +0.000 OA
ENDBRANCH   9  10
ENDBRANCH   7   9
ENDBRANCH   4   7
BRANCH   1  20
ATOM     20  C   UNL     1       2.040   7.920  18.468  0.00  0.00    +0.000 C 
BRANCH  20  21
ATOM     21  O   UNL     1       2.278   8.727  17.302  0.00  0.00    +0.000 OA
ATOM     22  H   UNL     1       1.410   9.093  17.049  0.00  0.00    +0.000 HD
ENDBRANCH  20  21
BRANCH  20  23
ATOM     23  C   UNL     1       3.330   7.148  18.814  0.00  0.00    +0.000 C 
BRANCH  23  32
ATOM     24  C   UNL     1       1.794   3.010  19.485  0.00  0.00    +0.000 A 
ATOM     25  C   UNL     1       2.323   1.978  18.722  0.00  0.00    +0.000 A 
ATOM     26  C   UNL     1       3.229   2.269  17.695  0.00  0.00    +0.000 A 
ATOM     27  C   UNL     1       3.631   3.567  17.415  0.00  0.00    +0.000 A 
ATOM     28  N   UNL     1       4.507   3.738  16.407  0.00  0.00    +0.000 NA
ATOM     29  C   UNL     1       4.921   4.997  16.154  0.00  0.00    +0.000 A 
ATOM     30  C   UNL     1       4.528   6.099  16.885  0.00  0.00    +0.000 A 
ATOM     31  F   UNL     1       5.043   7.303  16.593  0.00  0.00    +0.000 F 
ATOM     32  C   UNL     1       3.638   5.938  17.951  0.00  0.00    +0.000 A 
ATOM     33  C   UNL     1       3.145   4.630  18.215  0.00  0.00    +0.000 A 
ATOM     34  C   UNL     1       2.206   4.323  19.231  0.00  0.00    +0.000 A 
BRANCH  24  36
ATOM     35  C   UNL     1       1.405   2.600  21.791  0.00  0.00    +0.000 C 
ATOM     36  O   UNL     1       0.885   2.878  20.496  0.00  0.00    +0.000 OA
ENDBRANCH  24  36
ENDBRANCH  23  32
ENDBRANCH  20  23
ENDBRANCH   1  20
TORSDOF 8
ENDMDL
MODEL 7
REMARK VINA RESULT:      -8.5      7.196     10.388
REMARK  Name = 
REMARK  9 active torsions:
REMARK  status: ('A' for Active; 'I' for Inactive)
REMARK    1  A    between atoms: C_1  and  O_2
REMARK    2  A    between atoms: O_2  and  C_3
REMARK    3  A    between atoms: C_11  and  C_12
REMARK    4  A    between atoms: C_12  and  C_13
REMARK    5  A    between atoms: C_13  and  O_14
REMARK    6  A    between atoms: C_13  and  C_15
REMARK    7  A    between atoms: C_18  and  N_19
REMARK    8  A    between atoms: N_19  and  C_20
REMARK    9  A    between atoms: C_20  and  C_21
REMARK                            x       y       z     vdW  Elec       q    Type
REMARK                         _______ _______ _______ _____ _____    ______ ____
ROOT
ATOM      1  C   UNL     1       1.388   8.533  19.871  0.00  0.00    +0.000 C 
ATOM      2  O   UNL     1       1.497   8.964  21.232  0.00  0.00    +0.000 OA
ATOM      3  C   UNL     1       0.535   9.981  21.520  0.00  0.00    +0.000 C 
ATOM      4  C   UNL     1       0.695  11.203  20.599  0.00  0.00    +0.000 C 
ATOM      5  C   UNL     1       0.767  10.684  19.144  0.00  0.00    +0.000 C 
ATOM      6  O   UNL     1       1.709   9.615  19.001  0.00  0.00    +0.000 OA
ENDROOT
BRANCH   4   7
ATOM      7  N   UNL     1      -0.397  12.186  20.742  0.00  0.00    +0.000 NA
ATOM      8  H   UNL     1      -0.045  13.123  20.518  0.00  0.00    +0.000 HD
BRANCH   7   9
ATOM      9  C   UNL     1      -0.942  12.278  22.108  0.00  0.00    +0.000 C 
BRANCH   9  10
ATOM     10  C   UNL     1      -2.433  12.585  22.077  0.00  0.00    +0.000 A 
ATOM     11  C   UNL     1      -3.227  12.452  23.218  0.00  0.00    +0.000 A 
ATOM     12  C   UNL     1      -4.600  12.664  23.106  0.00  0.00    +0.000 A 
ATOM     13  C   UNL     1      -5.139  13.047  21.885  0.00  0.00    +0.000 A 
ATOM     14  C   UNL     1      -4.279  13.180  20.810  0.00  0.00    +0.000 A 
ATOM     15  N   UNL     1      -2.948  12.945  20.870  0.00  0.00    +0.000 NA
ATOM     16  O   UNL     1      -6.470  13.285  21.697  0.00  0.00    +0.000 OA
ATOM     17  C   UNL     1      -7.224  12.452  22.579  0.00  0.00    +0.000 C 
ATOM     18  C   UNL     1      -6.770  12.606  24.025  0.00  0.00    +0.000 C 
ATOM     19  O   UNL     1      -5.359  12.435  24.224  0.00  0.00    +0.000 OA
ENDBRANCH   9  10
ENDBRANCH   7   9
ENDBRANCH   4   7
BRANCH   1  20
ATOM     20  C   UNL     1       2.356   7.324  19.651  0.00  0.00    +0.000 C 
BRANCH  20  21
ATOM     21  O   UNL     1       2.102   6.293  20.620  0.00  0.00    +0.000 OA
ATOM     22  H   UNL     1       1.200   5.968  20.435  0.00  0.00    +0.000 HD
ENDBRANCH  20  21
BRANCH  20  23
ATOM     23  C   UNL     1       2.154   6.743  18.237  0.00  0.00    +0.000 C 
BRANCH  23  32
ATOM     24  C   UNL     1       6.420   6.663  16.926  0.00  0.00    +0.000 A 
ATOM     25  C   UNL     1       6.950   5.462  16.473  0.00  0.00    +0.000 A 
ATOM     26  C   UNL     1       6.181   4.295  16.546  0.00  0.00    +0.000 A 
ATOM     27  C   UNL     1       4.888   4.296  17.050  0.00  0.00    +0.000 A 
ATOM     28  N   UNL     1       4.233   3.120  17.074  0.00  0.00    +0.000 NA
ATOM     29  C   UNL     1       2.966   3.126  17.535  0.00  0.00    +0.000 A 
ATOM     30  C   UNL     1       2.301   4.262  17.946  0.00  0.00    +0.000 A 
ATOM     31  F   UNL     1       1.019   4.174  18.332  0.00  0.00    +0.000 F 
ATOM     32  C   UNL     1       2.955   5.497  17.904  0.00  0.00    +0.000 A 
ATOM     33  C   UNL     1       4.308   5.519  17.467  0.00  0.00    +0.000 A 
ATOM     34  C   UNL     1       5.110   6.686  17.416  0.00  0.00    +0.000 A 
BRANCH  24  36
ATOM     35  C   UNL     1       8.011   8.074  17.983  0.00  0.00    +0.000 C 
ATOM     36  O   UNL     1       7.062   7.869  16.942  0.00  0.00    +0.000 OA
ENDBRANCH  24  36
ENDBRANCH  23  32
ENDBRANCH  20  23
ENDBRANCH   1  20
TORSDOF 8
ENDMDL
MODEL 8
REMARK VINA RESULT:      -8.5      7.234     10.436
REMARK  Name = 
REMARK  9 active torsions:
REMARK  status: ('A' for Active; 'I' for Inactive)
REMARK    1  A    between atoms: C_1  and  O_2
REMARK    2  A    between atoms: O_2  and  C_3
REMARK    3  A    between atoms: C_11  and  C_12
REMARK    4  A    between atoms: C_12  and  C_13
REMARK    5  A    between atoms: C_13  and  O_14
REMARK    6  A    between atoms: C_13  and  C_15
REMARK    7  A    between atoms: C_18  and  N_19
REMARK    8  A    between atoms: N_19  and  C_20
REMARK    9  A    between atoms: C_20  and  C_21
REMARK                            x       y       z     vdW  Elec       q    Type
REMARK                         _______ _______ _______ _____ _____    ______ ____
ROOT
ATOM      1  C   UNL     1       1.062   9.190  19.197  0.00  0.00    +0.000 C 
ATOM      2  O   UNL     1       1.440   8.983  20.563  0.00  0.00    +0.000 OA
ATOM      3  C   UNL     1       0.736   9.880  21.425  0.00  0.00    +0.000 C 
ATOM      4  C   UNL     1       0.992  11.352  21.058  0.00  0.00    +0.000 C 
ATOM      5  C   UNL     1       0.760  11.500  19.536  0.00  0.00    +0.000 C 
ATOM      6  O   UNL     1       1.456  10.497  18.787  0.00  0.00    +0.000 OA
ENDROOT
BRANCH   4   7
ATOM      7  N   UNL     1       0.136  12.295  21.804  0.00  0.00    +0.000 NA
ATOM      8  H   UNL     1       0.721  12.889  22.401  0.00  0.00    +0.000 HD
BRANCH   7   9
ATOM      9  C   UNL     1      -0.826  11.640  22.709  0.00  0.00    +0.000 C 
BRANCH   9  10
ATOM     10  C   UNL     1      -2.229  12.193  22.500  0.00  0.00    +0.000 A 
ATOM     11  C   UNL     1      -3.173  12.188  23.528  0.00  0.00    +0.000 A 
ATOM     12  C   UNL     1      -4.467  12.628  23.252  0.00  0.00    +0.000 A 
ATOM     13  C   UNL     1      -4.774  13.102  21.983  0.00  0.00    +0.000 A 
ATOM     14  C   UNL     1      -3.774  13.095  21.028  0.00  0.00    +0.000 A 
ATOM     15  N   UNL     1      -2.519  12.640  21.248  0.00  0.00    +0.000 NA
ATOM     16  O   UNL     1      -6.013  13.560  21.636  0.00  0.00    +0.000 OA
ATOM     17  C   UNL     1      -7.000  12.861  22.394  0.00  0.00    +0.000 C 
ATOM     18  C   UNL     1      -6.716  12.929  23.890  0.00  0.00    +0.000 C 
ATOM     19  O   UNL     1      -5.390  12.523  24.259  0.00  0.00    +0.000 OA
ENDBRANCH   9  10
ENDBRANCH   7   9
ENDBRANCH   4   7
BRANCH   1  20
ATOM     20  C   UNL     1       1.745   8.092  18.319  0.00  0.00    +0.000 C 
BRANCH  20  21
ATOM     21  O   UNL     1       2.560   8.696  17.301  0.00  0.00    +0.000 OA
ATOM     22  H   UNL     1       2.065   8.593  16.466  0.00  0.00    +0.000 HD
ENDBRANCH  20  21
BRANCH  20  23
ATOM     23  C   UNL     1       2.633   7.192  19.203  0.00  0.00    +0.000 C 
BRANCH  23  32
ATOM     24  C   UNL     1       6.160   6.081  16.702  0.00  0.00    +0.000 A 
ATOM     25  C   UNL     1       6.188   4.819  16.123  0.00  0.00    +0.000 A 
ATOM     26  C   UNL     1       5.181   3.895  16.427  0.00  0.00    +0.000 A 
ATOM     27  C   UNL     1       4.137   4.202  17.287  0.00  0.00    +0.000 A 
ATOM     28  N   UNL     1       3.219   3.243  17.511  0.00  0.00    +0.000 NA
ATOM     29  C   UNL     1       2.187   3.551  18.323  0.00  0.00    +0.000 A 
ATOM     30  C   UNL     1       2.005   4.790  18.901  0.00  0.00    +0.000 A 
ATOM     31  F   UNL     1       0.912   5.017  19.646  0.00  0.00    +0.000 F 
ATOM     32  C   UNL     1       2.933   5.806  18.660  0.00  0.00    +0.000 A 
ATOM     33  C   UNL     1       4.058   5.501  17.846  0.00  0.00    +0.000 A 
ATOM     34  C   UNL     1       5.102   6.415  17.553  0.00  0.00    +0.000 A 
BRANCH  24  36
ATOM     35  C   UNL     1       7.670   7.622  17.694  0.00  0.00    +0.000 C 
ATOM     36  O   UNL     1       7.086   7.069  16.520  0.00  0.00    +0.000 OA
ENDBRANCH  24  36
ENDBRANCH  23  32
ENDBRANCH  20  23
ENDBRANCH   1  20
TORSDOF 8
ENDMDL
MODEL 9
REMARK VINA RESULT:      -8.5      7.161     10.337
REMARK  Name = 
REMARK  9 active torsions:
REMARK  status: ('A' for Active; 'I' for Inactive)
REMARK    1  A    between atoms: C_1  and  O_2
REMARK    2  A    between atoms: O_2  and  C_3
REMARK    3  A    between atoms: C_11  and  C_12
REMARK    4  A    between atoms: C_12  and  C_13
REMARK    5  A    between atoms: C_13  and  O_14
REMARK    6  A    between atoms: C_13  and  C_15
REMARK    7  A    between atoms: C_18  and  N_19
REMARK    8  A    between atoms: N_19  and  C_20
REMARK    9  A    between atoms: C_20  and  C_21
REMARK                            x       y       z     vdW  Elec       q    Type
REMARK                         _______ _______ _______ _____ _____    ______ ____
ROOT
ATOM      1  C   UNL     1       1.494   9.138  18.903  0.00  0.00    +0.000 C 
ATOM      2  O   UNL     1       0.333   9.652  18.241  0.00  0.00    +0.000 OA
ATOM      3  C   UNL     1      -0.191  10.782  18.943  0.00  0.00    +0.000 C 
ATOM      4  C   UNL     1      -0.561  10.437  20.395  0.00  0.00    +0.000 C 
ATOM      5  C   UNL     1       0.649   9.709  21.025  0.00  0.00    +0.000 C 
ATOM      6  O   UNL     1       1.131   8.649  20.192  0.00  0.00    +0.000 OA
ENDROOT
BRANCH   4   7
ATOM      7  N   UNL     1      -0.926  11.620  21.199  0.00  0.00    +0.000 NA
ATOM      8  H   UNL     1      -1.633  11.357  21.894  0.00  0.00    +0.000 HD
BRANCH   7   9
ATOM      9  C   UNL     1      -1.524  12.715  20.413  0.00  0.00    +0.000 C 
BRANCH   9  10
ATOM     10  C   UNL     1      -3.039  12.579  20.361  0.00  0.00    +0.000 A 
ATOM     11  C   UNL     1      -3.825  12.763  21.500  0.00  0.00    +0.000 A 
ATOM     12  C   UNL     1      -5.199  12.541  21.410  0.00  0.00    +0.000 A 
ATOM     13  C   UNL     1      -5.758  12.191  20.187  0.00  0.00    +0.000 A 
ATOM     14  C   UNL     1      -4.912  12.053  19.102  0.00  0.00    +0.000 A 
ATOM     15  N   UNL     1      -3.571  12.222  19.161  0.00  0.00    +0.000 NA
ATOM     16  O   UNL     1      -7.093  11.968  20.014  0.00  0.00    +0.000 OA
ATOM     17  C   UNL     1      -7.643  11.447  21.225  0.00  0.00    +0.000 C 
ATOM     18  C   UNL     1      -7.318  12.335  22.419  0.00  0.00    +0.000 C 
ATOM     19  O   UNL     1      -5.924  12.641  22.567  0.00  0.00    +0.000 OA
ENDBRANCH   9  10
ENDBRANCH   7   9
ENDBRANCH   4   7
BRANCH   1  20
ATOM     20  C   UNL     1       2.110   8.004  18.021  0.00  0.00    +0.000 C 
BRANCH  20  21
ATOM     21  O   UNL     1       2.965   8.562  17.008  0.00  0.00    +0.000 OA
ATOM     22  H   UNL     1       3.561   9.181  17.472  0.00  0.00    +0.000 HD
ENDBRANCH  20  21
BRANCH  20  23
ATOM     23  C   UNL     1       2.938   7.046  18.903  0.00  0.00    +0.000 C 
BRANCH  23  32
ATOM     24  C   UNL     1       6.631   6.000  16.622  0.00  0.00    +0.000 A 
ATOM     25  C   UNL     1       6.680   4.774  15.973  0.00  0.00    +0.000 A 
ATOM     26  C   UNL     1       5.635   3.858  16.141  0.00  0.00    +0.000 A 
ATOM     27  C   UNL     1       4.532   4.138  16.933  0.00  0.00    +0.000 A 
ATOM     28  N   UNL     1       3.581   3.190  17.027  0.00  0.00    +0.000 NA
ATOM     29  C   UNL     1       2.494   3.474  17.772  0.00  0.00    +0.000 A 
ATOM     30  C   UNL     1       2.290   4.682  18.409  0.00  0.00    +0.000 A 
ATOM     31  F   UNL     1       1.146   4.890  19.078  0.00  0.00    +0.000 F 
ATOM     32  C   UNL     1       3.254   5.688  18.302  0.00  0.00    +0.000 A 
ATOM     33  C   UNL     1       4.434   5.404  17.562  0.00  0.00    +0.000 A 
ATOM     34  C   UNL     1       5.514   6.308  17.407  0.00  0.00    +0.000 A 
BRANCH  24  36
ATOM     35  C   UNL     1       7.856   7.668  17.786  0.00  0.00    +0.000 C 
ATOM     36  O   UNL     1       7.587   6.975  16.573  0.00  0.00    +0.000 OA
ENDBRANCH  24  36
ENDBRANCH  23  32
ENDBRANCH  20  23
ENDBRANCH   1  20
TORSDOF 8
ENDMDL
