MODEL 1
REMARK VINA RESULT:      -7.5      0.000      0.000
REMARK  Name = 
REMARK  4 active torsions:
REMARK  status: ('A' for Active; 'I' for Inactive)
REMARK    1  A    between atoms: C_1  and  O_2
REMARK    2  A    between atoms: O_2  and  C_3
REMARK    3  A    between atoms: C_5  and  C_6
REMARK    4  A    between atoms: C_13  and  C_14
REMARK                            x       y       z     vdW  Elec       q    Type
REMARK                         _______ _______ _______ _____ _____    ______ ____
ROOT
ATOM      1  C   UNL     1       3.045   3.256  17.724  0.00  0.00    +0.000 A 
ATOM      2  C   UNL     1       4.285   3.842  17.452  0.00  0.00    +0.000 A 
ATOM      3  C   UNL     1       4.464   5.245  17.430  0.00  0.00    +0.000 A 
ATOM      4  C   UNL     1       3.351   6.067  17.722  0.00  0.00    +0.000 A 
ATOM      5  C   UNL     1       3.395   7.571  17.789  0.00  0.00    +0.000 C 
ATOM      6  C   UNL     1       2.103   5.468  17.977  0.00  0.00    +0.000 A 
ATOM      7  C   UNL     1       1.955   4.085  17.964  0.00  0.00    +0.000 A 
ATOM      8  F   UNL     1       0.744   3.563  18.208  0.00  0.00    +0.000 F 
ENDROOT
BRANCH   3   9
ATOM      9  C   UNL     1       5.838   5.798  17.091  0.00  0.00    +0.000 C 
ATOM     10  O   UNL     1       6.021   5.927  15.662  0.00  0.00    +0.000 OA
ATOM     11  C   UNL     1       7.156   5.271  15.295  0.00  0.00    +0.000 C 
ATOM     12  O   UNL     1       7.543   5.166  14.146  0.00  0.00    +0.000 OA
ATOM     13  N   UNL     1       7.754   4.738  16.370  0.00  0.00    +0.000 N 
ATOM     14  C   UNL     1       6.994   4.908  17.474  0.00  0.00    +0.000 C 
ATOM     15  O   UNL     1       7.230   4.422  18.570  0.00  0.00    +0.000 OA
ATOM     16  H   UNL     1       8.578   4.164  16.320  0.00  0.00    +0.000 HD
ENDBRANCH   3   9
BRANCH   1  18
ATOM     17  C   UNL     1       3.669   1.137  18.563  0.00  0.00    +0.000 C 
ATOM     18  O   UNL     1       2.810   1.908  17.730  0.00  0.00    +0.000 OA
ENDBRANCH   1  18
TORSDOF 2
ENDMDL
MODEL 2
REMARK VINA RESULT:      -7.2      1.369      1.369
REMARK  Name = 
REMARK  4 active torsions:
REMARK  status: ('A' for Active; 'I' for Inactive)
REMARK    1  A    between atoms: C_1  and  O_2
REMARK    2  A    between atoms: O_2  and  C_3
REMARK    3  A    between atoms: C_5  and  C_6
REMARK    4  A    between atoms: C_13  and  C_14
REMARK                            x       y       z     vdW  Elec       q    Type
REMARK                         _______ _______ _______ _____ _____    ______ ____
ROOT
ATOM      1  C   UNL     1       3.782   3.828  18.945  0.00  0.00    +0.000 A 
ATOM      2  C   UNL     1       4.610   4.419  17.986  0.00  0.00    +0.000 A 
ATOM      3  C   UNL     1       4.406   5.743  17.531  0.00  0.00    +0.000 A 
ATOM      4  C   UNL     1       3.344   6.488  18.093  0.00  0.00    +0.000 A 
ATOM      5  C   UNL     1       3.031   7.921  17.750  0.00  0.00    +0.000 C 
ATOM      6  C   UNL     1       2.504   5.878  19.043  0.00  0.00    +0.000 A 
ATOM      7  C   UNL     1       2.716   4.564  19.450  0.00  0.00    +0.000 A 
ATOM      8  F   UNL     1       1.886   4.027  20.355  0.00  0.00    +0.000 F 
ENDROOT
BRANCH   3   9
ATOM      9  C   UNL     1       5.333   6.296  16.461  0.00  0.00    +0.000 C 
ATOM     10  O   UNL     1       5.282   5.503  15.253  0.00  0.00    +0.000 OA
ATOM     11  C   UNL     1       6.543   5.121  14.913  0.00  0.00    +0.000 C 
ATOM     12  O   UNL     1       6.809   4.405  13.966  0.00  0.00    +0.000 OA
ATOM     13  N   UNL     1       7.430   5.617  15.787  0.00  0.00    +0.000 N 
ATOM     14  C   UNL     1       6.801   6.246  16.804  0.00  0.00    +0.000 C 
ATOM     15  O   UNL     1       7.349   6.687  17.803  0.00  0.00    +0.000 OA
ATOM     16  H   UNL     1       8.414   5.413  15.756  0.00  0.00    +0.000 HD
ENDBRANCH   3   9
BRANCH   1  18
ATOM     17  C   UNL     1       3.511   1.525  18.494  0.00  0.00    +0.000 C 
ATOM     18  O   UNL     1       3.918   2.545  19.399  0.00  0.00    +0.000 OA
ENDBRANCH   1  18
TORSDOF 2
ENDMDL
MODEL 3
REMARK VINA RESULT:      -7.1      1.093      1.093
REMARK  Name = 
REMARK  4 active torsions:
REMARK  status: ('A' for Active; 'I' for Inactive)
REMARK    1  A    between atoms: C_1  and  O_2
REMARK    2  A    between atoms: O_2  and  C_3
REMARK    3  A    between atoms: C_5  and  C_6
REMARK    4  A    between atoms: C_13  and  C_14
REMARK                            x       y       z     vdW  Elec       q    Type
REMARK                         _______ _______ _______ _____ _____    ______ ____
ROOT
ATOM      1  C   UNL     1       3.043   3.532  19.037  0.00  0.00    +0.000 A 
ATOM      2  C   UNL     1       4.242   4.148  18.666  0.00  0.00    +0.000 A 
ATOM      3  C   UNL     1       4.298   5.504  18.269  0.00  0.00    +0.000 A 
ATOM      4  C   UNL     1       3.100   6.256  18.278  0.00  0.00    +0.000 A 
ATOM      5  C   UNL     1       3.007   7.718  17.931  0.00  0.00    +0.000 C 
ATOM      6  C   UNL     1       1.895   5.622  18.635  0.00  0.00    +0.000 A 
ATOM      7  C   UNL     1       1.871   4.278  18.995  0.00  0.00    +0.000 A 
ATOM      8  F   UNL     1       0.697   3.719  19.322  0.00  0.00    +0.000 F 
ENDROOT
BRANCH   3   9
ATOM      9  C   UNL     1       5.639   6.085  17.848  0.00  0.00    +0.000 C 
ATOM     10  O   UNL     1       5.933   5.791  16.463  0.00  0.00    +0.000 OA
ATOM     11  C   UNL     1       7.153   5.193  16.382  0.00  0.00    +0.000 C 
ATOM     12  O   UNL     1       7.648   4.788  15.347  0.00  0.00    +0.000 OA
ATOM     13  N   UNL     1       7.702   5.087  17.600  0.00  0.00    +0.000 N 
ATOM     14  C   UNL     1       6.836   5.497  18.553  0.00  0.00    +0.000 C 
ATOM     15  O   UNL     1       7.019   5.400  19.757  0.00  0.00    +0.000 OA
ATOM     16  H   UNL     1       8.578   4.628  17.778  0.00  0.00    +0.000 HD
ENDBRANCH   3   9
BRANCH   1  18
ATOM     17  C   UNL     1       3.603   1.286  18.567  0.00  0.00    +0.000 C 
ATOM     18  O   UNL     1       2.928   2.219  19.403  0.00  0.00    +0.000 OA
ENDBRANCH   1  18
TORSDOF 2
ENDMDL
MODEL 4
REMARK VINA RESULT:      -6.9      3.327      5.540
REMARK  Name = 
REMARK  4 active torsions:
REMARK  status: ('A' for Active; 'I' for Inactive)
REMARK    1  A    between atoms: C_1  and  O_2
REMARK    2  A    between atoms: O_2  and  C_3
REMARK    3  A    between atoms: C_5  and  C_6
REMARK    4  A    between atoms: C_13  and  C_14
REMARK                            x       y       z     vdW  Elec       q    Type
REMARK                         _______ _______ _______ _____ _____    ______ ____
ROOT
ATOM      1  C   UNL     1       5.787   5.376  18.460  0.00  0.00    +0.000 A 
ATOM      2  C   UNL     1       4.597   4.995  19.087  0.00  0.00    +0.000 A 
ATOM      3  C   UNL     1       3.382   5.687  18.876  0.00  0.00    +0.000 A 
ATOM      4  C   UNL     1       3.380   6.780  17.979  0.00  0.00    +0.000 A 
ATOM      5  C   UNL     1       2.160   7.582  17.612  0.00  0.00    +0.000 C 
ATOM      6  C   UNL     1       4.587   7.168  17.367  0.00  0.00    +0.000 A 
ATOM      7  C   UNL     1       5.771   6.481  17.617  0.00  0.00    +0.000 A 
ATOM      8  F   UNL     1       6.896   6.892  17.013  0.00  0.00    +0.000 F 
ENDROOT
BRANCH   3   9
ATOM      9  C   UNL     1       2.142   5.227  19.625  0.00  0.00    +0.000 C 
ATOM     10  O   UNL     1       2.456   4.833  20.981  0.00  0.00    +0.000 OA
ATOM     11  C   UNL     1       1.991   3.573  21.201  0.00  0.00    +0.000 C 
ATOM     12  O   UNL     1       2.150   2.958  22.238  0.00  0.00    +0.000 OA
ATOM     13  N   UNL     1       1.373   3.108  20.107  0.00  0.00    +0.000 N 
ATOM     14  C   UNL     1       1.497   3.977  19.080  0.00  0.00    +0.000 C 
ATOM     15  O   UNL     1       1.138   3.763  17.932  0.00  0.00    +0.000 OA
ATOM     16  H   UNL     1       1.002   2.177  20.032  0.00  0.00    +0.000 HD
ENDBRANCH   3   9
BRANCH   1  18
ATOM     17  C   UNL     1       7.910   5.447  19.494  0.00  0.00    +0.000 C 
ATOM     18  O   UNL     1       6.994   4.760  18.650  0.00  0.00    +0.000 OA
ENDBRANCH   1  18
TORSDOF 2
ENDMDL
MODEL 5
REMARK VINA RESULT:      -6.9      3.202      5.280
REMARK  Name = 
REMARK  4 active torsions:
REMARK  status: ('A' for Active; 'I' for Inactive)
REMARK    1  A    between atoms: C_1  and  O_2
REMARK    2  A    between atoms: O_2  and  C_3
REMARK    3  A    between atoms: C_5  and  C_6
REMARK    4  A    between atoms: C_13  and  C_14
REMARK                            x       y       z     vdW  Elec       q    Type
REMARK                         _______ _______ _______ _____ _____    ______ ____
ROOT
ATOM      1  C   UNL     1       5.034   4.850  17.187  0.00  0.00    +0.000 A 
ATOM      2  C   UNL     1       3.994   4.432  18.023  0.00  0.00    +0.000 A 
ATOM      3  C   UNL     1       3.032   5.334  18.534  0.00  0.00    +0.000 A 
ATOM      4  C   UNL     1       3.121   6.694  18.156  0.00  0.00    +0.000 A 
ATOM      5  C   UNL     1       2.145   7.762  18.574  0.00  0.00    +0.000 C 
ATOM      6  C   UNL     1       4.182   7.108  17.330  0.00  0.00    +0.000 A 
ATOM      7  C   UNL     1       5.128   6.199  16.866  0.00  0.00    +0.000 A 
ATOM      8  F   UNL     1       6.123   6.645  16.085  0.00  0.00    +0.000 F 
ENDROOT
BRANCH   3   9
ATOM      9  C   UNL     1       1.955   4.800  19.464  0.00  0.00    +0.000 C 
ATOM     10  O   UNL     1       2.477   4.542  20.788  0.00  0.00    +0.000 OA
ATOM     11  C   UNL     1       2.190   3.260  21.141  0.00  0.00    +0.000 C 
ATOM     12  O   UNL     1       2.545   2.742  22.183  0.00  0.00    +0.000 OA
ATOM     13  N   UNL     1       1.499   2.652  20.166  0.00  0.00    +0.000 N 
ATOM     14  C   UNL     1       1.396   3.452  19.082  0.00  0.00    +0.000 C 
ATOM     15  O   UNL     1       0.926   3.117  18.005  0.00  0.00    +0.000 OA
ATOM     16  H   UNL     1       1.232   1.684  20.195  0.00  0.00    +0.000 HD
ENDBRANCH   3   9
BRANCH   1  18
ATOM     17  C   UNL     1       5.877   3.683  15.314  0.00  0.00    +0.000 C 
ATOM     18  O   UNL     1       6.006   4.026  16.689  0.00  0.00    +0.000 OA
ENDBRANCH   1  18
TORSDOF 2
ENDMDL
MODEL 6
REMARK VINA RESULT:      -6.8      3.571      5.511
REMARK  Name = 
REMARK  4 active torsions:
REMARK  status: ('A' for Active; 'I' for Inactive)
REMARK    1  A    between atoms: C_1  and  O_2
REMARK    2  A    between atoms: O_2  and  C_3
REMARK    3  A    between atoms: C_5  and  C_6
REMARK    4  A    between atoms: C_13  and  C_14
REMARK                            x       y       z     vdW  Elec       q    Type
REMARK                         _______ _______ _______ _____ _____    ______ ____
ROOT
ATOM      1  C   UNL     1       5.930   6.385  16.832  0.00  0.00    +0.000 A 
ATOM      2  C   UNL     1       4.721   6.634  17.488  0.00  0.00    +0.000 A 
ATOM      3  C   UNL     1       3.736   5.632  17.654  0.00  0.00    +0.000 A 
ATOM      4  C   UNL     1       4.009   4.336  17.158  0.00  0.00    +0.000 A 
ATOM      5  C   UNL     1       3.085   3.155  17.303  0.00  0.00    +0.000 C 
ATOM      6  C   UNL     1       5.221   4.100  16.482  0.00  0.00    +0.000 A 
ATOM      7  C   UNL     1       6.157   5.115  16.313  0.00  0.00    +0.000 A 
ATOM      8  F   UNL     1       7.294   4.841  15.658  0.00  0.00    +0.000 F 
ENDROOT
BRANCH   3   9
ATOM      9  C   UNL     1       2.435   5.998  18.350  0.00  0.00    +0.000 C 
ATOM     10  O   UNL     1       2.090   7.385  18.134  0.00  0.00    +0.000 OA
ATOM     11  C   UNL     1       1.887   7.989  19.337  0.00  0.00    +0.000 C 
ATOM     12  O   UNL     1       1.629   9.170  19.474  0.00  0.00    +0.000 OA
ATOM     13  N   UNL     1       2.048   7.107  20.333  0.00  0.00    +0.000 N 
ATOM     14  C   UNL     1       2.476   5.917  19.856  0.00  0.00    +0.000 C 
ATOM     15  O   UNL     1       2.820   4.967  20.543  0.00  0.00    +0.000 OA
ATOM     16  H   UNL     1       1.998   7.352  21.307  0.00  0.00    +0.000 HD
ENDBRANCH   3   9
BRANCH   1  18
ATOM     17  C   UNL     1       7.737   7.608  17.737  0.00  0.00    +0.000 C 
ATOM     18  O   UNL     1       6.903   7.323  16.620  0.00  0.00    +0.000 OA
ENDBRANCH   1  18
TORSDOF 2
ENDMDL
MODEL 7
REMARK VINA RESULT:      -6.8      2.020      3.543
REMARK  Name = 
REMARK  4 active torsions:
REMARK  status: ('A' for Active; 'I' for Inactive)
REMARK    1  A    between atoms: C_1  and  O_2
REMARK    2  A    between atoms: O_2  and  C_3
REMARK    3  A    between atoms: C_5  and  C_6
REMARK    4  A    between atoms: C_13  and  C_14
REMARK                            x       y       z     vdW  Elec       q    Type
REMARK                         _______ _______ _______ _____ _____    ______ ____
ROOT
ATOM      1  C   UNL     1       2.630   6.401  19.052  0.00  0.00    +0.000 A 
ATOM      2  C   UNL     1       3.553   6.141  18.034  0.00  0.00    +0.000 A 
ATOM      3  C   UNL     1       3.774   4.836  17.537  0.00  0.00    +0.000 A 
ATOM      4  C   UNL     1       3.011   3.775  18.075  0.00  0.00    +0.000 A 
ATOM      5  C   UNL     1       3.094   2.343  17.616  0.00  0.00    +0.000 C 
ATOM      6  C   UNL     1       2.098   4.043  19.113  0.00  0.00    +0.000 A 
ATOM      7  C   UNL     1       1.923   5.336  19.598  0.00  0.00    +0.000 A 
ATOM      8  F   UNL     1       1.045   5.539  20.590  0.00  0.00    +0.000 F 
ENDROOT
BRANCH   3   9
ATOM      9  C   UNL     1       4.821   4.637  16.453  0.00  0.00    +0.000 C 
ATOM     10  O   UNL     1       5.959   3.893  16.944  0.00  0.00    +0.000 OA
ATOM     11  C   UNL     1       7.097   4.597  16.695  0.00  0.00    +0.000 C 
ATOM     12  O   UNL     1       8.209   4.243  17.038  0.00  0.00    +0.000 OA
ATOM     13  N   UNL     1       6.807   5.739  16.056  0.00  0.00    +0.000 N 
ATOM     14  C   UNL     1       5.470   5.905  15.955  0.00  0.00    +0.000 C 
ATOM     15  O   UNL     1       4.917   6.908  15.530  0.00  0.00    +0.000 OA
ATOM     16  H   UNL     1       7.492   6.436  15.824  0.00  0.00    +0.000 HD
ENDBRANCH   3   9
BRANCH   1  18
ATOM     17  C   UNL     1       1.879   8.612  18.690  0.00  0.00    +0.000 C 
ATOM     18  O   UNL     1       2.397   7.638  19.589  0.00  0.00    +0.000 OA
ENDBRANCH   1  18
TORSDOF 2
ENDMDL
MODEL 8
REMARK VINA RESULT:      -6.8      1.838      2.138
REMARK  Name = 
REMARK  4 active torsions:
REMARK  status: ('A' for Active; 'I' for Inactive)
REMARK    1  A    between atoms: C_1  and  O_2
REMARK    2  A    between atoms: O_2  and  C_3
REMARK    3  A    between atoms: C_5  and  C_6
REMARK    4  A    between atoms: C_13  and  C_14
REMARK                            x       y       z     vdW  Elec       q    Type
REMARK                         _______ _______ _______ _____ _____    ______ ____
ROOT
ATOM      1  C   UNL     1       3.111   3.471  19.535  0.00  0.00    +0.000 A 
ATOM      2  C   UNL     1       4.449   3.692  19.194  0.00  0.00    +0.000 A 
ATOM      3  C   UNL     1       4.848   4.786  18.391  0.00  0.00    +0.000 A 
ATOM      4  C   UNL     1       3.855   5.691  17.950  0.00  0.00    +0.000 A 
ATOM      5  C   UNL     1       4.129   6.927  17.134  0.00  0.00    +0.000 C 
ATOM      6  C   UNL     1       2.509   5.450  18.283  0.00  0.00    +0.000 A 
ATOM      7  C   UNL     1       2.147   4.349  19.052  0.00  0.00    +0.000 A 
ATOM      8  F   UNL     1       0.851   4.160  19.339  0.00  0.00    +0.000 F 
ENDROOT
BRANCH   3   9
ATOM      9  C   UNL     1       6.319   4.932  18.039  0.00  0.00    +0.000 C 
ATOM     10  O   UNL     1       6.813   6.254  18.359  0.00  0.00    +0.000 OA
ATOM     11  C   UNL     1       7.393   6.795  17.253  0.00  0.00    +0.000 C 
ATOM     12  O   UNL     1       7.856   7.919  17.205  0.00  0.00    +0.000 OA
ATOM     13  N   UNL     1       7.344   5.929  16.231  0.00  0.00    +0.000 N 
ATOM     14  C   UNL     1       6.635   4.830  16.568  0.00  0.00    +0.000 C 
ATOM     15  O   UNL     1       6.325   3.931  15.799  0.00  0.00    +0.000 OA
ATOM     16  H   UNL     1       7.667   6.145  15.304  0.00  0.00    +0.000 HD
ENDBRANCH   3   9
BRANCH   1  18
ATOM     17  C   UNL     1       2.325   2.718  21.632  0.00  0.00    +0.000 C 
ATOM     18  O   UNL     1       2.667   2.416  20.284  0.00  0.00    +0.000 OA
ENDBRANCH   1  18
TORSDOF 2
ENDMDL
MODEL 9
REMARK VINA RESULT:      -6.7      2.161      3.669
REMARK  Name = 
REMARK  4 active torsions:
REMARK  status: ('A' for Active; 'I' for Inactive)
REMARK    1  A    between atoms: C_1  and  O_2
REMARK    2  A    between atoms: O_2  and  C_3
REMARK    3  A    between atoms: C_5  and  C_6
REMARK    4  A    between atoms: C_13  and  C_14
REMARK                            x       y       z     vdW  Elec       q    Type
REMARK                         _______ _______ _______ _____ _____    ______ ____
ROOT
ATOM      1  C   UNL     1       2.414   5.438  20.025  0.00  0.00    +0.000 A 
ATOM      2  C   UNL     1       3.706   5.313  19.507  0.00  0.00    +0.000 A 
ATOM      3  C   UNL     1       4.158   4.122  18.894  0.00  0.00    +0.000 A 
ATOM      4  C   UNL     1       3.254   3.040  18.783  0.00  0.00    +0.000 A 
ATOM      5  C   UNL     1       3.569   1.729  18.112  0.00  0.00    +0.000 C 
ATOM      6  C   UNL     1       1.961   3.168  19.324  0.00  0.00    +0.000 A 
ATOM      7  C   UNL     1       1.557   4.346  19.946  0.00  0.00    +0.000 A 
ATOM      8  F   UNL     1       0.316   4.417  20.449  0.00  0.00    +0.000 F 
ENDROOT
BRANCH   3   9
ATOM      9  C   UNL     1       5.590   4.061  18.388  0.00  0.00    +0.000 C 
ATOM     10  O   UNL     1       6.476   4.861  19.205  0.00  0.00    +0.000 OA
ATOM     11  C   UNL     1       7.155   5.732  18.409  0.00  0.00    +0.000 C 
ATOM     12  O   UNL     1       7.939   6.566  18.821  0.00  0.00    +0.000 OA
ATOM     13  N   UNL     1       6.808   5.557  17.126  0.00  0.00    +0.000 N 
ATOM     14  C   UNL     1       5.807   4.655  17.019  0.00  0.00    +0.000 C 
ATOM     15  O   UNL     1       5.211   4.388  15.987  0.00  0.00    +0.000 OA
ATOM     16  H   UNL     1       7.148   6.131  16.375  0.00  0.00    +0.000 HD
ENDBRANCH   3   9
BRANCH   1  18
ATOM     17  C   UNL     1       1.963   7.752  19.883  0.00  0.00    +0.000 C 
ATOM     18  O   UNL     1       1.935   6.555  20.652  0.00  0.00    +0.000 OA
ENDBRANCH   1  18
TORSDOF 2
ENDMDL
