MODEL 1
REMARK VINA RESULT:      -7.5      0.000      0.000
REMARK  Name = 
REMARK  11 active torsions:
REMARK  status: ('A' for Active; 'I' for Inactive)
REMARK    1  A    between atoms: C_1  and  C_2
REMARK    2  A    between atoms: C_2  and  C_3
REMARK    3  A    between atoms: C_3  and  C_4
REMARK    4  A    between atoms: C_3  and  C_6
REMARK    5  A    between atoms: N_8  and  C_9
REMARK    6  A    between atoms: C_9  and  C_10
REMARK    7  A    between atoms: C_9  and  C_11
REMARK    8  A    between atoms: C_11  and  O_12
REMARK    9  A    between atoms: C_11  and  C_22
REMARK   10  A    between atoms: O_12  and  C_13
REMARK   11  A    between atoms: C_19  and  C_20
REMARK                            x       y       z     vdW  Elec       q    Type
REMARK                         _______ _______ _______ _____ _____    ______ ____
ROOT
ATOM      1  C   UNL     1       4.547   5.086  17.687  0.00  0.00    +0.000 C 
ENDROOT
BRANCH   1   2
ATOM      2  C   UNL     1       5.833   5.858  18.003  0.00  0.00    +0.000 A 
ATOM      3  C   UNL     1       6.152   6.999  17.242  0.00  0.00    +0.000 A 
ATOM      4  C   UNL     1       7.335   7.709  17.469  0.00  0.00    +0.000 A 
ATOM      5  C   UNL     1       8.219   7.292  18.458  0.00  0.00    +0.000 A 
ATOM      6  C   UNL     1       7.912   6.177  19.234  0.00  0.00    +0.000 A 
ATOM      7  C   UNL     1       6.722   5.477  19.019  0.00  0.00    +0.000 A 
ENDBRANCH   1   2
BRANCH   1   8
ATOM      8  C   UNL     1       4.768   3.668  17.047  0.00  0.00    +0.000 C 
ATOM      9  C   UNL     1       3.631   2.667  17.314  0.00  0.00    +0.000 C 
BRANCH   8  12
ATOM     10  C   UNL     1       6.370   3.862  15.126  0.00  0.00    +0.000 C 
ATOM     11  O   UNL     1       7.324   4.025  15.885  0.00  0.00    +0.000 OA
ATOM     12  N   UNL     1       5.082   3.690  15.608  0.00  0.00    +0.000 N 
ATOM     13  H   UNL     1       4.358   3.363  14.975  0.00  0.00    +0.000 HD
BRANCH  10  14
ATOM     14  C   UNL     1       6.503   3.928  13.603  0.00  0.00    +0.000 C 
BRANCH  14  16
ATOM     15  C   UNL     1       4.859   3.165  11.777  0.00  0.00    +0.000 C 
ATOM     16  C   UNL     1       5.128   4.114  12.940  0.00  0.00    +0.000 C 
ENDBRANCH  14  16
BRANCH  14  17
ATOM     17  C   UNL     1       7.430   5.012  13.245  0.00  0.00    +0.000 C 
ATOM     18  N   UNL     1       8.191   5.828  12.940  0.00  0.00    +0.000 NA
ENDBRANCH  14  17
ENDBRANCH  10  14
ENDBRANCH   8  12
ENDBRANCH   1   8
BRANCH   1  19
ATOM     19  O   UNL     1       3.815   4.939  18.930  0.00  0.00    +0.000 OA
BRANCH  19  20
ATOM     20  C   UNL     1       2.963   5.954  19.291  0.00  0.00    +0.000 A 
ATOM     21  C   UNL     1       2.804   7.121  18.529  0.00  0.00    +0.000 A 
ATOM     22  C   UNL     1       2.003   8.164  18.986  0.00  0.00    +0.000 A 
ATOM     23 BR   UNL     1       1.936   9.774  17.996  0.00  0.00    +0.000 Br
ATOM     24  C   UNL     1       1.283   8.038  20.166  0.00  0.00    +0.000 A 
ATOM     25  C   UNL     1       1.355   6.844  20.888  0.00  0.00    +0.000 A 
ATOM     26  C   UNL     1       2.193   5.796  20.458  0.00  0.00    +0.000 A 
BRANCH  26  27
ATOM     27  C   UNL     1       2.231   4.588  21.235  0.00  0.00    +0.000 C 
ATOM     28  N   UNL     1       2.225   3.583  21.820  0.00  0.00    +0.000 NA
ENDBRANCH  26  27
ENDBRANCH  19  20
ENDBRANCH   1  19
TORSDOF 9
ENDMDL
MODEL 2
REMARK VINA RESULT:      -7.1      1.003      1.675
REMARK  Name = 
REMARK  11 active torsions:
REMARK  status: ('A' for Active; 'I' for Inactive)
REMARK    1  A    between atoms: C_1  and  C_2
REMARK    2  A    between atoms: C_2  and  C_3
REMARK    3  A    between atoms: C_3  and  C_4
REMARK    4  A    between atoms: C_3  and  C_6
REMARK    5  A    between atoms: N_8  and  C_9
REMARK    6  A    between atoms: C_9  and  C_10
REMARK    7  A    between atoms: C_9  and  C_11
REMARK    8  A    between atoms: C_11  and  O_12
REMARK    9  A    between atoms: C_11  and  C_22
REMARK   10  A    between atoms: O_12  and  C_13
REMARK   11  A    between atoms: C_19  and  C_20
REMARK                            x       y       z     vdW  Elec       q    Type
REMARK                         _______ _______ _______ _____ _____    ______ ____
ROOT
ATOM      1  C   UNL     1       4.404   5.439  17.512  0.00  0.00    +0.000 C 
ENDROOT
BRANCH   1   2
ATOM      2  C   UNL     1       5.784   5.965  17.922  0.00  0.00    +0.000 A 
ATOM      3  C   UNL     1       6.460   5.354  18.996  0.00  0.00    +0.000 A 
ATOM      4  C   UNL     1       7.701   5.828  19.429  0.00  0.00    +0.000 A 
ATOM      5  C   UNL     1       8.290   6.920  18.800  0.00  0.00    +0.000 A 
ATOM      6  C   UNL     1       7.646   7.526  17.724  0.00  0.00    +0.000 A 
ATOM      7  C   UNL     1       6.413   7.042  17.279  0.00  0.00    +0.000 A 
ENDBRANCH   1   2
BRANCH   1   8
ATOM      8  C   UNL     1       4.427   4.131  16.642  0.00  0.00    +0.000 C 
ATOM      9  C   UNL     1       3.138   3.295  16.719  0.00  0.00    +0.000 C 
BRANCH   8  12
ATOM     10  C   UNL     1       6.097   4.202  14.771  0.00  0.00    +0.000 C 
ATOM     11  O   UNL     1       7.020   3.910  15.529  0.00  0.00    +0.000 OA
ATOM     12  N   UNL     1       4.797   4.343  15.232  0.00  0.00    +0.000 N 
ATOM     13  H   UNL     1       4.038   4.387  14.559  0.00  0.00    +0.000 HD
BRANCH  10  14
ATOM     14  C   UNL     1       6.313   4.526  13.291  0.00  0.00    +0.000 C 
BRANCH  14  16
ATOM     15  C   UNL     1       7.908   5.860  11.775  0.00  0.00    +0.000 C 
ATOM     16  C   UNL     1       7.746   5.029  13.043  0.00  0.00    +0.000 C 
ENDBRANCH  14  16
BRANCH  14  17
ATOM     17  C   UNL     1       6.010   3.334  12.486  0.00  0.00    +0.000 C 
ATOM     18  N   UNL     1       5.821   2.399  11.830  0.00  0.00    +0.000 NA
ENDBRANCH  14  17
ENDBRANCH  10  14
ENDBRANCH   8  12
ENDBRANCH   1   8
BRANCH   1  19
ATOM     19  O   UNL     1       3.657   5.190  18.729  0.00  0.00    +0.000 OA
BRANCH  19  20
ATOM     20  C   UNL     1       2.841   6.192  19.193  0.00  0.00    +0.000 A 
ATOM     21  C   UNL     1       2.653   7.400  18.505  0.00  0.00    +0.000 A 
ATOM     22  C   UNL     1       1.894   8.425  19.063  0.00  0.00    +0.000 A 
ATOM     23 BR   UNL     1       1.791  10.086  18.166  0.00  0.00    +0.000 Br
ATOM     24  C   UNL     1       1.244   8.243  20.276  0.00  0.00    +0.000 A 
ATOM     25  C   UNL     1       1.342   7.011  20.927  0.00  0.00    +0.000 A 
ATOM     26  C   UNL     1       2.139   5.979  20.394  0.00  0.00    +0.000 A 
BRANCH  26  27
ATOM     27  C   UNL     1       2.206   4.732  21.102  0.00  0.00    +0.000 C 
ATOM     28  N   UNL     1       2.206   3.705  21.648  0.00  0.00    +0.000 NA
ENDBRANCH  26  27
ENDBRANCH  19  20
ENDBRANCH   1  19
TORSDOF 9
ENDMDL
MODEL 3
REMARK VINA RESULT:      -6.9      2.073      4.045
REMARK  Name = 
REMARK  11 active torsions:
REMARK  status: ('A' for Active; 'I' for Inactive)
REMARK    1  A    between atoms: C_1  and  C_2
REMARK    2  A    between atoms: C_2  and  C_3
REMARK    3  A    between atoms: C_3  and  C_4
REMARK    4  A    between atoms: C_3  and  C_6
REMARK    5  A    between atoms: N_8  and  C_9
REMARK    6  A    between atoms: C_9  and  C_10
REMARK    7  A    between atoms: C_9  and  C_11
REMARK    8  A    between atoms: C_11  and  O_12
REMARK    9  A    between atoms: C_11  and  C_22
REMARK   10  A    between atoms: O_12  and  C_13
REMARK   11  A    between atoms: C_19  and  C_20
REMARK                            x       y       z     vdW  Elec       q    Type
REMARK                         _______ _______ _______ _____ _____    ______ ____
ROOT
ATOM      1  C   UNL     1       4.391   6.050  17.310  0.00  0.00    +0.000 C 
ENDROOT
BRANCH   1   2
ATOM      2  C   UNL     1       5.810   6.362  17.800  0.00  0.00    +0.000 A 
ATOM      3  C   UNL     1       6.387   5.550  18.796  0.00  0.00    +0.000 A 
ATOM      4  C   UNL     1       7.660   5.824  19.300  0.00  0.00    +0.000 A 
ATOM      5  C   UNL     1       8.382   6.912  18.821  0.00  0.00    +0.000 A 
ATOM      6  C   UNL     1       7.836   7.716  17.823  0.00  0.00    +0.000 A 
ATOM      7  C   UNL     1       6.570   7.433  17.306  0.00  0.00    +0.000 A 
ENDBRANCH   1   2
BRANCH   1   8
ATOM      8  C   UNL     1       4.291   4.853  16.298  0.00  0.00    +0.000 C 
ATOM      9  C   UNL     1       5.541   4.655  15.422  0.00  0.00    +0.000 C 
BRANCH   8  12
ATOM     10  C   UNL     1       2.584   3.230  17.163  0.00  0.00    +0.000 C 
ATOM     11  O   UNL     1       1.661   4.003  16.909  0.00  0.00    +0.000 OA
ATOM     12  N   UNL     1       3.904   3.569  16.907  0.00  0.00    +0.000 N 
ATOM     13  H   UNL     1       4.614   2.843  16.941  0.00  0.00    +0.000 HD
BRANCH  10  14
ATOM     14  C   UNL     1       2.370   1.886  17.862  0.00  0.00    +0.000 C 
BRANCH  14  16
ATOM     15  C   UNL     1       4.066   2.215  19.769  0.00  0.00    +0.000 C 
ATOM     16  C   UNL     1       3.666   1.407  18.539  0.00  0.00    +0.000 C 
ENDBRANCH  14  16
BRANCH  14  17
ATOM     17  C   UNL     1       1.269   2.014  18.828  0.00  0.00    +0.000 C 
ATOM     18  N   UNL     1       0.411   2.168  19.590  0.00  0.00    +0.000 NA
ENDBRANCH  14  17
ENDBRANCH  10  14
ENDBRANCH   8  12
ENDBRANCH   1   8
BRANCH   1  19
ATOM     19  O   UNL     1       3.586   5.756  18.478  0.00  0.00    +0.000 OA
BRANCH  19  20
ATOM     20  C   UNL     1       2.780   6.756  18.965  0.00  0.00    +0.000 A 
ATOM     21  C   UNL     1       2.583   7.970  18.290  0.00  0.00    +0.000 A 
ATOM     22  C   UNL     1       1.836   8.992  18.870  0.00  0.00    +0.000 A 
ATOM     23 BR   UNL     1       1.721  10.660  17.990  0.00  0.00    +0.000 Br
ATOM     24  C   UNL     1       1.205   8.801  20.093  0.00  0.00    +0.000 A 
ATOM     25  C   UNL     1       1.312   7.563  20.732  0.00  0.00    +0.000 A 
ATOM     26  C   UNL     1       2.098   6.534  20.176  0.00  0.00    +0.000 A 
BRANCH  26  27
ATOM     27  C   UNL     1       2.174   5.280  20.872  0.00  0.00    +0.000 C 
ATOM     28  N   UNL     1       2.209   4.292  21.485  0.00  0.00    +0.000 NA
ENDBRANCH  26  27
ENDBRANCH  19  20
ENDBRANCH   1  19
TORSDOF 9
ENDMDL
MODEL 4
REMARK VINA RESULT:      -6.6      3.288      7.788
REMARK  Name = 
REMARK  11 active torsions:
REMARK  status: ('A' for Active; 'I' for Inactive)
REMARK    1  A    between atoms: C_1  and  C_2
REMARK    2  A    between atoms: C_2  and  C_3
REMARK    3  A    between atoms: C_3  and  C_4
REMARK    4  A    between atoms: C_3  and  C_6
REMARK    5  A    between atoms: N_8  and  C_9
REMARK    6  A    between atoms: C_9  and  C_10
REMARK    7  A    between atoms: C_9  and  C_11
REMARK    8  A    between atoms: C_11  and  O_12
REMARK    9  A    between atoms: C_11  and  C_22
REMARK   10  A    between atoms: O_12  and  C_13
REMARK   11  A    between atoms: C_19  and  C_20
REMARK                            x       y       z     vdW  Elec       q    Type
REMARK                         _______ _______ _______ _____ _____    ______ ____
ROOT
ATOM      1  C   UNL     1       3.260   6.111  18.329  0.00  0.00    +0.000 C 
ENDROOT
BRANCH   1   2
ATOM      2  C   UNL     1       2.448   5.110  19.157  0.00  0.00    +0.000 A 
ATOM      3  C   UNL     1       2.683   5.014  20.542  0.00  0.00    +0.000 A 
ATOM      4  C   UNL     1       1.994   4.086  21.328  0.00  0.00    +0.000 A 
ATOM      5  C   UNL     1       1.059   3.237  20.746  0.00  0.00    +0.000 A 
ATOM      6  C   UNL     1       0.799   3.329  19.381  0.00  0.00    +0.000 A 
ATOM      7  C   UNL     1       1.475   4.268  18.598  0.00  0.00    +0.000 A 
ENDBRANCH   1   2
BRANCH   1   8
ATOM      8  C   UNL     1       2.878   7.618  18.553  0.00  0.00    +0.000 C 
ATOM      9  C   UNL     1       2.553   8.389  17.262  0.00  0.00    +0.000 C 
BRANCH   8  12
ATOM     10  C   UNL     1       1.215   9.073  19.742  0.00  0.00    +0.000 C 
ATOM     11  O   UNL     1       1.568  10.065  19.108  0.00  0.00    +0.000 OA
ATOM     12  N   UNL     1       1.809   7.836  19.543  0.00  0.00    +0.000 N 
ATOM     13  H   UNL     1       1.367   7.008  19.931  0.00  0.00    +0.000 HD
BRANCH  10  14
ATOM     14  C   UNL     1       0.170   9.132  20.858  0.00  0.00    +0.000 C 
BRANCH  14  16
ATOM     15  C   UNL     1      -0.011   9.497  23.399  0.00  0.00    +0.000 C 
ATOM     16  C   UNL     1       0.832   8.980  22.238  0.00  0.00    +0.000 C 
ENDBRANCH  14  16
BRANCH  14  17
ATOM     17  C   UNL     1      -0.579  10.393  20.752  0.00  0.00    +0.000 C 
ATOM     18  N   UNL     1      -1.212  11.357  20.652  0.00  0.00    +0.000 NA
ENDBRANCH  14  17
ENDBRANCH  10  14
ENDBRANCH   8  12
ENDBRANCH   1   8
BRANCH   1  19
ATOM     19  O   UNL     1       4.657   5.918  18.666  0.00  0.00    +0.000 OA
BRANCH  19  20
ATOM     20  C   UNL     1       5.482   5.403  17.696  0.00  0.00    +0.000 A 
ATOM     21  C   UNL     1       5.068   5.213  16.369  0.00  0.00    +0.000 A 
ATOM     22  C   UNL     1       5.908   4.595  15.445  0.00  0.00    +0.000 A 
ATOM     23 BR   UNL     1       5.254   4.229  13.710  0.00  0.00    +0.000 Br
ATOM     24  C   UNL     1       7.199   4.227  15.799  0.00  0.00    +0.000 A 
ATOM     25  C   UNL     1       7.659   4.498  17.090  0.00  0.00    +0.000 A 
ATOM     26  C   UNL     1       6.807   5.085  18.047  0.00  0.00    +0.000 A 
BRANCH  26  27
ATOM     27  C   UNL     1       7.328   5.342  19.359  0.00  0.00    +0.000 C 
ATOM     28  N   UNL     1       7.807   5.558  20.397  0.00  0.00    +0.000 NA
ENDBRANCH  26  27
ENDBRANCH  19  20
ENDBRANCH   1  19
TORSDOF 9
ENDMDL
MODEL 5
REMARK VINA RESULT:      -6.5      1.452      3.188
REMARK  Name = 
REMARK  11 active torsions:
REMARK  status: ('A' for Active; 'I' for Inactive)
REMARK    1  A    between atoms: C_1  and  C_2
REMARK    2  A    between atoms: C_2  and  C_3
REMARK    3  A    between atoms: C_3  and  C_4
REMARK    4  A    between atoms: C_3  and  C_6
REMARK    5  A    between atoms: N_8  and  C_9
REMARK    6  A    between atoms: C_9  and  C_10
REMARK    7  A    between atoms: C_9  and  C_11
REMARK    8  A    between atoms: C_11  and  O_12
REMARK    9  A    between atoms: C_11  and  C_22
REMARK   10  A    between atoms: O_12  and  C_13
REMARK   11  A    between atoms: C_19  and  C_20
REMARK                            x       y       z     vdW  Elec       q    Type
REMARK                         _______ _______ _______ _____ _____    ______ ____
ROOT
ATOM      1  C   UNL     1       4.287   5.425  18.687  0.00  0.00    +0.000 C 
ENDROOT
BRANCH   1   2
ATOM      2  C   UNL     1       4.024   3.915  18.642  0.00  0.00    +0.000 A 
ATOM      3  C   UNL     1       4.640   3.082  19.595  0.00  0.00    +0.000 A 
ATOM      4  C   UNL     1       4.460   1.697  19.565  0.00  0.00    +0.000 A 
ATOM      5  C   UNL     1       3.664   1.118  18.582  0.00  0.00    +0.000 A 
ATOM      6  C   UNL     1       3.031   1.926  17.641  0.00  0.00    +0.000 A 
ATOM      7  C   UNL     1       3.197   3.313  17.682  0.00  0.00    +0.000 A 
ENDBRANCH   1   2
BRANCH   1   8
ATOM      8  C   UNL     1       5.657   5.876  18.065  0.00  0.00    +0.000 C 
ATOM      9  C   UNL     1       6.804   6.006  19.083  0.00  0.00    +0.000 C 
BRANCH   8  12
ATOM     10  C   UNL     1       5.991   5.504  15.607  0.00  0.00    +0.000 C 
ATOM     11  O   UNL     1       5.491   6.593  15.333  0.00  0.00    +0.000 OA
ATOM     12  N   UNL     1       6.103   5.067  16.918  0.00  0.00    +0.000 N 
ATOM     13  H   UNL     1       6.692   4.265  17.122  0.00  0.00    +0.000 HD
BRANCH  10  14
ATOM     14  C   UNL     1       6.441   4.507  14.537  0.00  0.00    +0.000 C 
BRANCH  14  16
ATOM     15  C   UNL     1       5.630   3.327  12.399  0.00  0.00    +0.000 C 
ATOM     16  C   UNL     1       5.244   4.027  13.697  0.00  0.00    +0.000 C 
ENDBRANCH  14  16
BRANCH  14  17
ATOM     17  C   UNL     1       7.476   5.131  13.700  0.00  0.00    +0.000 C 
ATOM     18  N   UNL     1       8.304   5.655  13.083  0.00  0.00    +0.000 NA
ENDBRANCH  14  17
ENDBRANCH  10  14
ENDBRANCH   8  12
ENDBRANCH   1   8
BRANCH   1  19
ATOM     19  O   UNL     1       3.203   6.073  17.976  0.00  0.00    +0.000 OA
BRANCH  19  20
ATOM     20  C   UNL     1       2.592   7.143  18.584  0.00  0.00    +0.000 A 
ATOM     21  C   UNL     1       2.556   8.423  18.012  0.00  0.00    +0.000 A 
ATOM     22  C   UNL     1       2.012   9.498  18.710  0.00  0.00    +0.000 A 
ATOM     23 BR   UNL     1       2.118  11.230  17.961  0.00  0.00    +0.000 Br
ATOM     24  C   UNL     1       1.423   9.308  19.953  0.00  0.00    +0.000 A 
ATOM     25  C   UNL     1       1.365   8.021  20.494  0.00  0.00    +0.000 A 
ATOM     26  C   UNL     1       1.947   6.932  19.817  0.00  0.00    +0.000 A 
BRANCH  26  27
ATOM     27  C   UNL     1       1.860   5.629  20.415  0.00  0.00    +0.000 C 
ATOM     28  N   UNL     1       1.810   4.599  20.952  0.00  0.00    +0.000 NA
ENDBRANCH  26  27
ENDBRANCH  19  20
ENDBRANCH   1  19
TORSDOF 9
ENDMDL
MODEL 6
REMARK VINA RESULT:      -6.5      3.194      7.313
REMARK  Name = 
REMARK  11 active torsions:
REMARK  status: ('A' for Active; 'I' for Inactive)
REMARK    1  A    between atoms: C_1  and  C_2
REMARK    2  A    between atoms: C_2  and  C_3
REMARK    3  A    between atoms: C_3  and  C_4
REMARK    4  A    between atoms: C_3  and  C_6
REMARK    5  A    between atoms: N_8  and  C_9
REMARK    6  A    between atoms: C_9  and  C_10
REMARK    7  A    between atoms: C_9  and  C_11
REMARK    8  A    between atoms: C_11  and  O_12
REMARK    9  A    between atoms: C_11  and  C_22
REMARK   10  A    between atoms: O_12  and  C_13
REMARK   11  A    between atoms: C_19  and  C_20
REMARK                            x       y       z     vdW  Elec       q    Type
REMARK                         _______ _______ _______ _____ _____    ______ ____
ROOT
ATOM      1  C   UNL     1       3.466   4.996  17.837  0.00  0.00    +0.000 C 
ENDROOT
BRANCH   1   2
ATOM      2  C   UNL     1       2.584   4.272  18.861  0.00  0.00    +0.000 A 
ATOM      3  C   UNL     1       2.938   4.313  20.223  0.00  0.00    +0.000 A 
ATOM      4  C   UNL     1       2.186   3.633  21.184  0.00  0.00    +0.000 A 
ATOM      5  C   UNL     1       1.067   2.899  20.804  0.00  0.00    +0.000 A 
ATOM      6  C   UNL     1       0.690   2.862  19.464  0.00  0.00    +0.000 A 
ATOM      7  C   UNL     1       1.432   3.555  18.505  0.00  0.00    +0.000 A 
ENDBRANCH   1   2
BRANCH   1   8
ATOM      8  C   UNL     1       3.745   6.508  18.158  0.00  0.00    +0.000 C 
ATOM      9  C   UNL     1       4.110   7.360  16.930  0.00  0.00    +0.000 C 
BRANCH   8  12
ATOM     10  C   UNL     1       2.037   8.318  18.475  0.00  0.00    +0.000 C 
ATOM     11  O   UNL     1       2.341   8.848  17.408  0.00  0.00    +0.000 OA
ATOM     12  N   UNL     1       2.680   7.176  18.926  0.00  0.00    +0.000 N 
ATOM     13  H   UNL     1       2.278   6.657  19.700  0.00  0.00    +0.000 HD
BRANCH  10  14
ATOM     14  C   UNL     1       1.004   8.917  19.432  0.00  0.00    +0.000 C 
BRANCH  14  16
ATOM     15  C   UNL     1       0.397   9.135  21.923  0.00  0.00    +0.000 C 
ATOM     16  C   UNL     1       1.235   8.418  20.869  0.00  0.00    +0.000 C 
ENDBRANCH  14  16
BRANCH  14  17
ATOM     17  C   UNL     1       1.063  10.383  19.350  0.00  0.00    +0.000 C 
ATOM     18  N   UNL     1       1.162  11.534  19.270  0.00  0.00    +0.000 NA
ENDBRANCH  14  17
ENDBRANCH  10  14
ENDBRANCH   8  12
ENDBRANCH   1   8
BRANCH   1  19
ATOM     19  O   UNL     1       4.725   4.282  17.771  0.00  0.00    +0.000 OA
BRANCH  19  20
ATOM     20  C   UNL     1       5.476   4.418  16.628  0.00  0.00    +0.000 A 
ATOM     21  C   UNL     1       4.988   4.089  15.355  0.00  0.00    +0.000 A 
ATOM     22  C   UNL     1       5.818   4.150  14.238  0.00  0.00    +0.000 A 
ATOM     23 BR   UNL     1       5.160   3.557  12.569  0.00  0.00    +0.000 Br
ATOM     24  C   UNL     1       7.122   4.613  14.352  0.00  0.00    +0.000 A 
ATOM     25  C   UNL     1       7.593   5.036  15.598  0.00  0.00    +0.000 A 
ATOM     26  C   UNL     1       6.777   4.942  16.742  0.00  0.00    +0.000 A 
BRANCH  26  27
ATOM     27  C   UNL     1       7.307   5.390  17.999  0.00  0.00    +0.000 C 
ATOM     28  N   UNL     1       7.789   5.722  19.004  0.00  0.00    +0.000 NA
ENDBRANCH  26  27
ENDBRANCH  19  20
ENDBRANCH   1  19
TORSDOF 9
ENDMDL
MODEL 7
REMARK VINA RESULT:      -6.4      1.938      2.808
REMARK  Name = 
REMARK  11 active torsions:
REMARK  status: ('A' for Active; 'I' for Inactive)
REMARK    1  A    between atoms: C_1  and  C_2
REMARK    2  A    between atoms: C_2  and  C_3
REMARK    3  A    between atoms: C_3  and  C_4
REMARK    4  A    between atoms: C_3  and  C_6
REMARK    5  A    between atoms: N_8  and  C_9
REMARK    6  A    between atoms: C_9  and  C_10
REMARK    7  A    between atoms: C_9  and  C_11
REMARK    8  A    between atoms: C_11  and  O_12
REMARK    9  A    between atoms: C_11  and  C_22
REMARK   10  A    between atoms: O_12  and  C_13
REMARK   11  A    between atoms: C_19  and  C_20
REMARK                            x       y       z     vdW  Elec       q    Type
REMARK                         _______ _______ _______ _____ _____    ______ ____
ROOT
ATOM      1  C   UNL     1       5.563   5.745  16.025  0.00  0.00    +0.000 C 
ENDROOT
BRANCH   1   2
ATOM      2  C   UNL     1       6.518   6.193  17.137  0.00  0.00    +0.000 A 
ATOM      3  C   UNL     1       7.056   7.494  17.097  0.00  0.00    +0.000 A 
ATOM      4  C   UNL     1       7.963   7.929  18.068  0.00  0.00    +0.000 A 
ATOM      5  C   UNL     1       8.348   7.074  19.095  0.00  0.00    +0.000 A 
ATOM      6  C   UNL     1       7.812   5.791  19.163  0.00  0.00    +0.000 A 
ATOM      7  C   UNL     1       6.893   5.361  18.202  0.00  0.00    +0.000 A 
ENDBRANCH   1   2
BRANCH   1   8
ATOM      8  C   UNL     1       6.266   5.207  14.727  0.00  0.00    +0.000 C 
ATOM      9  C   UNL     1       7.658   4.595  14.967  0.00  0.00    +0.000 C 
BRANCH   8  12
ATOM     10  C   UNL     1       5.852   3.796  12.695  0.00  0.00    +0.000 C 
ATOM     11  O   UNL     1       6.919   4.140  12.189  0.00  0.00    +0.000 OA
ATOM     12  N   UNL     1       5.447   4.278  13.930  0.00  0.00    +0.000 N 
ATOM     13  H   UNL     1       4.669   3.829  14.404  0.00  0.00    +0.000 HD
BRANCH  10  14
ATOM     14  C   UNL     1       4.847   2.895  11.975  0.00  0.00    +0.000 C 
BRANCH  14  16
ATOM     15  C   UNL     1       2.966   2.884  10.219  0.00  0.00    +0.000 C 
ATOM     16  C   UNL     1       4.046   3.692  10.930  0.00  0.00    +0.000 C 
ENDBRANCH  14  16
BRANCH  14  17
ATOM     17  C   UNL     1       5.562   1.765  11.364  0.00  0.00    +0.000 C 
ATOM     18  N   UNL     1       6.098   0.842  10.916  0.00  0.00    +0.000 NA
ENDBRANCH  14  17
ENDBRANCH  10  14
ENDBRANCH   8  12
ENDBRANCH   1   8
BRANCH   1  19
ATOM     19  O   UNL     1       4.716   4.706  16.576  0.00  0.00    +0.000 OA
BRANCH  19  20
ATOM     20  C   UNL     1       3.748   5.082  17.475  0.00  0.00    +0.000 A 
ATOM     21  C   UNL     1       3.307   6.406  17.607  0.00  0.00    +0.000 A 
ATOM     22  C   UNL     1       2.395   6.756  18.600  0.00  0.00    +0.000 A 
ATOM     23 BR   UNL     1       1.943   8.576  18.834  0.00  0.00    +0.000 Br
ATOM     24  C   UNL     1       1.844   5.786  19.427  0.00  0.00    +0.000 A 
ATOM     25  C   UNL     1       2.200   4.447  19.243  0.00  0.00    +0.000 A 
ATOM     26  C   UNL     1       3.152   4.085  18.270  0.00  0.00    +0.000 A 
BRANCH  26  27
ATOM     27  C   UNL     1       3.483   2.696  18.121  0.00  0.00    +0.000 C 
ATOM     28  N   UNL     1       3.691   1.556  18.012  0.00  0.00    +0.000 NA
ENDBRANCH  26  27
ENDBRANCH  19  20
ENDBRANCH   1  19
TORSDOF 9
ENDMDL
MODEL 8
REMARK VINA RESULT:      -6.3      3.192      7.443
REMARK  Name = 
REMARK  11 active torsions:
REMARK  status: ('A' for Active; 'I' for Inactive)
REMARK    1  A    between atoms: C_1  and  C_2
REMARK    2  A    between atoms: C_2  and  C_3
REMARK    3  A    between atoms: C_3  and  C_4
REMARK    4  A    between atoms: C_3  and  C_6
REMARK    5  A    between atoms: N_8  and  C_9
REMARK    6  A    between atoms: C_9  and  C_10
REMARK    7  A    between atoms: C_9  and  C_11
REMARK    8  A    between atoms: C_11  and  O_12
REMARK    9  A    between atoms: C_11  and  C_22
REMARK   10  A    between atoms: O_12  and  C_13
REMARK   11  A    between atoms: C_19  and  C_20
REMARK                            x       y       z     vdW  Elec       q    Type
REMARK                         _______ _______ _______ _____ _____    ______ ____
ROOT
ATOM      1  C   UNL     1       3.425   5.113  17.994  0.00  0.00    +0.000 C 
ENDROOT
BRANCH   1   2
ATOM      2  C   UNL     1       2.627   4.345  19.055  0.00  0.00    +0.000 A 
ATOM      3  C   UNL     1       1.467   3.647  18.669  0.00  0.00    +0.000 A 
ATOM      4  C   UNL     1       0.687   2.969  19.610  0.00  0.00    +0.000 A 
ATOM      5  C   UNL     1       1.051   2.976  20.952  0.00  0.00    +0.000 A 
ATOM      6  C   UNL     1       2.205   3.645  21.351  0.00  0.00    +0.000 A 
ATOM      7  C   UNL     1       2.994   4.309  20.408  0.00  0.00    +0.000 A 
ENDBRANCH   1   2
BRANCH   1   8
ATOM      8  C   UNL     1       3.463   6.670  18.195  0.00  0.00    +0.000 C 
ATOM      9  C   UNL     1       3.551   7.476  16.887  0.00  0.00    +0.000 C 
BRANCH   8  12
ATOM     10  C   UNL     1       1.983   8.532  18.992  0.00  0.00    +0.000 C 
ATOM     11  O   UNL     1       2.539   9.345  18.254  0.00  0.00    +0.000 OA
ATOM     12  N   UNL     1       2.378   7.204  19.035  0.00  0.00    +0.000 N 
ATOM     13  H   UNL     1       1.779   6.527  19.497  0.00  0.00    +0.000 HD
BRANCH  10  14
ATOM     14  C   UNL     1       0.886   8.929  19.981  0.00  0.00    +0.000 C 
BRANCH  14  16
ATOM     15  C   UNL     1       0.421   9.219  22.495  0.00  0.00    +0.000 C 
ATOM     16  C   UNL     1       1.295   8.579  21.423  0.00  0.00    +0.000 C 
ENDBRANCH  14  16
BRANCH  14  17
ATOM     17  C   UNL     1       0.596  10.363  19.833  0.00  0.00    +0.000 C 
ATOM     18  N   UNL     1       0.316  11.479  19.704  0.00  0.00    +0.000 NA
ENDBRANCH  14  17
ENDBRANCH  10  14
ENDBRANCH   8  12
ENDBRANCH   1   8
BRANCH   1  19
ATOM     19  O   UNL     1       4.778   4.595  18.014  0.00  0.00    +0.000 OA
BRANCH  19  20
ATOM     20  C   UNL     1       5.499   4.648  16.846  0.00  0.00    +0.000 A 
ATOM     21  C   UNL     1       4.971   4.251  15.609  0.00  0.00    +0.000 A 
ATOM     22  C   UNL     1       5.771   4.230  14.469  0.00  0.00    +0.000 A 
ATOM     23 BR   UNL     1       5.056   3.549  12.857  0.00  0.00    +0.000 Br
ATOM     24  C   UNL     1       7.085   4.676  14.519  0.00  0.00    +0.000 A 
ATOM     25  C   UNL     1       7.596   5.166  15.723  0.00  0.00    +0.000 A 
ATOM     26  C   UNL     1       6.811   5.155  16.893  0.00  0.00    +0.000 A 
BRANCH  26  27
ATOM     27  C   UNL     1       7.383   5.670  18.105  0.00  0.00    +0.000 C 
ATOM     28  N   UNL     1       7.794   6.071  19.117  0.00  0.00    +0.000 NA
ENDBRANCH  26  27
ENDBRANCH  19  20
ENDBRANCH   1  19
TORSDOF 9
ENDMDL
MODEL 9
REMARK VINA RESULT:      -6.3      1.040      1.534
REMARK  Name = 
REMARK  11 active torsions:
REMARK  status: ('A' for Active; 'I' for Inactive)
REMARK    1  A    between atoms: C_1  and  C_2
REMARK    2  A    between atoms: C_2  and  C_3
REMARK    3  A    between atoms: C_3  and  C_4
REMARK    4  A    between atoms: C_3  and  C_6
REMARK    5  A    between atoms: N_8  and  C_9
REMARK    6  A    between atoms: C_9  and  C_10
REMARK    7  A    between atoms: C_9  and  C_11
REMARK    8  A    between atoms: C_11  and  O_12
REMARK    9  A    between atoms: C_11  and  C_22
REMARK   10  A    between atoms: O_12  and  C_13
REMARK   11  A    between atoms: C_19  and  C_20
REMARK                            x       y       z     vdW  Elec       q    Type
REMARK                         _______ _______ _______ _____ _____    ______ ____
ROOT
ATOM      1  C   UNL     1       4.338   5.525  17.479  0.00  0.00    +0.000 C 
ENDROOT
BRANCH   1   2
ATOM      2  C   UNL     1       5.717   6.049  17.895  0.00  0.00    +0.000 A 
ATOM      3  C   UNL     1       6.266   7.153  17.215  0.00  0.00    +0.000 A 
ATOM      4  C   UNL     1       7.537   7.637  17.534  0.00  0.00    +0.000 A 
ATOM      5  C   UNL     1       8.283   7.029  18.538  0.00  0.00    +0.000 A 
ATOM      6  C   UNL     1       7.750   5.948  19.236  0.00  0.00    +0.000 A 
ATOM      7  C   UNL     1       6.472   5.474  18.928  0.00  0.00    +0.000 A 
ENDBRANCH   1   2
BRANCH   1   8
ATOM      8  C   UNL     1       4.362   4.203  16.630  0.00  0.00    +0.000 C 
ATOM      9  C   UNL     1       3.114   3.319  16.796  0.00  0.00    +0.000 C 
BRANCH   8  12
ATOM     10  C   UNL     1       5.787   3.919  14.585  0.00  0.00    +0.000 C 
ATOM     11  O   UNL     1       6.647   3.309  15.218  0.00  0.00    +0.000 OA
ATOM     12  N   UNL     1       4.641   4.403  15.198  0.00  0.00    +0.000 N 
ATOM     13  H   UNL     1       3.870   4.721  14.619  0.00  0.00    +0.000 HD
BRANCH  10  14
ATOM     14  C   UNL     1       5.947   4.277  13.106  0.00  0.00    +0.000 C 
BRANCH  14  16
ATOM     15  C   UNL     1       7.930   5.634  14.025  0.00  0.00    +0.000 C 
ATOM     16  C   UNL     1       7.333   4.889  12.837  0.00  0.00    +0.000 C 
ENDBRANCH  14  16
BRANCH  14  17
ATOM     17  C   UNL     1       5.717   3.076  12.290  0.00  0.00    +0.000 C 
ATOM     18  N   UNL     1       5.530   2.162  11.604  0.00  0.00    +0.000 NA
ENDBRANCH  14  17
ENDBRANCH  10  14
ENDBRANCH   8  12
ENDBRANCH   1   8
BRANCH   1  19
ATOM     19  O   UNL     1       3.577   5.299  18.692  0.00  0.00    +0.000 OA
BRANCH  19  20
ATOM     20  C   UNL     1       2.780   6.322  19.144  0.00  0.00    +0.000 A 
ATOM     21  C   UNL     1       2.616   7.525  18.442  0.00  0.00    +0.000 A 
ATOM     22  C   UNL     1       1.876   8.571  18.989  0.00  0.00    +0.000 A 
ATOM     23 BR   UNL     1       1.806  10.224  18.074  0.00  0.00    +0.000 Br
ATOM     24  C   UNL     1       1.221   8.415  20.203  0.00  0.00    +0.000 A 
ATOM     25  C   UNL     1       1.295   7.188  20.868  0.00  0.00    +0.000 A 
ATOM     26  C   UNL     1       2.073   6.135  20.347  0.00  0.00    +0.000 A 
BRANCH  26  27
ATOM     27  C   UNL     1       2.115   4.895  21.068  0.00  0.00    +0.000 C 
ATOM     28  N   UNL     1       2.212   3.891  21.649  0.00  0.00    +0.000 NA
ENDBRANCH  26  27
ENDBRANCH  19  20
ENDBRANCH   1  19
TORSDOF 9
ENDMDL
