MODEL 1
REMARK VINA RESULT:      -6.4      0.000      0.000
REMARK  Name = 
REMARK  12 active torsions:
REMARK  status: ('A' for Active; 'I' for Inactive)
REMARK    1  A    between atoms: C_2  and  C_3
REMARK    2  A    between atoms: C_3  and  O_4
REMARK    3  A    between atoms: O_4  and  C_5
REMARK    4  A    between atoms: C_8  and  C_9
REMARK    5  A    between atoms: C_9  and  C_10
REMARK    6  A    between atoms: C_9  and  N_11
REMARK    7  A    between atoms: N_11  and  CA_12
REMARK    8  A    between atoms: CA_12  and  C_13
REMARK    9  A    between atoms: CA_12  and  CB_15
REMARK   10  A    between atoms: C_13  and  O_14
REMARK   11  A    between atoms: CB_15  and  CG1_16
REMARK   12  A    between atoms: CB_15  and  CG2_17
REMARK                            x       y       z     vdW  Elec       q    Type
REMARK                         _______ _______ _______ _____ _____    ______ ____
ROOT
ATOM      1  C   UNK A   0       2.584   5.451  19.966  0.00  0.00    +0.000 C 
ATOM      2  C   UNK A   0       1.841   6.720  20.400  0.00  0.00    +0.000 C 
ENDROOT
BRANCH   1   6
ATOM      3  C   UNK A   0       5.716   6.089  17.080  0.00  0.00    +0.000 A 
ATOM      4  C   UNK A   0       5.986   5.392  18.262  0.00  0.00    +0.000 A 
ATOM      5  C   UNK A   0       4.995   5.262  19.237  0.00  0.00    +0.000 A 
ATOM      6  C   UNK A   0       3.731   5.843  19.049  0.00  0.00    +0.000 A 
ATOM      7  C   UNK A   0       3.547   6.699  17.950  0.00  0.00    +0.000 A 
ATOM      8  C   UNK A   0       4.519   6.790  16.952  0.00  0.00    +0.000 A 
BRANCH   3   9
ATOM      9  O   UNK A   0       6.677   6.017  16.111  0.00  0.00    +0.000 OA
BRANCH   9  10
ATOM     10  C   UNK A   0       7.107   4.685  15.806  0.00  0.00    +0.000 C 
BRANCH  10  12
ATOM     11  C   UNK A   0       5.948   3.846  13.548  0.00  0.00    +0.000 C 
ATOM     12  C   UNK A   0       6.474   4.237  14.559  0.00  0.00    +0.000 C 
ENDBRANCH  10  12
ENDBRANCH   9  10
ENDBRANCH   3   9
ENDBRANCH   1   6
BRANCH   1  13
ATOM     13  N   VAL A   1       1.618   4.516  19.368  0.00  0.00    +0.000 NA
ATOM     14  H   VAL A   1       1.545   4.651  18.364  0.00  0.00    +0.000 HD
BRANCH  13  15
ATOM     15  CA  VAL A   1       1.659   3.080  19.739  0.00  0.00    +0.000 C 
BRANCH  15  16
ATOM     16  CB  VAL A   1       2.241   2.302  18.502  0.00  0.00    +0.000 C 
ATOM     17  CG1 VAL A   1       2.365   3.144  17.224  0.00  0.00    +0.000 C 
ATOM     18  CG2 VAL A   1       3.630   1.711  18.798  0.00  0.00    +0.000 C 
ENDBRANCH  15  16
BRANCH  15  19
ATOM     19  C   VAL A   1       2.460   2.753  21.033  0.00  0.00    +0.000 C 
BRANCH  19  20
ATOM     20  O   VAL A   1       1.633   2.472  22.158  0.00  0.00    +0.000 OA
ATOM     21  H   VAL A   1       1.088   3.262  22.315  0.00  0.00    +0.000 HD
ENDBRANCH  19  20
ENDBRANCH  15  19
ENDBRANCH  13  15
ENDBRANCH   1  13
TORSDOF 9
ENDMDL
MODEL 2
REMARK VINA RESULT:      -6.3      1.125      1.373
REMARK  Name = 
REMARK  12 active torsions:
REMARK  status: ('A' for Active; 'I' for Inactive)
REMARK    1  A    between atoms: C_2  and  C_3
REMARK    2  A    between atoms: C_3  and  O_4
REMARK    3  A    between atoms: O_4  and  C_5
REMARK    4  A    between atoms: C_8  and  C_9
REMARK    5  A    between atoms: C_9  and  C_10
REMARK    6  A    between atoms: C_9  and  N_11
REMARK    7  A    between atoms: N_11  and  CA_12
REMARK    8  A    between atoms: CA_12  and  C_13
REMARK    9  A    between atoms: CA_12  and  CB_15
REMARK   10  A    between atoms: C_13  and  O_14
REMARK   11  A    between atoms: CB_15  and  CG1_16
REMARK   12  A    between atoms: CB_15  and  CG2_17
REMARK                            x       y       z     vdW  Elec       q    Type
REMARK                         _______ _______ _______ _____ _____    ______ ____
ROOT
ATOM      1  C   UNK A   0       3.663   5.817  19.311  0.00  0.00    +0.000 C 
ATOM      2  C   UNK A   0       2.374   6.267  18.611  0.00  0.00    +0.000 C 
ENDROOT
BRANCH   1   6
ATOM      3  C   UNK A   0       6.582   5.065  16.236  0.00  0.00    +0.000 A 
ATOM      4  C   UNK A   0       6.819   4.635  17.545  0.00  0.00    +0.000 A 
ATOM      5  C   UNK A   0       5.915   4.956  18.560  0.00  0.00    +0.000 A 
ATOM      6  C   UNK A   0       4.775   5.726  18.279  0.00  0.00    +0.000 A 
ATOM      7  C   UNK A   0       4.661   6.309  17.006  0.00  0.00    +0.000 A 
ATOM      8  C   UNK A   0       5.536   5.949  15.980  0.00  0.00    +0.000 A 
BRANCH   3   9
ATOM      9  O   UNK A   0       7.419   4.560  15.280  0.00  0.00    +0.000 OA
BRANCH   9  10
ATOM     10  C   UNK A   0       7.193   5.080  13.964  0.00  0.00    +0.000 C 
BRANCH  10  12
ATOM     11  C   UNK A   0       5.922   3.238  12.504  0.00  0.00    +0.000 C 
ATOM     12  C   UNK A   0       6.489   4.079  13.154  0.00  0.00    +0.000 C 
ENDBRANCH  10  12
ENDBRANCH   9  10
ENDBRANCH   3   9
ENDBRANCH   1   6
BRANCH   1  13
ATOM     13  N   VAL A   1       3.398   4.564  20.033  0.00  0.00    +0.000 NA
ATOM     14  H   VAL A   1       3.579   4.663  21.028  0.00  0.00    +0.000 HD
BRANCH  13  15
ATOM     15  CA  VAL A   1       2.146   3.812  19.765  0.00  0.00    +0.000 C 
BRANCH  15  16
ATOM     16  CB  VAL A   1       2.536   2.571  18.880  0.00  0.00    +0.000 C 
ATOM     17  CG1 VAL A   1       2.557   2.849  17.371  0.00  0.00    +0.000 C 
ATOM     18  CG2 VAL A   1       3.916   2.007  19.261  0.00  0.00    +0.000 C 
ENDBRANCH  15  16
BRANCH  15  19
ATOM     19  C   VAL A   1       1.355   3.371  21.031  0.00  0.00    +0.000 C 
BRANCH  19  20
ATOM     20  O   VAL A   1       2.176   3.195  22.181  0.00  0.00    +0.000 OA
ATOM     21  H   VAL A   1       2.816   3.926  22.188  0.00  0.00    +0.000 HD
ENDBRANCH  19  20
ENDBRANCH  15  19
ENDBRANCH  13  15
ENDBRANCH   1  13
TORSDOF 9
ENDMDL
MODEL 3
REMARK VINA RESULT:      -6.3      1.191      1.589
REMARK  Name = 
REMARK  12 active torsions:
REMARK  status: ('A' for Active; 'I' for Inactive)
REMARK    1  A    between atoms: C_2  and  C_3
REMARK    2  A    between atoms: C_3  and  O_4
REMARK    3  A    between atoms: O_4  and  C_5
REMARK    4  A    between atoms: C_8  and  C_9
REMARK    5  A    between atoms: C_9  and  C_10
REMARK    6  A    between atoms: C_9  and  N_11
REMARK    7  A    between atoms: N_11  and  CA_12
REMARK    8  A    between atoms: CA_12  and  C_13
REMARK    9  A    between atoms: CA_12  and  CB_15
REMARK   10  A    between atoms: C_13  and  O_14
REMARK   11  A    between atoms: CB_15  and  CG1_16
REMARK   12  A    between atoms: CB_15  and  CG2_17
REMARK                            x       y       z     vdW  Elec       q    Type
REMARK                         _______ _______ _______ _____ _____    ______ ____
ROOT
ATOM      1  C   UNK A   0       3.935   5.505  19.472  0.00  0.00    +0.000 C 
ATOM      2  C   UNK A   0       2.782   6.517  19.458  0.00  0.00    +0.000 C 
ENDROOT
BRANCH   1   6
ATOM      3  C   UNK A   0       5.970   5.585  15.678  0.00  0.00    +0.000 A 
ATOM      4  C   UNK A   0       6.474   4.807  16.726  0.00  0.00    +0.000 A 
ATOM      5  C   UNK A   0       5.865   4.850  17.981  0.00  0.00    +0.000 A 
ATOM      6  C   UNK A   0       4.760   5.685  18.208  0.00  0.00    +0.000 A 
ATOM      7  C   UNK A   0       4.397   6.598  17.204  0.00  0.00    +0.000 A 
ATOM      8  C   UNK A   0       4.972   6.522  15.934  0.00  0.00    +0.000 A 
BRANCH   3   9
ATOM      9  O   UNK A   0       6.512   5.350  14.446  0.00  0.00    +0.000 OA
BRANCH   9  10
ATOM     10  C   UNK A   0       6.618   3.963  14.103  0.00  0.00    +0.000 C 
BRANCH  10  12
ATOM     11  C   UNK A   0       5.016   3.454  12.025  0.00  0.00    +0.000 C 
ATOM     12  C   UNK A   0       5.737   3.669  12.966  0.00  0.00    +0.000 C 
ENDBRANCH  10  12
ENDBRANCH   9  10
ENDBRANCH   3   9
ENDBRANCH   1   6
BRANCH   1  13
ATOM     13  N   VAL A   1       3.379   4.155  19.650  0.00  0.00    +0.000 NA
ATOM     14  H   VAL A   1       3.919   3.617  20.322  0.00  0.00    +0.000 HD
BRANCH  13  15
ATOM     15  CA  VAL A   1       1.917   3.981  19.838  0.00  0.00    +0.000 C 
BRANCH  15  16
ATOM     16  CB  VAL A   1       1.360   3.319  18.525  0.00  0.00    +0.000 C 
ATOM     17  CG1 VAL A   1       2.441   2.899  17.518  0.00  0.00    +0.000 C 
ATOM     18  CG2 VAL A   1       0.508   2.074  18.827  0.00  0.00    +0.000 C 
ENDBRANCH  15  16
BRANCH  15  19
ATOM     19  C   VAL A   1       1.505   3.163  21.097  0.00  0.00    +0.000 C 
BRANCH  19  20
ATOM     20  O   VAL A   1       2.547   3.036  22.058  0.00  0.00    +0.000 OA
ATOM     21  H   VAL A   1       2.900   3.928  22.215  0.00  0.00    +0.000 HD
ENDBRANCH  19  20
ENDBRANCH  15  19
ENDBRANCH  13  15
ENDBRANCH   1  13
TORSDOF 9
ENDMDL
MODEL 4
REMARK VINA RESULT:      -6.1      2.061      3.411
REMARK  Name = 
REMARK  12 active torsions:
REMARK  status: ('A' for Active; 'I' for Inactive)
REMARK    1  A    between atoms: C_2  and  C_3
REMARK    2  A    between atoms: C_3  and  O_4
REMARK    3  A    between atoms: O_4  and  C_5
REMARK    4  A    between atoms: C_8  and  C_9
REMARK    5  A    between atoms: C_9  and  C_10
REMARK    6  A    between atoms: C_9  and  N_11
REMARK    7  A    between atoms: N_11  and  CA_12
REMARK    8  A    between atoms: CA_12  and  C_13
REMARK    9  A    between atoms: CA_12  and  CB_15
REMARK   10  A    between atoms: C_13  and  O_14
REMARK   11  A    between atoms: CB_15  and  CG1_16
REMARK   12  A    between atoms: CB_15  and  CG2_17
REMARK                            x       y       z     vdW  Elec       q    Type
REMARK                         _______ _______ _______ _____ _____    ______ ____
ROOT
ATOM      1  C   UNK A   0       5.802   4.649  18.540  0.00  0.00    +0.000 C 
ATOM      2  C   UNK A   0       6.887   5.563  19.122  0.00  0.00    +0.000 C 
ENDROOT
BRANCH   1   6
ATOM      3  C   UNK A   0       6.264   4.263  14.276  0.00  0.00    +0.000 A 
ATOM      4  C   UNK A   0       7.282   4.842  15.040  0.00  0.00    +0.000 A 
ATOM      5  C   UNK A   0       7.097   5.048  16.408  0.00  0.00    +0.000 A 
ATOM      6  C   UNK A   0       5.885   4.695  17.023  0.00  0.00    +0.000 A 
ATOM      7  C   UNK A   0       4.813   4.301  16.205  0.00  0.00    +0.000 A 
ATOM      8  C   UNK A   0       5.012   4.048  14.847  0.00  0.00    +0.000 A 
BRANCH   3   9
ATOM      9  O   UNK A   0       6.594   3.937  12.990  0.00  0.00    +0.000 OA
BRANCH   9  10
ATOM     10  C   UNK A   0       5.531   3.332  12.244  0.00  0.00    +0.000 C 
BRANCH  10  12
ATOM     11  C   UNK A   0       6.429   1.101  11.079  0.00  0.00    +0.000 C 
ATOM     12  C   UNK A   0       6.020   2.112  11.591  0.00  0.00    +0.000 C 
ENDBRANCH  10  12
ENDBRANCH   9  10
ENDBRANCH   3   9
ENDBRANCH   1   6
BRANCH   1  13
ATOM     13  N   VAL A   1       4.498   5.049  19.091  0.00  0.00    +0.000 NA
ATOM     14  H   VAL A   1       3.980   5.627  18.436  0.00  0.00    +0.000 HD
BRANCH  13  15
ATOM     15  CA  VAL A   1       3.636   4.035  19.748  0.00  0.00    +0.000 C 
BRANCH  15  16
ATOM     16  CB  VAL A   1       2.154   4.350  19.325  0.00  0.00    +0.000 C 
ATOM     17  CG1 VAL A   1       1.688   3.626  18.054  0.00  0.00    +0.000 C 
ATOM     18  CG2 VAL A   1       1.154   4.003  20.442  0.00  0.00    +0.000 C 
ENDBRANCH  15  16
BRANCH  15  19
ATOM     19  C   VAL A   1       4.004   2.554  19.440  0.00  0.00    +0.000 C 
BRANCH  19  20
ATOM     20  O   VAL A   1       4.820   1.952  20.439  0.00  0.00    +0.000 OA
ATOM     21  H   VAL A   1       5.143   2.668  21.012  0.00  0.00    +0.000 HD
ENDBRANCH  19  20
ENDBRANCH  15  19
ENDBRANCH  13  15
ENDBRANCH   1  13
TORSDOF 9
ENDMDL
MODEL 5
REMARK VINA RESULT:      -6.0      1.520      2.110
REMARK  Name = 
REMARK  12 active torsions:
REMARK  status: ('A' for Active; 'I' for Inactive)
REMARK    1  A    between atoms: C_2  and  C_3
REMARK    2  A    between atoms: C_3  and  O_4
REMARK    3  A    between atoms: O_4  and  C_5
REMARK    4  A    between atoms: C_8  and  C_9
REMARK    5  A    between atoms: C_9  and  C_10
REMARK    6  A    between atoms: C_9  and  N_11
REMARK    7  A    between atoms: N_11  and  CA_12
REMARK    8  A    between atoms: CA_12  and  C_13
REMARK    9  A    between atoms: CA_12  and  CB_15
REMARK   10  A    between atoms: C_13  and  O_14
REMARK   11  A    between atoms: CB_15  and  CG1_16
REMARK   12  A    between atoms: CB_15  and  CG2_17
REMARK                            x       y       z     vdW  Elec       q    Type
REMARK                         _______ _______ _______ _____ _____    ______ ____
ROOT
ATOM      1  C   UNK A   0       2.109   5.357  20.287  0.00  0.00    +0.000 C 
ATOM      2  C   UNK A   0       1.252   6.520  20.802  0.00  0.00    +0.000 C 
ENDROOT
BRANCH   1   6
ATOM      3  C   UNK A   0       5.146   6.520  17.464  0.00  0.00    +0.000 A 
ATOM      4  C   UNK A   0       5.460   5.645  18.509  0.00  0.00    +0.000 A 
ATOM      5  C   UNK A   0       4.500   5.337  19.474  0.00  0.00    +0.000 A 
ATOM      6  C   UNK A   0       3.222   5.916  19.417  0.00  0.00    +0.000 A 
ATOM      7  C   UNK A   0       2.995   6.937  18.479  0.00  0.00    +0.000 A 
ATOM      8  C   UNK A   0       3.936   7.210  17.484  0.00  0.00    +0.000 A 
BRANCH   3   9
ATOM      9  O   UNK A   0       6.080   6.627  16.472  0.00  0.00    +0.000 OA
BRANCH   9  10
ATOM     10  C   UNK A   0       7.436   6.598  16.934  0.00  0.00    +0.000 C 
BRANCH  10  12
ATOM     11  C   UNK A   0       8.082   8.999  17.913  0.00  0.00    +0.000 C 
ATOM     12  C   UNK A   0       7.796   7.910  17.484  0.00  0.00    +0.000 C 
ENDBRANCH  10  12
ENDBRANCH   9  10
ENDBRANCH   3   9
ENDBRANCH   1   6
BRANCH   1  13
ATOM     13  N   VAL A   1       1.235   4.388  19.608  0.00  0.00    +0.000 NA
ATOM     14  H   VAL A   1       1.144   4.598  18.619  0.00  0.00    +0.000 HD
BRANCH  13  15
ATOM     15  CA  VAL A   1       1.416   2.935  19.856  0.00  0.00    +0.000 C 
BRANCH  15  16
ATOM     16  CB  VAL A   1       2.071   2.326  18.562  0.00  0.00    +0.000 C 
ATOM     17  CG1 VAL A   1       2.134   3.290  17.369  0.00  0.00    +0.000 C 
ATOM     18  CG2 VAL A   1       3.502   1.827  18.825  0.00  0.00    +0.000 C 
ENDBRANCH  15  16
BRANCH  15  19
ATOM     19  C   VAL A   1       2.245   2.579  21.125  0.00  0.00    +0.000 C 
BRANCH  19  20
ATOM     20  O   VAL A   1       1.447   2.379  22.287  0.00  0.00    +0.000 OA
ATOM     21  H   VAL A   1       0.886   3.167  22.386  0.00  0.00    +0.000 HD
ENDBRANCH  19  20
ENDBRANCH  15  19
ENDBRANCH  13  15
ENDBRANCH   1  13
TORSDOF 9
ENDMDL
MODEL 6
REMARK VINA RESULT:      -6.0      3.188      4.714
REMARK  Name = 
REMARK  12 active torsions:
REMARK  status: ('A' for Active; 'I' for Inactive)
REMARK    1  A    between atoms: C_2  and  C_3
REMARK    2  A    between atoms: C_3  and  O_4
REMARK    3  A    between atoms: O_4  and  C_5
REMARK    4  A    between atoms: C_8  and  C_9
REMARK    5  A    between atoms: C_9  and  C_10
REMARK    6  A    between atoms: C_9  and  N_11
REMARK    7  A    between atoms: N_11  and  CA_12
REMARK    8  A    between atoms: CA_12  and  C_13
REMARK    9  A    between atoms: CA_12  and  CB_15
REMARK   10  A    between atoms: C_13  and  O_14
REMARK   11  A    between atoms: CB_15  and  CG1_16
REMARK   12  A    between atoms: CB_15  and  CG2_17
REMARK                            x       y       z     vdW  Elec       q    Type
REMARK                         _______ _______ _______ _____ _____    ______ ____
ROOT
ATOM      1  C   UNK A   0       5.144   4.481  16.603  0.00  0.00    +0.000 C 
ATOM      2  C   UNK A   0       5.435   4.062  15.157  0.00  0.00    +0.000 C 
ENDROOT
BRANCH   1   6
ATOM      3  C   UNK A   0       7.992   7.208  18.335  0.00  0.00    +0.000 A 
ATOM      4  C   UNK A   0       7.327   7.549  17.152  0.00  0.00    +0.000 A 
ATOM      5  C   UNK A   0       6.470   6.629  16.544  0.00  0.00    +0.000 A 
ATOM      6  C   UNK A   0       6.286   5.354  17.099  0.00  0.00    +0.000 A 
ATOM      7  C   UNK A   0       7.110   4.966  18.169  0.00  0.00    +0.000 A 
ATOM      8  C   UNK A   0       7.928   5.900  18.808  0.00  0.00    +0.000 A 
BRANCH   3   9
ATOM      9  O   UNK A   0       8.667   8.223  18.954  0.00  0.00    +0.000 OA
BRANCH   9  10
ATOM     10  C   UNK A   0       8.529   9.498  18.316  0.00  0.00    +0.000 C 
BRANCH  10  12
ATOM     11  C   UNK A   0      10.134  11.263  19.522  0.00  0.00    +0.000 C 
ATOM     12  C   UNK A   0       9.416  10.471  18.965  0.00  0.00    +0.000 C 
ENDBRANCH  10  12
ENDBRANCH   9  10
ENDBRANCH   3   9
ENDBRANCH   1   6
BRANCH   1  13
ATOM     13  N   VAL A   1       4.906   3.274  17.409  0.00  0.00    +0.000 NA
ATOM     14  H   VAL A   1       5.779   2.833  17.684  0.00  0.00    +0.000 HD
BRANCH  13  15
ATOM     15  CA  VAL A   1       3.924   3.314  18.521  0.00  0.00    +0.000 C 
BRANCH  15  16
ATOM     16  CB  VAL A   1       2.505   3.521  17.874  0.00  0.00    +0.000 C 
ATOM     17  CG1 VAL A   1       1.415   2.590  18.425  0.00  0.00    +0.000 C 
ATOM     18  CG2 VAL A   1       2.004   4.965  18.043  0.00  0.00    +0.000 C 
ENDBRANCH  15  16
BRANCH  15  19
ATOM     19  C   VAL A   1       3.937   2.073  19.461  0.00  0.00    +0.000 C 
BRANCH  19  20
ATOM     20  O   VAL A   1       5.169   1.896  20.151  0.00  0.00    +0.000 OA
ATOM     21  H   VAL A   1       5.710   1.289  19.617  0.00  0.00    +0.000 HD
ENDBRANCH  19  20
ENDBRANCH  15  19
ENDBRANCH  13  15
ENDBRANCH   1  13
TORSDOF 9
ENDMDL
MODEL 7
REMARK VINA RESULT:      -5.9      1.636      2.332
REMARK  Name = 
REMARK  12 active torsions:
REMARK  status: ('A' for Active; 'I' for Inactive)
REMARK    1  A    between atoms: C_2  and  C_3
REMARK    2  A    between atoms: C_3  and  O_4
REMARK    3  A    between atoms: O_4  and  C_5
REMARK    4  A    between atoms: C_8  and  C_9
REMARK    5  A    between atoms: C_9  and  C_10
REMARK    6  A    between atoms: C_9  and  N_11
REMARK    7  A    between atoms: N_11  and  CA_12
REMARK    8  A    between atoms: CA_12  and  C_13
REMARK    9  A    between atoms: CA_12  and  CB_15
REMARK   10  A    between atoms: C_13  and  O_14
REMARK   11  A    between atoms: CB_15  and  CG1_16
REMARK   12  A    between atoms: CB_15  and  CG2_17
REMARK                            x       y       z     vdW  Elec       q    Type
REMARK                         _______ _______ _______ _____ _____    ______ ____
ROOT
ATOM      1  C   UNK A   0       3.906   5.647  18.741  0.00  0.00    +0.000 C 
ATOM      2  C   UNK A   0       3.106   6.946  18.584  0.00  0.00    +0.000 C 
ENDROOT
BRANCH   1   6
ATOM      3  C   UNK A   0       6.805   5.052  15.613  0.00  0.00    +0.000 A 
ATOM      4  C   UNK A   0       7.094   4.647  16.920  0.00  0.00    +0.000 A 
ATOM      5  C   UNK A   0       6.191   4.920  17.950  0.00  0.00    +0.000 A 
ATOM      6  C   UNK A   0       5.001   5.616  17.687  0.00  0.00    +0.000 A 
ATOM      7  C   UNK A   0       4.827   6.182  16.413  0.00  0.00    +0.000 A 
ATOM      8  C   UNK A   0       5.703   5.869  15.372  0.00  0.00    +0.000 A 
BRANCH   3   9
ATOM      9  O   UNK A   0       7.653   4.592  14.644  0.00  0.00    +0.000 OA
BRANCH   9  10
ATOM     10  C   UNK A   0       7.288   4.974  13.312  0.00  0.00    +0.000 C 
BRANCH  10  12
ATOM     11  C   UNK A   0       5.973   2.980  12.114  0.00  0.00    +0.000 C 
ATOM     12  C   UNK A   0       6.575   3.869  12.661  0.00  0.00    +0.000 C 
ENDBRANCH  10  12
ENDBRANCH   9  10
ENDBRANCH   3   9
ENDBRANCH   1   6
BRANCH   1  13
ATOM     13  N   VAL A   1       2.977   4.508  18.687  0.00  0.00    +0.000 NA
ATOM     14  H   VAL A   1       2.833   4.191  17.733  0.00  0.00    +0.000 HD
BRANCH  13  15
ATOM     15  CA  VAL A   1       3.147   3.377  19.633  0.00  0.00    +0.000 C 
BRANCH  15  16
ATOM     16  CB  VAL A   1       1.705   2.928  20.075  0.00  0.00    +0.000 C 
ATOM     17  CG1 VAL A   1       0.799   4.074  20.544  0.00  0.00    +0.000 C 
ATOM     18  CG2 VAL A   1       0.964   2.191  18.946  0.00  0.00    +0.000 C 
ENDBRANCH  15  16
BRANCH  15  19
ATOM     19  C   VAL A   1       3.966   2.172  19.085  0.00  0.00    +0.000 C 
BRANCH  19  20
ATOM     20  O   VAL A   1       5.086   1.831  19.895  0.00  0.00    +0.000 OA
ATOM     21  H   VAL A   1       5.166   0.862  19.875  0.00  0.00    +0.000 HD
ENDBRANCH  19  20
ENDBRANCH  15  19
ENDBRANCH  13  15
ENDBRANCH   1  13
TORSDOF 9
ENDMDL
MODEL 8
REMARK VINA RESULT:      -5.9      1.652      2.660
REMARK  Name = 
REMARK  12 active torsions:
REMARK  status: ('A' for Active; 'I' for Inactive)
REMARK    1  A    between atoms: C_2  and  C_3
REMARK    2  A    between atoms: C_3  and  O_4
REMARK    3  A    between atoms: O_4  and  C_5
REMARK    4  A    between atoms: C_8  and  C_9
REMARK    5  A    between atoms: C_9  and  C_10
REMARK    6  A    between atoms: C_9  and  N_11
REMARK    7  A    between atoms: N_11  and  CA_12
REMARK    8  A    between atoms: CA_12  and  C_13
REMARK    9  A    between atoms: CA_12  and  CB_15
REMARK   10  A    between atoms: C_13  and  O_14
REMARK   11  A    between atoms: CB_15  and  CG1_16
REMARK   12  A    between atoms: CB_15  and  CG2_17
REMARK                            x       y       z     vdW  Elec       q    Type
REMARK                         _______ _______ _______ _____ _____    ______ ____
ROOT
ATOM      1  C   UNK A   0       5.176   4.403  19.179  0.00  0.00    +0.000 C 
ATOM      2  C   UNK A   0       4.708   5.848  19.389  0.00  0.00    +0.000 C 
ENDROOT
BRANCH   1   6
ATOM      3  C   UNK A   0       6.249   4.448  15.009  0.00  0.00    +0.000 A 
ATOM      4  C   UNK A   0       5.052   3.850  15.417  0.00  0.00    +0.000 A 
ATOM      5  C   UNK A   0       4.746   3.757  16.776  0.00  0.00    +0.000 A 
ATOM      6  C   UNK A   0       5.642   4.243  17.741  0.00  0.00    +0.000 A 
ATOM      7  C   UNK A   0       6.917   4.657  17.320  0.00  0.00    +0.000 A 
ATOM      8  C   UNK A   0       7.204   4.797  15.961  0.00  0.00    +0.000 A 
BRANCH   3   9
ATOM      9  O   UNK A   0       6.385   4.656  13.665  0.00  0.00    +0.000 OA
BRANCH   9  10
ATOM     10  C   UNK A   0       6.442   3.455  12.885  0.00  0.00    +0.000 C 
BRANCH  10  12
ATOM     11  C   UNK A   0       4.227   3.276  11.401  0.00  0.00    +0.000 C 
ATOM     12  C   UNK A   0       5.232   3.344  12.063  0.00  0.00    +0.000 C 
ENDBRANCH  10  12
ENDBRANCH   9  10
ENDBRANCH   3   9
ENDBRANCH   1   6
BRANCH   1  13
ATOM     13  N   VAL A   1       4.092   3.491  19.573  0.00  0.00    +0.000 NA
ATOM     14  H   VAL A   1       4.421   2.779  20.218  0.00  0.00    +0.000 HD
BRANCH  13  15
ATOM     15  CA  VAL A   1       2.775   4.046  19.977  0.00  0.00    +0.000 C 
BRANCH  15  16
ATOM     16  CB  VAL A   1       1.693   3.385  19.045  0.00  0.00    +0.000 C 
ATOM     17  CG1 VAL A   1       1.329   4.216  17.807  0.00  0.00    +0.000 C 
ATOM     18  CG2 VAL A   1       2.133   1.996  18.552  0.00  0.00    +0.000 C 
ENDBRANCH  15  16
BRANCH  15  19
ATOM     19  C   VAL A   1       2.411   3.859  21.478  0.00  0.00    +0.000 C 
BRANCH  19  20
ATOM     20  O   VAL A   1       2.271   2.495  21.864  0.00  0.00    +0.000 OA
ATOM     21  H   VAL A   1       3.165   2.157  22.041  0.00  0.00    +0.000 HD
ENDBRANCH  19  20
ENDBRANCH  15  19
ENDBRANCH  13  15
ENDBRANCH   1  13
TORSDOF 9
ENDMDL
MODEL 9
REMARK VINA RESULT:      -5.9      1.405      1.964
REMARK  Name = 
REMARK  12 active torsions:
REMARK  status: ('A' for Active; 'I' for Inactive)
REMARK    1  A    between atoms: C_2  and  C_3
REMARK    2  A    between atoms: C_3  and  O_4
REMARK    3  A    between atoms: O_4  and  C_5
REMARK    4  A    between atoms: C_8  and  C_9
REMARK    5  A    between atoms: C_9  and  C_10
REMARK    6  A    between atoms: C_9  and  N_11
REMARK    7  A    between atoms: N_11  and  CA_12
REMARK    8  A    between atoms: CA_12  and  C_13
REMARK    9  A    between atoms: CA_12  and  CB_15
REMARK   10  A    between atoms: C_13  and  O_14
REMARK   11  A    between atoms: CB_15  and  CG1_16
REMARK   12  A    between atoms: CB_15  and  CG2_17
REMARK                            x       y       z     vdW  Elec       q    Type
REMARK                         _______ _______ _______ _____ _____    ______ ____
ROOT
ATOM      1  C   UNK A   0       3.311   5.673  19.518  0.00  0.00    +0.000 C 
ATOM      2  C   UNK A   0       2.412   6.907  19.671  0.00  0.00    +0.000 C 
ENDROOT
BRANCH   1   6
ATOM      3  C   UNK A   0       6.283   6.043  16.424  0.00  0.00    +0.000 A 
ATOM      4  C   UNK A   0       6.629   5.500  17.665  0.00  0.00    +0.000 A 
ATOM      5  C   UNK A   0       5.689   5.461  18.697  0.00  0.00    +0.000 A 
ATOM      6  C   UNK A   0       4.400   5.982  18.504  0.00  0.00    +0.000 A 
ATOM      7  C   UNK A   0       4.139   6.695  17.323  0.00  0.00    +0.000 A 
ATOM      8  C   UNK A   0       5.060   6.691  16.273  0.00  0.00    +0.000 A 
BRANCH   3   9
ATOM      9  O   UNK A   0       7.200   5.880  15.424  0.00  0.00    +0.000 OA
BRANCH   9  10
ATOM     10  C   UNK A   0       7.373   4.523  14.997  0.00  0.00    +0.000 C 
BRANCH  10  12
ATOM     11  C   UNK A   0       5.430   3.879  13.279  0.00  0.00    +0.000 C 
ATOM     12  C   UNK A   0       6.316   4.169  14.042  0.00  0.00    +0.000 C 
ENDBRANCH  10  12
ENDBRANCH   9  10
ENDBRANCH   3   9
ENDBRANCH   1   6
BRANCH   1  13
ATOM     13  N   VAL A   1       2.472   4.514  19.175  0.00  0.00    +0.000 NA
ATOM     14  H   VAL A   1       2.054   4.618  18.255  0.00  0.00    +0.000 HD
BRANCH  13  15
ATOM     15  CA  VAL A   1       2.986   3.141  19.405  0.00  0.00    +0.000 C 
BRANCH  15  16
ATOM     16  CB  VAL A   1       1.795   2.297  19.993  0.00  0.00    +0.000 C 
ATOM     17  CG1 VAL A   1       1.330   2.741  21.387  0.00  0.00    +0.000 C 
ATOM     18  CG2 VAL A   1       0.565   2.322  19.070  0.00  0.00    +0.000 C 
ENDBRANCH  15  16
BRANCH  15  19
ATOM     19  C   VAL A   1       3.601   2.447  18.155  0.00  0.00    +0.000 C 
BRANCH  19  20
ATOM     20  O   VAL A   1       4.016   1.106  18.396  0.00  0.00    +0.000 OA
ATOM     21  H   VAL A   1       4.985   1.118  18.479  0.00  0.00    +0.000 HD
ENDBRANCH  19  20
ENDBRANCH  15  19
ENDBRANCH  13  15
ENDBRANCH   1  13
TORSDOF 9
ENDMDL
