MODEL 1
REMARK VINA RESULT:      -7.4      0.000      0.000
REMARK  Name = 
REMARK  10 active torsions:
REMARK  status: ('A' for Active; 'I' for Inactive)
REMARK    1  A    between atoms: C_1  and  O_2
REMARK    2  A    between atoms: O_2  and  C_3
REMARK    3  A    between atoms: C_9  and  C_10
REMARK    4  A    between atoms: N_14  and  C_15
REMARK    5  A    between atoms: C_15  and  C_16
REMARK    6  A    between atoms: C_17  and  C_18
REMARK    7  A    between atoms: N_20  and  C_21
REMARK    8  A    between atoms: C_21  and  C_22
REMARK    9  A    between atoms: C_21  and  C_23
REMARK   10  A    between atoms: C_24  and  C_25
REMARK                            x       y       z     vdW  Elec       q    Type
REMARK                         _______ _______ _______ _____ _____    ______ ____
ROOT
ATOM      1  C   UNL     1       3.556   4.342  18.323  0.00  0.00    +0.000 A 
ATOM      2  N   UNL     1       2.974   3.351  17.661  0.00  0.00    +0.000 NA
ATOM      3  C   UNL     1       1.685   3.260  18.100  0.00  0.00    +0.000 A 
ATOM      4  C   UNL     1       1.427   4.242  19.014  0.00  0.00    +0.000 A 
ATOM      5  N   UNL     1       2.617   4.923  19.174  0.00  0.00    +0.000 N 
ENDROOT
BRANCH   1  12
ATOM      6  C   UNL     1       5.665   4.598  16.942  0.00  0.00    +0.000 A 
ATOM      7  C   UNL     1       7.034   4.901  16.841  0.00  0.00    +0.000 A 
ATOM      8  C   UNL     1       7.765   5.238  17.980  0.00  0.00    +0.000 A 
ATOM      9  C   UNL     1       7.122   5.310  19.199  0.00  0.00    +0.000 A 
ATOM     10  F   UNL     1       7.822   5.642  20.293  0.00  0.00    +0.000 F 
ATOM     11  C   UNL     1       5.759   5.057  19.315  0.00  0.00    +0.000 A 
ATOM     12  C   UNL     1       5.004   4.660  18.202  0.00  0.00    +0.000 A 
BRANCH   6  14
ATOM     13  C   UNL     1       5.520   4.258  14.568  0.00  0.00    +0.000 C 
ATOM     14  O   UNL     1       4.910   4.245  15.852  0.00  0.00    +0.000 OA
ENDBRANCH   6  14
ENDBRANCH   1  12
BRANCH   5  15
ATOM     15  C   UNL     1       2.717   6.102  20.018  0.00  0.00    +0.000 C 
BRANCH  15  16
ATOM     16  C   UNL     1       2.313   7.412  19.409  0.00  0.00    +0.000 A 
ATOM     17  C   UNL     1       2.636   8.008  18.158  0.00  0.00    +0.000 A 
ATOM     18  C   UNL     1       3.555   7.575  17.076  0.00  0.00    +0.000 C 
ATOM     19  N   UNL     1       1.953   9.141  17.965  0.00  0.00    +0.000 NA
ATOM     20  N   UNL     1       1.206   9.302  19.067  0.00  0.00    +0.000 N 
ATOM     21  C   UNL     1       1.425   8.315  19.999  0.00  0.00    +0.000 A 
ATOM     22  C   UNL     1       0.810   8.280  21.356  0.00  0.00    +0.000 C 
BRANCH  20  23
ATOM     23  C   UNL     1       0.296  10.447  19.126  0.00  0.00    +0.000 C 
ATOM     24  C   UNL     1       1.030  11.757  18.847  0.00  0.00    +0.000 C 
ATOM     25  C   UNL     1      -0.895  10.279  18.175  0.00  0.00    +0.000 C 
ENDBRANCH  20  23
ENDBRANCH  15  16
ENDBRANCH   5  15
TORSDOF 5
ENDMDL
MODEL 2
REMARK VINA RESULT:      -7.3      1.264      2.050
REMARK  Name = 
REMARK  10 active torsions:
REMARK  status: ('A' for Active; 'I' for Inactive)
REMARK    1  A    between atoms: C_1  and  O_2
REMARK    2  A    between atoms: O_2  and  C_3
REMARK    3  A    between atoms: C_9  and  C_10
REMARK    4  A    between atoms: N_14  and  C_15
REMARK    5  A    between atoms: C_15  and  C_16
REMARK    6  A    between atoms: C_17  and  C_18
REMARK    7  A    between atoms: N_20  and  C_21
REMARK    8  A    between atoms: C_21  and  C_22
REMARK    9  A    between atoms: C_21  and  C_23
REMARK   10  A    between atoms: C_24  and  C_25
REMARK                            x       y       z     vdW  Elec       q    Type
REMARK                         _______ _______ _______ _____ _____    ______ ____
ROOT
ATOM      1  C   UNL     1       3.812   4.104  17.784  0.00  0.00    +0.000 A 
ATOM      2  N   UNL     1       3.376   2.855  17.682  0.00  0.00    +0.000 NA
ATOM      3  C   UNL     1       2.013   2.887  17.718  0.00  0.00    +0.000 A 
ATOM      4  C   UNL     1       1.573   4.179  17.788  0.00  0.00    +0.000 A 
ATOM      5  N   UNL     1       2.711   4.957  17.848  0.00  0.00    +0.000 N 
ENDROOT
BRANCH   1  12
ATOM      6  C   UNL     1       6.142   4.298  16.805  0.00  0.00    +0.000 A 
ATOM      7  C   UNL     1       7.501   4.634  16.935  0.00  0.00    +0.000 A 
ATOM      8  C   UNL     1       7.997   5.097  18.153  0.00  0.00    +0.000 A 
ATOM      9  C   UNL     1       7.133   5.260  19.217  0.00  0.00    +0.000 A 
ATOM     10  F   UNL     1       7.608   5.714  20.386  0.00  0.00    +0.000 F 
ATOM     11  C   UNL     1       5.777   4.976  19.098  0.00  0.00    +0.000 A 
ATOM     12  C   UNL     1       5.252   4.455  17.907  0.00  0.00    +0.000 A 
BRANCH   6  14
ATOM     13  C   UNL     1       6.378   3.943  14.441  0.00  0.00    +0.000 C 
ATOM     14  O   UNL     1       5.612   3.822  15.631  0.00  0.00    +0.000 OA
ENDBRANCH   6  14
ENDBRANCH   1  12
BRANCH   5  15
ATOM     15  C   UNL     1       2.647   6.409  17.849  0.00  0.00    +0.000 C 
BRANCH  15  16
ATOM     16  C   UNL     1       2.032   7.063  19.050  0.00  0.00    +0.000 A 
ATOM     17  C   UNL     1       1.783   6.575  20.363  0.00  0.00    +0.000 A 
ATOM     18  C   UNL     1       1.963   5.228  20.957  0.00  0.00    +0.000 C 
ATOM     19  N   UNL     1       1.327   7.542  21.165  0.00  0.00    +0.000 NA
ATOM     20  N   UNL     1       1.261   8.642  20.400  0.00  0.00    +0.000 N 
ATOM     21  C   UNL     1       1.622   8.398  19.097  0.00  0.00    +0.000 A 
ATOM     22  C   UNL     1       1.557   9.402  17.997  0.00  0.00    +0.000 C 
BRANCH  20  23
ATOM     23  C   UNL     1       0.838   9.897  21.027  0.00  0.00    +0.000 C 
ATOM     24  C   UNL     1      -0.465  10.412  20.420  0.00  0.00    +0.000 C 
ATOM     25  C   UNL     1       0.713   9.761  22.549  0.00  0.00    +0.000 C 
ENDBRANCH  20  23
ENDBRANCH  15  16
ENDBRANCH   5  15
TORSDOF 5
ENDMDL
MODEL 3
REMARK VINA RESULT:      -7.2      1.776      2.431
REMARK  Name = 
REMARK  10 active torsions:
REMARK  status: ('A' for Active; 'I' for Inactive)
REMARK    1  A    between atoms: C_1  and  O_2
REMARK    2  A    between atoms: O_2  and  C_3
REMARK    3  A    between atoms: C_9  and  C_10
REMARK    4  A    between atoms: N_14  and  C_15
REMARK    5  A    between atoms: C_15  and  C_16
REMARK    6  A    between atoms: C_17  and  C_18
REMARK    7  A    between atoms: N_20  and  C_21
REMARK    8  A    between atoms: C_21  and  C_22
REMARK    9  A    between atoms: C_21  and  C_23
REMARK   10  A    between atoms: C_24  and  C_25
REMARK                            x       y       z     vdW  Elec       q    Type
REMARK                         _______ _______ _______ _____ _____    ______ ____
ROOT
ATOM      1  C   UNL     1       3.620   3.899  17.934  0.00  0.00    +0.000 A 
ATOM      2  N   UNL     1       2.835   2.839  17.792  0.00  0.00    +0.000 NA
ATOM      3  C   UNL     1       1.924   2.859  18.806  0.00  0.00    +0.000 A 
ATOM      4  C   UNL     1       2.095   3.977  19.573  0.00  0.00    +0.000 A 
ATOM      5  N   UNL     1       3.183   4.634  19.035  0.00  0.00    +0.000 N 
ENDROOT
BRANCH   1  12
ATOM      6  C   UNL     1       6.087   4.414  17.662  0.00  0.00    +0.000 A 
ATOM      7  C   UNL     1       7.207   4.644  16.845  0.00  0.00    +0.000 A 
ATOM      8  C   UNL     1       7.077   4.640  15.457  0.00  0.00    +0.000 A 
ATOM      9  C   UNL     1       5.847   4.369  14.894  0.00  0.00    +0.000 A 
ATOM     10  F   UNL     1       5.723   4.357  13.559  0.00  0.00    +0.000 F 
ATOM     11  C   UNL     1       4.735   4.095  15.682  0.00  0.00    +0.000 A 
ATOM     12  C   UNL     1       4.814   4.146  17.082  0.00  0.00    +0.000 A 
BRANCH   6  14
ATOM     13  C   UNL     1       7.100   5.293  19.655  0.00  0.00    +0.000 C 
ATOM     14  O   UNL     1       6.163   4.424  19.033  0.00  0.00    +0.000 OA
ENDBRANCH   6  14
ENDBRANCH   1  12
BRANCH   5  15
ATOM     15  C   UNL     1       3.625   5.924  19.538  0.00  0.00    +0.000 C 
BRANCH  15  16
ATOM     16  C   UNL     1       2.967   7.142  18.962  0.00  0.00    +0.000 A 
ATOM     17  C   UNL     1       3.107   7.777  17.696  0.00  0.00    +0.000 A 
ATOM     18  C   UNL     1       4.018   7.501  16.558  0.00  0.00    +0.000 C 
ATOM     19  N   UNL     1       2.231   8.776  17.552  0.00  0.00    +0.000 NA
ATOM     20  N   UNL     1       1.536   8.814  18.698  0.00  0.00    +0.000 N 
ATOM     21  C   UNL     1       1.977   7.884  19.610  0.00  0.00    +0.000 A 
ATOM     22  C   UNL     1       1.461   7.752  21.002  0.00  0.00    +0.000 C 
BRANCH  20  23
ATOM     23  C   UNL     1       0.450   9.788  18.818  0.00  0.00    +0.000 C 
ATOM     24  C   UNL     1       0.989  11.206  18.994  0.00  0.00    +0.000 C 
ATOM     25  C   UNL     1      -0.514   9.717  17.628  0.00  0.00    +0.000 C 
ENDBRANCH  20  23
ENDBRANCH  15  16
ENDBRANCH   5  15
TORSDOF 5
ENDMDL
MODEL 4
REMARK VINA RESULT:      -7.1      1.656      2.185
REMARK  Name = 
REMARK  10 active torsions:
REMARK  status: ('A' for Active; 'I' for Inactive)
REMARK    1  A    between atoms: C_1  and  O_2
REMARK    2  A    between atoms: O_2  and  C_3
REMARK    3  A    between atoms: C_9  and  C_10
REMARK    4  A    between atoms: N_14  and  C_15
REMARK    5  A    between atoms: C_15  and  C_16
REMARK    6  A    between atoms: C_17  and  C_18
REMARK    7  A    between atoms: N_20  and  C_21
REMARK    8  A    between atoms: C_21  and  C_22
REMARK    9  A    between atoms: C_21  and  C_23
REMARK   10  A    between atoms: C_24  and  C_25
REMARK                            x       y       z     vdW  Elec       q    Type
REMARK                         _______ _______ _______ _____ _____    ______ ____
ROOT
ATOM      1  C   UNL     1       3.081   4.155  17.967  0.00  0.00    +0.000 A 
ATOM      2  N   UNL     1       2.248   3.225  17.517  0.00  0.00    +0.000 NA
ATOM      3  C   UNL     1       1.123   3.267  18.288  0.00  0.00    +0.000 A 
ATOM      4  C   UNL     1       1.218   4.275  19.206  0.00  0.00    +0.000 A 
ATOM      5  N   UNL     1       2.467   4.832  19.020  0.00  0.00    +0.000 N 
ENDROOT
BRANCH   1  12
ATOM      6  C   UNL     1       5.593   4.136  18.302  0.00  0.00    +0.000 A 
ATOM      7  C   UNL     1       6.896   4.297  17.801  0.00  0.00    +0.000 A 
ATOM      8  C   UNL     1       7.098   4.670  16.473  0.00  0.00    +0.000 A 
ATOM      9  C   UNL     1       6.007   4.840  15.645  0.00  0.00    +0.000 A 
ATOM     10  F   UNL     1       6.200   5.191  14.366  0.00  0.00    +0.000 F 
ATOM     11  C   UNL     1       4.710   4.643  16.108  0.00  0.00    +0.000 A 
ATOM     12  C   UNL     1       4.465   4.323  17.452  0.00  0.00    +0.000 A 
BRANCH   6  14
ATOM     13  C   UNL     1       4.870   2.475  19.879  0.00  0.00    +0.000 C 
ATOM     14  O   UNL     1       5.345   3.786  19.606  0.00  0.00    +0.000 OA
ENDBRANCH   6  14
ENDBRANCH   1  12
BRANCH   5  15
ATOM     15  C   UNL     1       2.904   5.999  19.768  0.00  0.00    +0.000 C 
BRANCH  15  16
ATOM     16  C   UNL     1       2.441   7.337  19.275  0.00  0.00    +0.000 A 
ATOM     17  C   UNL     1       2.705   8.038  18.065  0.00  0.00    +0.000 A 
ATOM     18  C   UNL     1       3.601   7.721  16.927  0.00  0.00    +0.000 C 
ATOM     19  N   UNL     1       1.982   9.159  17.982  0.00  0.00    +0.000 NA
ATOM     20  N   UNL     1       1.266   9.210  19.116  0.00  0.00    +0.000 N 
ATOM     21  C   UNL     1       1.545   8.162  19.961  0.00  0.00    +0.000 A 
ATOM     22  C   UNL     1       0.976   8.002  21.329  0.00  0.00    +0.000 C 
BRANCH  20  23
ATOM     23  C   UNL     1       0.324  10.317  19.290  0.00  0.00    +0.000 C 
ATOM     24  C   UNL     1       1.037  11.667  19.261  0.00  0.00    +0.000 C 
ATOM     25  C   UNL     1      -0.804  10.276  18.252  0.00  0.00    +0.000 C 
ENDBRANCH  20  23
ENDBRANCH  15  16
ENDBRANCH   5  15
TORSDOF 5
ENDMDL
MODEL 5
REMARK VINA RESULT:      -7.1      4.504      7.520
REMARK  Name = 
REMARK  10 active torsions:
REMARK  status: ('A' for Active; 'I' for Inactive)
REMARK    1  A    between atoms: C_1  and  O_2
REMARK    2  A    between atoms: O_2  and  C_3
REMARK    3  A    between atoms: C_9  and  C_10
REMARK    4  A    between atoms: N_14  and  C_15
REMARK    5  A    between atoms: C_15  and  C_16
REMARK    6  A    between atoms: C_17  and  C_18
REMARK    7  A    between atoms: N_20  and  C_21
REMARK    8  A    between atoms: C_21  and  C_22
REMARK    9  A    between atoms: C_21  and  C_23
REMARK   10  A    between atoms: C_24  and  C_25
REMARK                            x       y       z     vdW  Elec       q    Type
REMARK                         _______ _______ _______ _____ _____    ______ ____
ROOT
ATOM      1  C   UNL     1       0.613  11.067  18.914  0.00  0.00    +0.000 A 
ATOM      2  N   UNL     1       1.361  12.161  18.869  0.00  0.00    +0.000 NA
ATOM      3  C   UNL     1       0.572  13.187  18.439  0.00  0.00    +0.000 A 
ATOM      4  C   UNL     1      -0.711  12.752  18.261  0.00  0.00    +0.000 A 
ATOM      5  N   UNL     1      -0.689  11.401  18.544  0.00  0.00    +0.000 N 
ENDROOT
BRANCH   1  12
ATOM      6  C   UNL     1       1.003   9.137  20.510  0.00  0.00    +0.000 A 
ATOM      7  C   UNL     1       1.527   7.862  20.784  0.00  0.00    +0.000 A 
ATOM      8  C   UNL     1       2.233   7.165  19.804  0.00  0.00    +0.000 A 
ATOM      9  C   UNL     1       2.377   7.724  18.550  0.00  0.00    +0.000 A 
ATOM     10  F   UNL     1       3.048   7.052  17.604  0.00  0.00    +0.000 F 
ATOM     11  C   UNL     1       1.829   8.965  18.243  0.00  0.00    +0.000 A 
ATOM     12  C   UNL     1       1.162   9.719  19.219  0.00  0.00    +0.000 A 
BRANCH   6  14
ATOM     13  C   UNL     1      -0.018   9.244  22.681  0.00  0.00    +0.000 C 
ATOM     14  O   UNL     1       0.316   9.866  21.448  0.00  0.00    +0.000 OA
ENDBRANCH   6  14
ENDBRANCH   1  12
BRANCH   5  15
ATOM     15  C   UNL     1      -1.901  10.598  18.543  0.00  0.00    +0.000 C 
BRANCH  15  16
ATOM     16  C   UNL     1      -3.140  11.235  17.988  0.00  0.00    +0.000 A 
ATOM     17  C   UNL     1      -3.716  11.197  16.688  0.00  0.00    +0.000 A 
ATOM     18  C   UNL     1      -3.236  10.590  15.422  0.00  0.00    +0.000 C 
ATOM     19  N   UNL     1      -4.902  11.812  16.661  0.00  0.00    +0.000 NA
ATOM     20  N   UNL     1      -5.103  12.261  17.909  0.00  0.00    +0.000 N 
ATOM     21  C   UNL     1      -4.043  11.990  18.742  0.00  0.00    +0.000 A 
ATOM     22  C   UNL     1      -3.938  12.447  20.156  0.00  0.00    +0.000 C 
BRANCH  20  23
ATOM     23  C   UNL     1      -6.365  12.941  18.206  0.00  0.00    +0.000 C 
ATOM     24  C   UNL     1      -6.949  13.602  16.959  0.00  0.00    +0.000 C 
ATOM     25  C   UNL     1      -7.386  11.996  18.849  0.00  0.00    +0.000 C 
ENDBRANCH  20  23
ENDBRANCH  15  16
ENDBRANCH   5  15
TORSDOF 5
ENDMDL
MODEL 6
REMARK VINA RESULT:      -7.0      3.063      5.658
REMARK  Name = 
REMARK  10 active torsions:
REMARK  status: ('A' for Active; 'I' for Inactive)
REMARK    1  A    between atoms: C_1  and  O_2
REMARK    2  A    between atoms: O_2  and  C_3
REMARK    3  A    between atoms: C_9  and  C_10
REMARK    4  A    between atoms: N_14  and  C_15
REMARK    5  A    between atoms: C_15  and  C_16
REMARK    6  A    between atoms: C_17  and  C_18
REMARK    7  A    between atoms: N_20  and  C_21
REMARK    8  A    between atoms: C_21  and  C_22
REMARK    9  A    between atoms: C_21  and  C_23
REMARK   10  A    between atoms: C_24  and  C_25
REMARK                            x       y       z     vdW  Elec       q    Type
REMARK                         _______ _______ _______ _____ _____    ______ ____
ROOT
ATOM      1  C   UNL     1       6.758   4.684  15.836  0.00  0.00    +0.000 A 
ATOM      2  N   UNL     1       7.898   4.400  16.452  0.00  0.00    +0.000 NA
ATOM      3  C   UNL     1       7.805   4.864  17.731  0.00  0.00    +0.000 A 
ATOM      4  C   UNL     1       6.568   5.402  17.949  0.00  0.00    +0.000 A 
ATOM      5  N   UNL     1       5.903   5.308  16.743  0.00  0.00    +0.000 N 
ENDROOT
BRANCH   1  12
ATOM      6  C   UNL     1       7.435   4.958  13.409  0.00  0.00    +0.000 A 
ATOM      7  C   UNL     1       7.213   4.720  12.041  0.00  0.00    +0.000 A 
ATOM      8  C   UNL     1       6.095   3.999  11.625  0.00  0.00    +0.000 A 
ATOM      9  C   UNL     1       5.230   3.488  12.572  0.00  0.00    +0.000 A 
ATOM     10  F   UNL     1       4.159   2.788  12.174  0.00  0.00    +0.000 F 
ATOM     11  C   UNL     1       5.453   3.674  13.932  0.00  0.00    +0.000 A 
ATOM     12  C   UNL     1       6.536   4.441  14.385  0.00  0.00    +0.000 A 
BRANCH   6  14
ATOM     13  C   UNL     1       9.428   6.205  12.914  0.00  0.00    +0.000 C 
ATOM     14  O   UNL     1       8.513   5.676  13.864  0.00  0.00    +0.000 OA
ENDBRANCH   6  14
ENDBRANCH   1  12
BRANCH   5  15
ATOM     15  C   UNL     1       4.513   5.709  16.602  0.00  0.00    +0.000 C 
BRANCH  15  16
ATOM     16  C   UNL     1       3.570   5.289  17.690  0.00  0.00    +0.000 A 
ATOM     17  C   UNL     1       2.674   6.041  18.500  0.00  0.00    +0.000 A 
ATOM     18  C   UNL     1       2.440   7.503  18.604  0.00  0.00    +0.000 C 
ATOM     19  N   UNL     1       1.923   5.245  19.267  0.00  0.00    +0.000 NA
ATOM     20  N   UNL     1       2.321   3.995  18.985  0.00  0.00    +0.000 N 
ATOM     21  C   UNL     1       3.354   3.965  18.078  0.00  0.00    +0.000 A 
ATOM     22  C   UNL     1       4.064   2.728  17.644  0.00  0.00    +0.000 C 
BRANCH  20  23
ATOM     23  C   UNL     1       1.631   2.884  19.643  0.00  0.00    +0.000 C 
ATOM     24  C   UNL     1       1.168   3.267  21.047  0.00  0.00    +0.000 C 
ATOM     25  C   UNL     1       0.456   2.365  18.806  0.00  0.00    +0.000 C 
ENDBRANCH  20  23
ENDBRANCH  15  16
ENDBRANCH   5  15
TORSDOF 5
ENDMDL
MODEL 7
REMARK VINA RESULT:      -6.9      2.010      3.068
REMARK  Name = 
REMARK  10 active torsions:
REMARK  status: ('A' for Active; 'I' for Inactive)
REMARK    1  A    between atoms: C_1  and  O_2
REMARK    2  A    between atoms: O_2  and  C_3
REMARK    3  A    between atoms: C_9  and  C_10
REMARK    4  A    between atoms: N_14  and  C_15
REMARK    5  A    between atoms: C_15  and  C_16
REMARK    6  A    between atoms: C_17  and  C_18
REMARK    7  A    between atoms: N_20  and  C_21
REMARK    8  A    between atoms: C_21  and  C_22
REMARK    9  A    between atoms: C_21  and  C_23
REMARK   10  A    between atoms: C_24  and  C_25
REMARK                            x       y       z     vdW  Elec       q    Type
REMARK                         _______ _______ _______ _____ _____    ______ ____
ROOT
ATOM      1  C   UNL     1       3.616   4.249  17.050  0.00  0.00    +0.000 A 
ATOM      2  N   UNL     1       2.943   3.107  17.011  0.00  0.00    +0.000 NA
ATOM      3  C   UNL     1       1.800   3.274  17.736  0.00  0.00    +0.000 A 
ATOM      4  C   UNL     1       1.717   4.558  18.196  0.00  0.00    +0.000 A 
ATOM      5  N   UNL     1       2.877   5.179  17.779  0.00  0.00    +0.000 N 
ENDROOT
BRANCH   1  12
ATOM      6  C   UNL     1       6.114   4.589  17.315  0.00  0.00    +0.000 A 
ATOM      7  C   UNL     1       7.395   4.738  16.757  0.00  0.00    +0.000 A 
ATOM      8  C   UNL     1       7.564   4.741  15.372  0.00  0.00    +0.000 A 
ATOM      9  C   UNL     1       6.465   4.555  14.557  0.00  0.00    +0.000 A 
ATOM     10  F   UNL     1       6.626   4.549  13.227  0.00  0.00    +0.000 F 
ATOM     11  C   UNL     1       5.194   4.361  15.089  0.00  0.00    +0.000 A 
ATOM     12  C   UNL     1       4.978   4.409  16.474  0.00  0.00    +0.000 A 
BRANCH   6  14
ATOM     13  C   UNL     1       6.714   5.427  19.484  0.00  0.00    +0.000 C 
ATOM     14  O   UNL     1       5.898   4.596  18.670  0.00  0.00    +0.000 OA
ENDBRANCH   6  14
ENDBRANCH   1  12
BRANCH   5  15
ATOM     15  C   UNL     1       3.115   6.593  18.013  0.00  0.00    +0.000 C 
BRANCH  15  16
ATOM     16  C   UNL     1       2.291   7.256  19.077  0.00  0.00    +0.000 A 
ATOM     17  C   UNL     1       1.909   6.824  20.377  0.00  0.00    +0.000 A 
ATOM     18  C   UNL     1       2.119   5.536  21.082  0.00  0.00    +0.000 C 
ATOM     19  N   UNL     1       1.269   7.790  21.044  0.00  0.00    +0.000 NA
ATOM     20  N   UNL     1       1.214   8.833  20.203  0.00  0.00    +0.000 N 
ATOM     21  C   UNL     1       1.767   8.548  18.977  0.00  0.00    +0.000 A 
ATOM     22  C   UNL     1       1.767   9.477  17.811  0.00  0.00    +0.000 C 
BRANCH  20  23
ATOM     23  C   UNL     1       0.608  10.077  20.680  0.00  0.00    +0.000 C 
ATOM     24  C   UNL     1      -0.700  10.376  19.950  0.00  0.00    +0.000 C 
ATOM     25  C   UNL     1       0.391  10.061  22.198  0.00  0.00    +0.000 C 
ENDBRANCH  20  23
ENDBRANCH  15  16
ENDBRANCH   5  15
TORSDOF 5
ENDMDL
MODEL 8
REMARK VINA RESULT:      -6.9      7.542     10.260
REMARK  Name = 
REMARK  10 active torsions:
REMARK  status: ('A' for Active; 'I' for Inactive)
REMARK    1  A    between atoms: C_1  and  O_2
REMARK    2  A    between atoms: O_2  and  C_3
REMARK    3  A    between atoms: C_9  and  C_10
REMARK    4  A    between atoms: N_14  and  C_15
REMARK    5  A    between atoms: C_15  and  C_16
REMARK    6  A    between atoms: C_17  and  C_18
REMARK    7  A    between atoms: N_20  and  C_21
REMARK    8  A    between atoms: C_21  and  C_22
REMARK    9  A    between atoms: C_21  and  C_23
REMARK   10  A    between atoms: C_24  and  C_25
REMARK                            x       y       z     vdW  Elec       q    Type
REMARK                         _______ _______ _______ _____ _____    ______ ____
ROOT
ATOM      1  C   UNL     1      -0.998  11.688  22.214  0.00  0.00    +0.000 A 
ATOM      2  N   UNL     1      -0.161  10.784  22.707  0.00  0.00    +0.000 NA
ATOM      3  C   UNL     1       0.366  10.090  21.658  0.00  0.00    +0.000 A 
ATOM      4  C   UNL     1      -0.099  10.596  20.477  0.00  0.00    +0.000 A 
ATOM      5  N   UNL     1      -0.980  11.601  20.823  0.00  0.00    +0.000 N 
ENDROOT
BRANCH   1  12
ATOM      6  C   UNL     1      -1.436  13.856  23.450  0.00  0.00    +0.000 A 
ATOM      7  C   UNL     1      -2.259  14.661  24.257  0.00  0.00    +0.000 A 
ATOM      8  C   UNL     1      -3.484  14.178  24.715  0.00  0.00    +0.000 A 
ATOM      9  C   UNL     1      -3.898  12.917  24.335  0.00  0.00    +0.000 A 
ATOM     10  F   UNL     1      -5.079  12.455  24.767  0.00  0.00    +0.000 F 
ATOM     11  C   UNL     1      -3.120  12.121  23.501  0.00  0.00    +0.000 A 
ATOM     12  C   UNL     1      -1.857  12.551  23.068  0.00  0.00    +0.000 A 
BRANCH   6  14
ATOM     13  C   UNL     1      -0.179  15.325  22.024  0.00  0.00    +0.000 C 
ATOM     14  O   UNL     1      -0.215  14.283  22.990  0.00  0.00    +0.000 OA
ENDBRANCH   6  14
ENDBRANCH   1  12
BRANCH   5  15
ATOM     15  C   UNL     1      -1.621  12.435  19.821  0.00  0.00    +0.000 C 
BRANCH  15  16
ATOM     16  C   UNL     1      -2.791  11.846  19.090  0.00  0.00    +0.000 A 
ATOM     17  C   UNL     1      -2.862  10.861  18.066  0.00  0.00    +0.000 A 
ATOM     18  C   UNL     1      -1.797  10.154  17.313  0.00  0.00    +0.000 C 
ATOM     19  N   UNL     1      -4.128  10.540  17.784  0.00  0.00    +0.000 NA
ATOM     20  N   UNL     1      -4.881  11.303  18.591  0.00  0.00    +0.000 N 
ATOM     21  C   UNL     1      -4.126  12.154  19.363  0.00  0.00    +0.000 A 
ATOM     22  C   UNL     1      -4.686  13.184  20.284  0.00  0.00    +0.000 C 
BRANCH  20  23
ATOM     23  C   UNL     1      -6.334  11.133  18.547  0.00  0.00    +0.000 C 
ATOM     24  C   UNL     1      -6.908  10.873  19.939  0.00  0.00    +0.000 C 
ATOM     25  C   UNL     1      -7.030  12.329  17.887  0.00  0.00    +0.000 C 
ENDBRANCH  20  23
ENDBRANCH  15  16
ENDBRANCH   5  15
TORSDOF 5
ENDMDL
MODEL 9
REMARK VINA RESULT:      -6.8      1.855      2.358
REMARK  Name = 
REMARK  10 active torsions:
REMARK  status: ('A' for Active; 'I' for Inactive)
REMARK    1  A    between atoms: C_1  and  O_2
REMARK    2  A    between atoms: O_2  and  C_3
REMARK    3  A    between atoms: C_9  and  C_10
REMARK    4  A    between atoms: N_14  and  C_15
REMARK    5  A    between atoms: C_15  and  C_16
REMARK    6  A    between atoms: C_17  and  C_18
REMARK    7  A    between atoms: N_20  and  C_21
REMARK    8  A    between atoms: C_21  and  C_22
REMARK    9  A    between atoms: C_21  and  C_23
REMARK   10  A    between atoms: C_24  and  C_25
REMARK                            x       y       z     vdW  Elec       q    Type
REMARK                         _______ _______ _______ _____ _____    ______ ____
ROOT
ATOM      1  C   UNL     1       2.646   4.502  18.931  0.00  0.00    +0.000 A 
ATOM      2  N   UNL     1       1.821   3.480  18.741  0.00  0.00    +0.000 NA
ATOM      3  C   UNL     1       0.811   3.588  19.651  0.00  0.00    +0.000 A 
ATOM      4  C   UNL     1       0.964   4.725  20.394  0.00  0.00    +0.000 A 
ATOM      5  N   UNL     1       2.139   5.302  19.954  0.00  0.00    +0.000 N 
ENDROOT
BRANCH   1  12
ATOM      6  C   UNL     1       5.150   4.150  18.755  0.00  0.00    +0.000 A 
ATOM      7  C   UNL     1       6.361   4.297  18.056  0.00  0.00    +0.000 A 
ATOM      8  C   UNL     1       6.390   4.960  16.830  0.00  0.00    +0.000 A 
ATOM      9  C   UNL     1       5.211   5.435  16.291  0.00  0.00    +0.000 A 
ATOM     10  F   UNL     1       5.236   6.066  15.108  0.00  0.00    +0.000 F 
ATOM     11  C   UNL     1       3.995   5.262  16.943  0.00  0.00    +0.000 A 
ATOM     12  C   UNL     1       3.935   4.651  18.204  0.00  0.00    +0.000 A 
BRANCH   6  14
ATOM     13  C   UNL     1       4.722   2.143  20.003  0.00  0.00    +0.000 C 
ATOM     14  O   UNL     1       5.075   3.519  19.972  0.00  0.00    +0.000 OA
ENDBRANCH   6  14
ENDBRANCH   1  12
BRANCH   5  15
ATOM     15  C   UNL     1       2.597   6.585  20.458  0.00  0.00    +0.000 C 
BRANCH  15  16
ATOM     16  C   UNL     1       1.926   7.811  19.913  0.00  0.00    +0.000 A 
ATOM     17  C   UNL     1       2.029   8.457  18.650  0.00  0.00    +0.000 A 
ATOM     18  C   UNL     1       2.902   8.189  17.481  0.00  0.00    +0.000 C 
ATOM     19  N   UNL     1       1.152   9.460  18.542  0.00  0.00    +0.000 NA
ATOM     20  N   UNL     1       0.493   9.489  19.710  0.00  0.00    +0.000 N 
ATOM     21  C   UNL     1       0.959   8.550  20.599  0.00  0.00    +0.000 A 
ATOM     22  C   UNL     1       0.487   8.407  22.006  0.00  0.00    +0.000 C 
BRANCH  20  23
ATOM     23  C   UNL     1      -0.585  10.466  19.873  0.00  0.00    +0.000 C 
ATOM     24  C   UNL     1      -0.051  11.812  20.356  0.00  0.00    +0.000 C 
ATOM     25  C   UNL     1      -1.401  10.636  18.585  0.00  0.00    +0.000 C 
ENDBRANCH  20  23
ENDBRANCH  15  16
ENDBRANCH   5  15
TORSDOF 5
ENDMDL
