MODEL 1
REMARK VINA RESULT:      -8.2      0.000      0.000
REMARK  Name = 
REMARK  5 active torsions:
REMARK  status: ('A' for Active; 'I' for Inactive)
REMARK    1  A    between atoms: C_1  and  O_2
REMARK    2  A    between atoms: O_2  and  C_3
REMARK    3  A    between atoms: C_7  and  N_8
REMARK    4  A    between atoms: N_15  and  C_16
REMARK    5  A    between atoms: C_16  and  C_17
REMARK                            x       y       z     vdW  Elec       q    Type
REMARK                         _______ _______ _______ _____ _____    ______ ____
ROOT
ATOM      1  N   UNL     1       2.854   8.031  18.216  0.00  0.00    +0.000 N 
ATOM      2  C   UNL     1       2.880   6.680  17.950  0.00  0.00    +0.000 C 
ATOM      3  O   UNL     1       1.892   5.951  18.038  0.00  0.00    +0.000 OA
ATOM      4  N   UNL     1       4.112   6.167  17.560  0.00  0.00    +0.000 N 
ATOM      5  C   UNL     1       5.350   6.918  17.353  0.00  0.00    +0.000 C 
ATOM      6  C   UNL     1       6.577   6.133  17.798  0.00  0.00    +0.000 C 
ATOM      7  C   UNL     1       6.502   4.700  17.295  0.00  0.00    +0.000 C 
ATOM      8  N   UNL     1       5.239   4.045  17.642  0.00  0.00    +0.000 NA
ATOM      9  C   UNL     1       4.113   4.792  17.076  0.00  0.00    +0.000 C 
ATOM     10  H   UNL     1       3.591   8.583  17.816  0.00  0.00    +0.000 HD
ENDROOT
BRANCH   1  15
ATOM     11  C   UNL     1       0.431   9.354  20.680  0.00  0.00    +0.000 A 
ATOM     12  C   UNL     1      -0.350  10.195  19.885  0.00  0.00    +0.000 A 
ATOM     13  C   UNL     1      -0.099  10.307  18.521  0.00  0.00    +0.000 A 
ATOM     14  C   UNL     1       0.947   9.587  17.942  0.00  0.00    +0.000 A 
ATOM     15  C   UNL     1       1.756   8.762  18.726  0.00  0.00    +0.000 A 
ATOM     16  C   UNL     1       1.477   8.632  20.094  0.00  0.00    +0.000 A 
BRANCH  11  18
ATOM     17  C   UNL     1      -0.588  10.471  22.513  0.00  0.00    +0.000 C 
ATOM     18  O   UNL     1       0.078   9.325  22.001  0.00  0.00    +0.000 OA
ENDBRANCH  11  18
ENDBRANCH   1  15
BRANCH   8  19
ATOM     19  C   UNL     1       5.022   3.841  19.090  0.00  0.00    +0.000 C 
BRANCH  19  20
ATOM     20  C   UNL     1       3.616   3.429  19.456  0.00  0.00    +0.000 A 
ATOM     21  C   UNL     1       2.890   4.124  20.433  0.00  0.00    +0.000 A 
ATOM     22  C   UNL     1       1.596   3.720  20.775  0.00  0.00    +0.000 A 
ATOM     23  C   UNL     1       1.016   2.619  20.145  0.00  0.00    +0.000 A 
ATOM     24  C   UNL     1       1.729   1.917  19.177  0.00  0.00    +0.000 A 
ATOM     25  C   UNL     1       3.019   2.322  18.844  0.00  0.00    +0.000 A 
ATOM     26  F   UNL     1       3.688   1.625  17.912  0.00  0.00    +0.000 F 
ENDBRANCH  19  20
ENDBRANCH   8  19
TORSDOF 4
ENDMDL
MODEL 2
REMARK VINA RESULT:      -8.1      0.932      1.340
REMARK  Name = 
REMARK  5 active torsions:
REMARK  status: ('A' for Active; 'I' for Inactive)
REMARK    1  A    between atoms: C_1  and  O_2
REMARK    2  A    between atoms: O_2  and  C_3
REMARK    3  A    between atoms: C_7  and  N_8
REMARK    4  A    between atoms: N_15  and  C_16
REMARK    5  A    between atoms: C_16  and  C_17
REMARK                            x       y       z     vdW  Elec       q    Type
REMARK                         _______ _______ _______ _____ _____    ______ ____
ROOT
ATOM      1  N   UNL     1       2.876   8.034  18.281  0.00  0.00    +0.000 N 
ATOM      2  C   UNL     1       2.890   6.706  17.916  0.00  0.00    +0.000 C 
ATOM      3  O   UNL     1       1.881   6.003  17.872  0.00  0.00    +0.000 OA
ATOM      4  N   UNL     1       4.136   6.186  17.585  0.00  0.00    +0.000 N 
ATOM      5  C   UNL     1       5.405   6.913  17.532  0.00  0.00    +0.000 C 
ATOM      6  C   UNL     1       6.572   6.059  18.010  0.00  0.00    +0.000 C 
ATOM      7  C   UNL     1       6.502   4.670  17.395  0.00  0.00    +0.000 C 
ATOM      8  N   UNL     1       5.200   4.030  17.593  0.00  0.00    +0.000 NA
ATOM      9  C   UNL     1       4.142   4.852  17.000  0.00  0.00    +0.000 C 
ATOM     10  H   UNL     1       3.656   8.591  17.982  0.00  0.00    +0.000 HD
ENDROOT
BRANCH   1  15
ATOM     11  C   UNL     1       0.362   9.327  20.669  0.00  0.00    +0.000 A 
ATOM     12  C   UNL     1      -0.389  10.178  19.855  0.00  0.00    +0.000 A 
ATOM     13  C   UNL     1      -0.088  10.306  18.503  0.00  0.00    +0.000 A 
ATOM     14  C   UNL     1       0.979   9.593  17.955  0.00  0.00    +0.000 A 
ATOM     15  C   UNL     1       1.759   8.759  18.759  0.00  0.00    +0.000 A 
ATOM     16  C   UNL     1       1.429   8.613  20.113  0.00  0.00    +0.000 A 
BRANCH  11  18
ATOM     17  C   UNL     1      -0.526  10.492  22.540  0.00  0.00    +0.000 C 
ATOM     18  O   UNL     1      -0.040   9.282  21.976  0.00  0.00    +0.000 OA
ENDBRANCH  11  18
ENDBRANCH   1  15
BRANCH   8  19
ATOM     19  C   UNL     1       4.864   3.727  19.000  0.00  0.00    +0.000 C 
BRANCH  19  20
ATOM     20  C   UNL     1       3.442   3.267  19.214  0.00  0.00    +0.000 A 
ATOM     21  C   UNL     1       2.906   2.204  18.474  0.00  0.00    +0.000 A 
ATOM     22  C   UNL     1       1.583   1.799  18.672  0.00  0.00    +0.000 A 
ATOM     23  C   UNL     1       0.782   2.453  19.609  0.00  0.00    +0.000 A 
ATOM     24  C   UNL     1       1.301   3.514  20.346  0.00  0.00    +0.000 A 
ATOM     25  C   UNL     1       2.619   3.914  20.142  0.00  0.00    +0.000 A 
ATOM     26  F   UNL     1       3.094   4.943  20.861  0.00  0.00    +0.000 F 
ENDBRANCH  19  20
ENDBRANCH   8  19
TORSDOF 4
ENDMDL
MODEL 3
REMARK VINA RESULT:      -8.0      1.102      1.804
REMARK  Name = 
REMARK  5 active torsions:
REMARK  status: ('A' for Active; 'I' for Inactive)
REMARK    1  A    between atoms: C_1  and  O_2
REMARK    2  A    between atoms: O_2  and  C_3
REMARK    3  A    between atoms: C_7  and  N_8
REMARK    4  A    between atoms: N_15  and  C_16
REMARK    5  A    between atoms: C_16  and  C_17
REMARK                            x       y       z     vdW  Elec       q    Type
REMARK                         _______ _______ _______ _____ _____    ______ ____
ROOT
ATOM      1  N   UNL     1       2.737   8.060  18.277  0.00  0.00    +0.000 N 
ATOM      2  C   UNL     1       2.774   6.710  18.004  0.00  0.00    +0.000 C 
ATOM      3  O   UNL     1       1.801   5.966  18.127  0.00  0.00    +0.000 OA
ATOM      4  N   UNL     1       3.998   6.218  17.565  0.00  0.00    +0.000 N 
ATOM      5  C   UNL     1       5.215   6.990  17.313  0.00  0.00    +0.000 C 
ATOM      6  C   UNL     1       6.470   6.221  17.708  0.00  0.00    +0.000 C 
ATOM      7  C   UNL     1       6.397   4.789  17.201  0.00  0.00    +0.000 C 
ATOM      8  N   UNL     1       5.159   4.113  17.594  0.00  0.00    +0.000 NA
ATOM      9  C   UNL     1       4.001   4.846  17.075  0.00  0.00    +0.000 C 
ATOM     10  H   UNL     1       3.450   8.625  17.851  0.00  0.00    +0.000 HD
ENDROOT
BRANCH   1  15
ATOM     11  C   UNL     1      -0.319  10.141  18.415  0.00  0.00    +0.000 A 
ATOM     12  C   UNL     1      -0.578  10.171  19.787  0.00  0.00    +0.000 A 
ATOM     13  C   UNL     1       0.274   9.530  20.679  0.00  0.00    +0.000 A 
ATOM     14  C   UNL     1       1.389   8.837  20.203  0.00  0.00    +0.000 A 
ATOM     15  C   UNL     1       1.649   8.772  18.832  0.00  0.00    +0.000 A 
ATOM     16  C   UNL     1       0.801   9.447  17.944  0.00  0.00    +0.000 A 
BRANCH  11  18
ATOM     17  C   UNL     1      -2.074  10.034  16.815  0.00  0.00    +0.000 C 
ATOM     18  O   UNL     1      -1.226  10.817  17.645  0.00  0.00    +0.000 OA
ENDBRANCH  11  18
ENDBRANCH   1  15
BRANCH   8  19
ATOM     19  C   UNL     1       5.001   3.901  19.047  0.00  0.00    +0.000 C 
BRANCH  19  20
ATOM     20  C   UNL     1       3.619   3.460  19.465  0.00  0.00    +0.000 A 
ATOM     21  C   UNL     1       2.912   4.145  20.464  0.00  0.00    +0.000 A 
ATOM     22  C   UNL     1       1.640   3.715  20.853  0.00  0.00    +0.000 A 
ATOM     23  C   UNL     1       1.062   2.598  20.249  0.00  0.00    +0.000 A 
ATOM     24  C   UNL     1       1.756   1.906  19.260  0.00  0.00    +0.000 A 
ATOM     25  C   UNL     1       3.024   2.337  18.880  0.00  0.00    +0.000 A 
ATOM     26  F   UNL     1       3.675   1.650  17.929  0.00  0.00    +0.000 F 
ENDBRANCH  19  20
ENDBRANCH   8  19
TORSDOF 4
ENDMDL
MODEL 4
REMARK VINA RESULT:      -7.9      1.435      2.233
REMARK  Name = 
REMARK  5 active torsions:
REMARK  status: ('A' for Active; 'I' for Inactive)
REMARK    1  A    between atoms: C_1  and  O_2
REMARK    2  A    between atoms: O_2  and  C_3
REMARK    3  A    between atoms: C_7  and  N_8
REMARK    4  A    between atoms: N_15  and  C_16
REMARK    5  A    between atoms: C_16  and  C_17
REMARK                            x       y       z     vdW  Elec       q    Type
REMARK                         _______ _______ _______ _____ _____    ______ ____
ROOT
ATOM      1  N   UNL     1       2.818   8.042  18.340  0.00  0.00    +0.000 N 
ATOM      2  C   UNL     1       2.836   6.718  17.961  0.00  0.00    +0.000 C 
ATOM      3  O   UNL     1       1.834   6.004  17.940  0.00  0.00    +0.000 OA
ATOM      4  N   UNL     1       4.077   6.216  17.587  0.00  0.00    +0.000 N 
ATOM      5  C   UNL     1       5.335   6.958  17.502  0.00  0.00    +0.000 C 
ATOM      6  C   UNL     1       6.526   6.113  17.936  0.00  0.00    +0.000 C 
ATOM      7  C   UNL     1       6.453   4.730  17.308  0.00  0.00    +0.000 C 
ATOM      8  N   UNL     1       5.165   4.073  17.539  0.00  0.00    +0.000 NA
ATOM      9  C   UNL     1       4.080   4.888  16.987  0.00  0.00    +0.000 C 
ATOM     10  H   UNL     1       3.582   8.611  18.024  0.00  0.00    +0.000 HD
ENDROOT
BRANCH   1  15
ATOM     11  C   UNL     1      -0.231  10.138  18.381  0.00  0.00    +0.000 A 
ATOM     12  C   UNL     1      -0.554  10.141  19.739  0.00  0.00    +0.000 A 
ATOM     13  C   UNL     1       0.253   9.475  20.656  0.00  0.00    +0.000 A 
ATOM     14  C   UNL     1       1.385   8.786  20.218  0.00  0.00    +0.000 A 
ATOM     15  C   UNL     1       1.708   8.748  18.860  0.00  0.00    +0.000 A 
ATOM     16  C   UNL     1       0.907   9.448  17.948  0.00  0.00    +0.000 A 
BRANCH  11  18
ATOM     17  C   UNL     1      -2.123  10.091  16.944  0.00  0.00    +0.000 C 
ATOM     18  O   UNL     1      -1.097  10.837  17.585  0.00  0.00    +0.000 OA
ENDBRANCH  11  18
ENDBRANCH   1  15
BRANCH   8  19
ATOM     19  C   UNL     1       4.876   3.751  18.952  0.00  0.00    +0.000 C 
BRANCH  19  20
ATOM     20  C   UNL     1       3.468   3.265  19.204  0.00  0.00    +0.000 A 
ATOM     21  C   UNL     1       2.933   2.193  18.476  0.00  0.00    +0.000 A 
ATOM     22  C   UNL     1       1.623   1.764  18.708  0.00  0.00    +0.000 A 
ATOM     23  C   UNL     1       0.835   2.402  19.668  0.00  0.00    +0.000 A 
ATOM     24  C   UNL     1       1.355   3.471  20.393  0.00  0.00    +0.000 A 
ATOM     25  C   UNL     1       2.659   3.895  20.154  0.00  0.00    +0.000 A 
ATOM     26  F   UNL     1       3.134   4.932  20.862  0.00  0.00    +0.000 F 
ENDBRANCH  19  20
ENDBRANCH   8  19
TORSDOF 4
ENDMDL
MODEL 5
REMARK VINA RESULT:      -7.8      4.881      6.549
REMARK  Name = 
REMARK  5 active torsions:
REMARK  status: ('A' for Active; 'I' for Inactive)
REMARK    1  A    between atoms: C_1  and  O_2
REMARK    2  A    between atoms: O_2  and  C_3
REMARK    3  A    between atoms: C_7  and  N_8
REMARK    4  A    between atoms: N_15  and  C_16
REMARK    5  A    between atoms: C_16  and  C_17
REMARK                            x       y       z     vdW  Elec       q    Type
REMARK                         _______ _______ _______ _____ _____    ______ ____
ROOT
ATOM      1  N   UNL     1       8.843   8.856  19.068  0.00  0.00    +0.000 N 
ATOM      2  C   UNL     1       8.083   8.370  18.027  0.00  0.00    +0.000 C 
ATOM      3  O   UNL     1       7.732   9.053  17.065  0.00  0.00    +0.000 OA
ATOM      4  N   UNL     1       7.728   7.029  18.116  0.00  0.00    +0.000 N 
ATOM      5  C   UNL     1       8.122   6.083  19.160  0.00  0.00    +0.000 C 
ATOM      6  C   UNL     1       7.005   5.104  19.496  0.00  0.00    +0.000 C 
ATOM      7  C   UNL     1       6.374   4.561  18.223  0.00  0.00    +0.000 C 
ATOM      8  N   UNL     1       5.956   5.622  17.303  0.00  0.00    +0.000 NA
ATOM      9  C   UNL     1       7.108   6.447  16.932  0.00  0.00    +0.000 C 
ATOM     10  H   UNL     1       9.340   8.178  19.617  0.00  0.00    +0.000 HD
ENDROOT
BRANCH   1  15
ATOM     11  C   UNL     1       9.964  12.280  18.225  0.00  0.00    +0.000 A 
ATOM     12  C   UNL     1       9.981  12.889  19.481  0.00  0.00    +0.000 A 
ATOM     13  C   UNL     1       9.652  12.162  20.620  0.00  0.00    +0.000 A 
ATOM     14  C   UNL     1       9.287  10.820  20.511  0.00  0.00    +0.000 A 
ATOM     15  C   UNL     1       9.237  10.200  19.259  0.00  0.00    +0.000 A 
ATOM     16  C   UNL     1       9.600  10.933  18.121  0.00  0.00    +0.000 A 
BRANCH  11  18
ATOM     17  C   UNL     1      11.707  13.260  16.941  0.00  0.00    +0.000 C 
ATOM     18  O   UNL     1      10.316  13.098  17.187  0.00  0.00    +0.000 OA
ENDBRANCH  11  18
ENDBRANCH   1  15
BRANCH   8  19
ATOM     19  C   UNL     1       4.867   6.485  17.805  0.00  0.00    +0.000 C 
BRANCH  19  20
ATOM     20  C   UNL     1       3.677   5.732  18.350  0.00  0.00    +0.000 A 
ATOM     21  C   UNL     1       3.142   6.039  19.609  0.00  0.00    +0.000 A 
ATOM     22  C   UNL     1       2.051   5.322  20.108  0.00  0.00    +0.000 A 
ATOM     23  C   UNL     1       1.483   4.293  19.355  0.00  0.00    +0.000 A 
ATOM     24  C   UNL     1       2.010   3.976  18.106  0.00  0.00    +0.000 A 
ATOM     25  C   UNL     1       3.099   4.691  17.616  0.00  0.00    +0.000 A 
ATOM     26  F   UNL     1       3.591   4.362  16.412  0.00  0.00    +0.000 F 
ENDBRANCH  19  20
ENDBRANCH   8  19
TORSDOF 4
ENDMDL
MODEL 6
REMARK VINA RESULT:      -7.8      3.724      7.122
REMARK  Name = 
REMARK  5 active torsions:
REMARK  status: ('A' for Active; 'I' for Inactive)
REMARK    1  A    between atoms: C_1  and  O_2
REMARK    2  A    between atoms: O_2  and  C_3
REMARK    3  A    between atoms: C_7  and  N_8
REMARK    4  A    between atoms: N_15  and  C_16
REMARK    5  A    between atoms: C_16  and  C_17
REMARK                            x       y       z     vdW  Elec       q    Type
REMARK                         _______ _______ _______ _____ _____    ______ ____
ROOT
ATOM      1  N   UNL     1       5.684   5.192  15.099  0.00  0.00    +0.000 N 
ATOM      2  C   UNL     1       6.152   4.927  16.367  0.00  0.00    +0.000 C 
ATOM      3  O   UNL     1       7.172   4.276  16.592  0.00  0.00    +0.000 OA
ATOM      4  N   UNL     1       5.396   5.451  17.409  0.00  0.00    +0.000 N 
ATOM      5  C   UNL     1       4.204   6.291  17.292  0.00  0.00    +0.000 C 
ATOM      6  C   UNL     1       3.178   5.979  18.374  0.00  0.00    +0.000 C 
ATOM      7  C   UNL     1       3.855   5.861  19.730  0.00  0.00    +0.000 C 
ATOM      8  N   UNL     1       4.983   4.927  19.718  0.00  0.00    +0.000 NA
ATOM      9  C   UNL     1       5.983   5.360  18.739  0.00  0.00    +0.000 C 
ATOM     10  H   UNL     1       5.062   5.973  15.002  0.00  0.00    +0.000 HD
ENDROOT
BRANCH   1  15
ATOM     11  C   UNL     1       6.008   3.046  12.102  0.00  0.00    +0.000 A 
ATOM     12  C   UNL     1       7.115   3.613  11.466  0.00  0.00    +0.000 A 
ATOM     13  C   UNL     1       7.781   4.690  12.041  0.00  0.00    +0.000 A 
ATOM     14  C   UNL     1       7.335   5.220  13.252  0.00  0.00    +0.000 A 
ATOM     15  C   UNL     1       6.213   4.685  13.889  0.00  0.00    +0.000 A 
ATOM     16  C   UNL     1       5.567   3.580  13.317  0.00  0.00    +0.000 A 
BRANCH  11  18
ATOM     17  C   UNL     1       6.320   0.929  11.068  0.00  0.00    +0.000 C 
ATOM     18  O   UNL     1       5.447   1.987  11.440  0.00  0.00    +0.000 OA
ENDBRANCH  11  18
ENDBRANCH   1  15
BRANCH   8  19
ATOM     19  C   UNL     1       4.620   3.517  19.466  0.00  0.00    +0.000 C 
BRANCH  19  20
ATOM     20  C   UNL     1       3.154   3.209  19.659  0.00  0.00    +0.000 A 
ATOM     21  C   UNL     1       2.568   3.250  20.932  0.00  0.00    +0.000 A 
ATOM     22  C   UNL     1       1.214   2.946  21.098  0.00  0.00    +0.000 A 
ATOM     23  C   UNL     1       0.432   2.597  19.996  0.00  0.00    +0.000 A 
ATOM     24  C   UNL     1       1.005   2.547  18.727  0.00  0.00    +0.000 A 
ATOM     25  C   UNL     1       2.355   2.848  18.569  0.00  0.00    +0.000 A 
ATOM     26  F   UNL     1       2.884   2.787  17.338  0.00  0.00    +0.000 F 
ENDBRANCH  19  20
ENDBRANCH   8  19
TORSDOF 4
ENDMDL
MODEL 7
REMARK VINA RESULT:      -7.6      4.696      5.988
REMARK  Name = 
REMARK  5 active torsions:
REMARK  status: ('A' for Active; 'I' for Inactive)
REMARK    1  A    between atoms: C_1  and  O_2
REMARK    2  A    between atoms: O_2  and  C_3
REMARK    3  A    between atoms: C_7  and  N_8
REMARK    4  A    between atoms: N_15  and  C_16
REMARK    5  A    between atoms: C_16  and  C_17
REMARK                            x       y       z     vdW  Elec       q    Type
REMARK                         _______ _______ _______ _____ _____    ______ ____
ROOT
ATOM      1  N   UNL     1       8.762   8.713  18.963  0.00  0.00    +0.000 N 
ATOM      2  C   UNL     1       7.993   8.202  17.940  0.00  0.00    +0.000 C 
ATOM      3  O   UNL     1       7.655   8.856  16.953  0.00  0.00    +0.000 OA
ATOM      4  N   UNL     1       7.612   6.873  18.079  0.00  0.00    +0.000 N 
ATOM      5  C   UNL     1       7.989   5.960  19.159  0.00  0.00    +0.000 C 
ATOM      6  C   UNL     1       6.853   5.016  19.530  0.00  0.00    +0.000 C 
ATOM      7  C   UNL     1       6.212   4.438  18.278  0.00  0.00    +0.000 C 
ATOM      8  N   UNL     1       5.814   5.470  17.319  0.00  0.00    +0.000 NA
ATOM      9  C   UNL     1       6.981   6.259  16.918  0.00  0.00    +0.000 C 
ATOM     10  H   UNL     1       9.246   8.047  19.537  0.00  0.00    +0.000 HD
ENDROOT
BRANCH   1  15
ATOM     11  C   UNL     1       9.674  11.890  20.625  0.00  0.00    +0.000 A 
ATOM     12  C   UNL     1      10.051  12.680  19.537  0.00  0.00    +0.000 A 
ATOM     13  C   UNL     1       9.976  12.178  18.243  0.00  0.00    +0.000 A 
ATOM     14  C   UNL     1       9.536  10.871  18.026  0.00  0.00    +0.000 A 
ATOM     15  C   UNL     1       9.182  10.056  19.104  0.00  0.00    +0.000 A 
ATOM     16  C   UNL     1       9.231  10.582  20.402  0.00  0.00    +0.000 A 
BRANCH  11  18
ATOM     17  C   UNL     1       8.572  12.821  22.514  0.00  0.00    +0.000 C 
ATOM     18  O   UNL     1       9.784  12.503  21.844  0.00  0.00    +0.000 OA
ENDBRANCH  11  18
ENDBRANCH   1  15
BRANCH   8  19
ATOM     19  C   UNL     1       4.742   6.373  17.787  0.00  0.00    +0.000 C 
BRANCH  19  20
ATOM     20  C   UNL     1       3.575   5.668  18.437  0.00  0.00    +0.000 A 
ATOM     21  C   UNL     1       3.151   6.011  19.728  0.00  0.00    +0.000 A 
ATOM     22  C   UNL     1       2.080   5.339  20.324  0.00  0.00    +0.000 A 
ATOM     23  C   UNL     1       1.423   4.317  19.637  0.00  0.00    +0.000 A 
ATOM     24  C   UNL     1       1.839   3.964  18.356  0.00  0.00    +0.000 A 
ATOM     25  C   UNL     1       2.908   4.635  17.770  0.00  0.00    +0.000 A 
ATOM     26  F   UNL     1       3.294   4.271  16.537  0.00  0.00    +0.000 F 
ENDBRANCH  19  20
ENDBRANCH   8  19
TORSDOF 4
ENDMDL
MODEL 8
REMARK VINA RESULT:      -7.6      2.001      4.106
REMARK  Name = 
REMARK  5 active torsions:
REMARK  status: ('A' for Active; 'I' for Inactive)
REMARK    1  A    between atoms: C_1  and  O_2
REMARK    2  A    between atoms: O_2  and  C_3
REMARK    3  A    between atoms: C_7  and  N_8
REMARK    4  A    between atoms: N_15  and  C_16
REMARK    5  A    between atoms: C_16  and  C_17
REMARK                            x       y       z     vdW  Elec       q    Type
REMARK                         _______ _______ _______ _____ _____    ______ ____
ROOT
ATOM      1  N   UNL     1       1.000   7.024  20.664  0.00  0.00    +0.000 N 
ATOM      2  C   UNL     1       2.160   6.412  20.243  0.00  0.00    +0.000 C 
ATOM      3  O   UNL     1       3.193   7.026  19.975  0.00  0.00    +0.000 OA
ATOM      4  N   UNL     1       2.108   5.027  20.141  0.00  0.00    +0.000 N 
ATOM      5  C   UNL     1       0.977   4.163  20.484  0.00  0.00    +0.000 C 
ATOM      6  C   UNL     1       0.850   2.983  19.530  0.00  0.00    +0.000 C 
ATOM      7  C   UNL     1       2.209   2.343  19.292  0.00  0.00    +0.000 C 
ATOM      8  N   UNL     1       3.225   3.314  18.878  0.00  0.00    +0.000 NA
ATOM      9  C   UNL     1       3.376   4.350  19.902  0.00  0.00    +0.000 C 
ATOM     10  H   UNL     1       0.341   6.449  21.157  0.00  0.00    +0.000 HD
ENDROOT
BRANCH   1  15
ATOM     11  C   UNL     1       0.024  10.285  22.115  0.00  0.00    +0.000 A 
ATOM     12  C   UNL     1       0.322  11.160  21.069  0.00  0.00    +0.000 A 
ATOM     13  C   UNL     1       0.818  10.674  19.864  0.00  0.00    +0.000 A 
ATOM     14  C   UNL     1       1.036   9.305  19.701  0.00  0.00    +0.000 A 
ATOM     15  C   UNL     1       0.771   8.417  20.745  0.00  0.00    +0.000 A 
ATOM     16  C   UNL     1       0.242   8.913  21.945  0.00  0.00    +0.000 A 
BRANCH  11  18
ATOM     17  C   UNL     1      -1.285  12.031  23.055  0.00  0.00    +0.000 C 
ATOM     18  O   UNL     1      -0.466  10.885  23.243  0.00  0.00    +0.000 OA
ENDBRANCH  11  18
ENDBRANCH   1  15
BRANCH   8  19
ATOM     19  C   UNL     1       2.982   3.945  17.564  0.00  0.00    +0.000 C 
BRANCH  19  20
ATOM     20  C   UNL     1       4.229   4.436  16.870  0.00  0.00    +0.000 A 
ATOM     21  C   UNL     1       5.178   3.537  16.364  0.00  0.00    +0.000 A 
ATOM     22  C   UNL     1       6.336   4.006  15.739  0.00  0.00    +0.000 A 
ATOM     23  C   UNL     1       6.559   5.378  15.612  0.00  0.00    +0.000 A 
ATOM     24  C   UNL     1       5.626   6.281  16.115  0.00  0.00    +0.000 A 
ATOM     25  C   UNL     1       4.477   5.807  16.740  0.00  0.00    +0.000 A 
ATOM     26  F   UNL     1       3.597   6.698  17.222  0.00  0.00    +0.000 F 
ENDBRANCH  19  20
ENDBRANCH   8  19
TORSDOF 4
ENDMDL
MODEL 9
REMARK VINA RESULT:      -7.5      1.812      3.938
REMARK  Name = 
REMARK  5 active torsions:
REMARK  status: ('A' for Active; 'I' for Inactive)
REMARK    1  A    between atoms: C_1  and  O_2
REMARK    2  A    between atoms: O_2  and  C_3
REMARK    3  A    between atoms: C_7  and  N_8
REMARK    4  A    between atoms: N_15  and  C_16
REMARK    5  A    between atoms: C_16  and  C_17
REMARK                            x       y       z     vdW  Elec       q    Type
REMARK                         _______ _______ _______ _____ _____    ______ ____
ROOT
ATOM      1  N   UNL     1       1.533   6.467  19.905  0.00  0.00    +0.000 N 
ATOM      2  C   UNL     1       2.754   5.839  19.786  0.00  0.00    +0.000 C 
ATOM      3  O   UNL     1       3.830   6.405  19.977  0.00  0.00    +0.000 OA
ATOM      4  N   UNL     1       2.707   4.495  19.434  0.00  0.00    +0.000 N 
ATOM      5  C   UNL     1       1.508   3.680  19.237  0.00  0.00    +0.000 C 
ATOM      6  C   UNL     1       1.680   2.676  18.105  0.00  0.00    +0.000 C 
ATOM      7  C   UNL     1       3.026   1.977  18.215  0.00  0.00    +0.000 C 
ATOM      8  N   UNL     1       4.143   2.917  18.327  0.00  0.00    +0.000 NA
ATOM      9  C   UNL     1       3.967   3.767  19.507  0.00  0.00    +0.000 C 
ATOM     10  H   UNL     1       0.736   5.876  20.051  0.00  0.00    +0.000 HD
ENDROOT
BRANCH   1  15
ATOM     11  C   UNL     1       0.768   9.568  21.773  0.00  0.00    +0.000 A 
ATOM     12  C   UNL     1       0.928  10.540  20.784  0.00  0.00    +0.000 A 
ATOM     13  C   UNL     1       1.259  10.174  19.484  0.00  0.00    +0.000 A 
ATOM     14  C   UNL     1       1.449   8.829  19.165  0.00  0.00    +0.000 A 
ATOM     15  C   UNL     1       1.321   7.844  20.147  0.00  0.00    +0.000 A 
ATOM     16  C   UNL     1       0.957   8.221  21.447  0.00  0.00    +0.000 A 
BRANCH  11  18
ATOM     17  C   UNL     1      -0.911  10.483  23.184  0.00  0.00    +0.000 C 
ATOM     18  O   UNL     1       0.433  10.055  23.007  0.00  0.00    +0.000 OA
ENDBRANCH  11  18
ENDBRANCH   1  15
BRANCH   8  19
ATOM     19  C   UNL     1       4.366   3.761  17.135  0.00  0.00    +0.000 C 
BRANCH  19  20
ATOM     20  C   UNL     1       5.459   4.791  17.298  0.00  0.00    +0.000 A 
ATOM     21  C   UNL     1       6.724   4.433  17.783  0.00  0.00    +0.000 A 
ATOM     22  C   UNL     1       7.721   5.399  17.945  0.00  0.00    +0.000 A 
ATOM     23  C   UNL     1       7.463   6.733  17.624  0.00  0.00    +0.000 A 
ATOM     24  C   UNL     1       6.208   7.102  17.147  0.00  0.00    +0.000 A 
ATOM     25  C   UNL     1       5.220   6.135  16.992  0.00  0.00    +0.000 A 
ATOM     26  F   UNL     1       4.017   6.517  16.535  0.00  0.00    +0.000 F 
ENDBRANCH  19  20
ENDBRANCH   8  19
TORSDOF 4
ENDMDL
