MODEL 1
REMARK VINA RESULT:      -8.5      0.000      0.000
REMARK  Name = 
REMARK  11 active torsions:
REMARK  status: ('A' for Active; 'I' for Inactive)
REMARK    1  A    between atoms: C_1  and  O_2
REMARK    2  A    between atoms: O_2  and  C_3
REMARK    3  A    between atoms: C_5  and  C_6
REMARK    4  A    between atoms: C_18  and  N_19
REMARK    5  A    between atoms: C_21  and  C_22
REMARK    6  A    between atoms: C_24  and  O_25
REMARK    7  A    between atoms: O_25  and  C_26
REMARK    8  A    between atoms: C_27  and  O_28
REMARK    9  A    between atoms: O_28  and  C_29
REMARK   10  A    between atoms: C_30  and  O_31
REMARK   11  A    between atoms: O_31  and  C_32
REMARK                            x       y       z     vdW  Elec       q    Type
REMARK                         _______ _______ _______ _____ _____    ______ ____
ROOT
ATOM      1  C   UNL     1      -0.122  10.073  20.197  0.00  0.00    +0.000 A 
ATOM      2  C   UNL     1      -0.824  11.143  20.786  0.00  0.00    +0.000 A 
ATOM      3  C   UNL     1      -0.930  11.270  22.177  0.00  0.00    +0.000 A 
ATOM      4  C   UNL     1      -0.382  10.261  22.975  0.00  0.00    +0.000 A 
ATOM      5  C   UNL     1       0.285   9.180  22.416  0.00  0.00    +0.000 A 
ATOM      6  C   UNL     1       0.442   9.081  21.024  0.00  0.00    +0.000 A 
ENDROOT
BRANCH   3   7
ATOM      7  C   UNL     1      -1.554  12.407  22.873  0.00  0.00    +0.000 A 
ATOM      8  N   UNL     1      -0.833  13.342  23.451  0.00  0.00    +0.000 NA
ATOM      9  C   UNL     1      -1.630  14.325  23.973  0.00  0.00    +0.000 A 
ATOM     10  C   UNL     1      -1.161  15.475  24.637  0.00  0.00    +0.000 A 
ATOM     11  C   UNL     1      -2.080  16.400  25.134  0.00  0.00    +0.000 A 
ATOM     12  C   UNL     1      -3.439  16.179  24.961  0.00  0.00    +0.000 A 
ATOM     13  F   UNL     1      -4.309  17.076  25.443  0.00  0.00    +0.000 F 
ATOM     14  C   UNL     1      -3.934  15.057  24.298  0.00  0.00    +0.000 A 
ATOM     15  C   UNL     1      -3.001  14.133  23.807  0.00  0.00    +0.000 A 
ATOM     16  S   UNL     1      -3.253  12.659  22.951  0.00  0.00    +0.000 S 
ENDBRANCH   3   7
BRANCH   6  17
ATOM     17  N   UNL     1       1.194   7.975  20.551  0.00  0.00    +0.000 N 
ATOM     18  C   UNL     1       2.065   7.873  19.498  0.00  0.00    +0.000 A 
ATOM     19  C   UNL     1       2.487   6.565  19.506  0.00  0.00    +0.000 A 
ATOM     20  N   UNL     1       1.927   5.913  20.561  0.00  0.00    +0.000 NA
ATOM     21  N   UNL     1       1.139   6.770  21.190  0.00  0.00    +0.000 NA
BRANCH  19  22
ATOM     22  C   UNL     1       3.394   5.963  18.560  0.00  0.00    +0.000 A 
ATOM     23  C   UNL     1       3.308   4.602  18.273  0.00  0.00    +0.000 A 
ATOM     24  C   UNL     1       4.195   4.014  17.368  0.00  0.00    +0.000 A 
ATOM     25  C   UNL     1       5.210   4.794  16.760  0.00  0.00    +0.000 A 
ATOM     26  C   UNL     1       5.299   6.171  17.053  0.00  0.00    +0.000 A 
ATOM     27  C   UNL     1       4.370   6.737  17.929  0.00  0.00    +0.000 A 
BRANCH  24  28
ATOM     28  O   UNL     1       4.148   2.676  17.045  0.00  0.00    +0.000 OA
ATOM     29  C   UNL     1       3.572   1.817  18.027  0.00  0.00    +0.000 C 
ENDBRANCH  24  28
BRANCH  25  30
ATOM     30  O   UNL     1       6.087   4.096  15.961  0.00  0.00    +0.000 OA
ATOM     31  C   UNL     1       5.882   4.176  14.557  0.00  0.00    +0.000 C 
ENDBRANCH  25  30
BRANCH  26  32
ATOM     32  O   UNL     1       6.315   6.906  16.496  0.00  0.00    +0.000 OA
ATOM     33  C   UNL     1       7.293   7.464  17.367  0.00  0.00    +0.000 C 
ENDBRANCH  26  32
ENDBRANCH  19  22
ENDBRANCH   6  17
BRANCH   1  35
ATOM     34  C   UNL     1      -1.165  10.413  18.089  0.00  0.00    +0.000 C 
ATOM     35  O   UNL     1      -0.036   9.954  18.835  0.00  0.00    +0.000 OA
ENDBRANCH   1  35
TORSDOF 7
ENDMDL
MODEL 2
REMARK VINA RESULT:      -8.3      0.480      2.218
REMARK  Name = 
REMARK  11 active torsions:
REMARK  status: ('A' for Active; 'I' for Inactive)
REMARK    1  A    between atoms: C_1  and  O_2
REMARK    2  A    between atoms: O_2  and  C_3
REMARK    3  A    between atoms: C_5  and  C_6
REMARK    4  A    between atoms: C_18  and  N_19
REMARK    5  A    between atoms: C_21  and  C_22
REMARK    6  A    between atoms: C_24  and  O_25
REMARK    7  A    between atoms: O_25  and  C_26
REMARK    8  A    between atoms: C_27  and  O_28
REMARK    9  A    between atoms: O_28  and  C_29
REMARK   10  A    between atoms: C_30  and  O_31
REMARK   11  A    between atoms: O_31  and  C_32
REMARK                            x       y       z     vdW  Elec       q    Type
REMARK                         _______ _______ _______ _____ _____    ______ ____
ROOT
ATOM      1  C   UNL     1       0.155  10.243  20.286  0.00  0.00    +0.000 A 
ATOM      2  C   UNL     1      -0.553  11.317  20.863  0.00  0.00    +0.000 A 
ATOM      3  C   UNL     1      -0.921  11.307  22.215  0.00  0.00    +0.000 A 
ATOM      4  C   UNL     1      -0.632  10.165  22.969  0.00  0.00    +0.000 A 
ATOM      5  C   UNL     1       0.034   9.082  22.413  0.00  0.00    +0.000 A 
ATOM      6  C   UNL     1       0.454   9.114  21.074  0.00  0.00    +0.000 A 
ENDROOT
BRANCH   3   7
ATOM      7  C   UNL     1      -1.568  12.426  22.919  0.00  0.00    +0.000 A 
ATOM      8  N   UNL     1      -0.867  13.393  23.467  0.00  0.00    +0.000 NA
ATOM      9  C   UNL     1      -1.686  14.351  24.003  0.00  0.00    +0.000 A 
ATOM     10  C   UNL     1      -1.243  15.524  24.643  0.00  0.00    +0.000 A 
ATOM     11  C   UNL     1      -2.183  16.419  25.158  0.00  0.00    +0.000 A 
ATOM     12  C   UNL     1      -3.536  16.144  25.026  0.00  0.00    +0.000 A 
ATOM     13  F   UNL     1      -4.426  17.012  25.524  0.00  0.00    +0.000 F 
ATOM     14  C   UNL     1      -4.006  14.998  24.387  0.00  0.00    +0.000 A 
ATOM     15  C   UNL     1      -3.053  14.105  23.878  0.00  0.00    +0.000 A 
ATOM     16  S   UNL     1      -3.272  12.614  23.043  0.00  0.00    +0.000 S 
ENDBRANCH   3   7
BRANCH   6  17
ATOM     17  N   UNL     1       1.185   7.987  20.615  0.00  0.00    +0.000 N 
ATOM     18  C   UNL     1       2.127   7.877  19.626  0.00  0.00    +0.000 A 
ATOM     19  C   UNL     1       2.482   6.550  19.615  0.00  0.00    +0.000 A 
ATOM     20  N   UNL     1       1.814   5.891  20.600  0.00  0.00    +0.000 NA
ATOM     21  N   UNL     1       1.024   6.766  21.202  0.00  0.00    +0.000 NA
BRANCH  19  22
ATOM     22  C   UNL     1       3.428   5.935  18.715  0.00  0.00    +0.000 A 
ATOM     23  C   UNL     1       4.377   6.713  18.054  0.00  0.00    +0.000 A 
ATOM     24  C   UNL     1       5.284   6.122  17.171  0.00  0.00    +0.000 A 
ATOM     25  C   UNL     1       5.222   4.730  16.918  0.00  0.00    +0.000 A 
ATOM     26  C   UNL     1       4.260   3.943  17.583  0.00  0.00    +0.000 A 
ATOM     27  C   UNL     1       3.396   4.557  18.493  0.00  0.00    +0.000 A 
BRANCH  24  28
ATOM     28  O   UNL     1       6.244   6.845  16.499  0.00  0.00    +0.000 OA
ATOM     29  C   UNL     1       7.296   7.380  17.300  0.00  0.00    +0.000 C 
ENDBRANCH  24  28
BRANCH  25  30
ATOM     30  O   UNL     1       6.097   4.269  15.960  0.00  0.00    +0.000 OA
ATOM     31  C   UNL     1       5.614   4.200  14.625  0.00  0.00    +0.000 C 
ENDBRANCH  25  30
BRANCH  26  32
ATOM     32  O   UNL     1       4.178   2.604  17.294  0.00  0.00    +0.000 OA
ATOM     33  C   UNL     1       3.236   1.819  18.018  0.00  0.00    +0.000 C 
ENDBRANCH  26  32
ENDBRANCH  19  22
ENDBRANCH   6  17
BRANCH   1  35
ATOM     34  C   UNL     1       1.404  11.289  18.556  0.00  0.00    +0.000 C 
ATOM     35  O   UNL     1       0.499  10.260  18.960  0.00  0.00    +0.000 OA
ENDBRANCH   1  35
TORSDOF 7
ENDMDL
MODEL 3
REMARK VINA RESULT:      -8.0      0.839      2.488
REMARK  Name = 
REMARK  11 active torsions:
REMARK  status: ('A' for Active; 'I' for Inactive)
REMARK    1  A    between atoms: C_1  and  O_2
REMARK    2  A    between atoms: O_2  and  C_3
REMARK    3  A    between atoms: C_5  and  C_6
REMARK    4  A    between atoms: C_18  and  N_19
REMARK    5  A    between atoms: C_21  and  C_22
REMARK    6  A    between atoms: C_24  and  O_25
REMARK    7  A    between atoms: O_25  and  C_26
REMARK    8  A    between atoms: C_27  and  O_28
REMARK    9  A    between atoms: O_28  and  C_29
REMARK   10  A    between atoms: C_30  and  O_31
REMARK   11  A    between atoms: O_31  and  C_32
REMARK                            x       y       z     vdW  Elec       q    Type
REMARK                         _______ _______ _______ _____ _____    ______ ____
ROOT
ATOM      1  C   UNL     1      -0.203  10.323  20.001  0.00  0.00    +0.000 A 
ATOM      2  C   UNL     1      -0.961  11.397  20.509  0.00  0.00    +0.000 A 
ATOM      3  C   UNL     1      -1.213  11.529  21.881  0.00  0.00    +0.000 A 
ATOM      4  C   UNL     1      -0.753  10.522  22.736  0.00  0.00    +0.000 A 
ATOM      5  C   UNL     1      -0.033   9.438  22.254  0.00  0.00    +0.000 A 
ATOM      6  C   UNL     1       0.269   9.334  20.887  0.00  0.00    +0.000 A 
ENDROOT
BRANCH   3   7
ATOM      7  C   UNL     1      -1.905  12.669  22.504  0.00  0.00    +0.000 A 
ATOM      8  N   UNL     1      -3.214  12.783  22.470  0.00  0.00    +0.000 NA
ATOM      9  C   UNL     1      -3.630  13.884  23.170  0.00  0.00    +0.000 A 
ATOM     10  C   UNL     1      -4.973  14.270  23.340  0.00  0.00    +0.000 A 
ATOM     11  C   UNL     1      -5.266  15.424  24.069  0.00  0.00    +0.000 A 
ATOM     12  C   UNL     1      -4.233  16.168  24.621  0.00  0.00    +0.000 A 
ATOM     13  F   UNL     1      -4.528  17.271  25.319  0.00  0.00    +0.000 F 
ATOM     14  C   UNL     1      -2.894  15.804  24.481  0.00  0.00    +0.000 A 
ATOM     15  C   UNL     1      -2.613  14.646  23.742  0.00  0.00    +0.000 A 
ATOM     16  S   UNL     1      -1.098  13.913  23.374  0.00  0.00    +0.000 S 
ENDBRANCH   3   7
BRANCH   6  17
ATOM     17  N   UNL     1       1.065   8.225  20.500  0.00  0.00    +0.000 N 
ATOM     18  C   UNL     1       1.963   8.086  19.474  0.00  0.00    +0.000 A 
ATOM     19  C   UNL     1       2.423   6.795  19.573  0.00  0.00    +0.000 A 
ATOM     20  N   UNL     1       1.861   6.192  20.654  0.00  0.00    +0.000 NA
ATOM     21  N   UNL     1       1.033   7.061  21.212  0.00  0.00    +0.000 NA
BRANCH  19  22
ATOM     22  C   UNL     1       3.370   6.165  18.684  0.00  0.00    +0.000 A 
ATOM     23  C   UNL     1       4.354   6.923  18.054  0.00  0.00    +0.000 A 
ATOM     24  C   UNL     1       5.262   6.318  17.182  0.00  0.00    +0.000 A 
ATOM     25  C   UNL     1       5.166   4.931  16.909  0.00  0.00    +0.000 A 
ATOM     26  C   UNL     1       4.168   4.163  17.543  0.00  0.00    +0.000 A 
ATOM     27  C   UNL     1       3.302   4.791  18.443  0.00  0.00    +0.000 A 
BRANCH  24  28
ATOM     28  O   UNL     1       6.257   7.021  16.540  0.00  0.00    +0.000 OA
ATOM     29  C   UNL     1       7.334   7.468  17.362  0.00  0.00    +0.000 C 
ENDBRANCH  24  28
BRANCH  25  30
ATOM     30  O   UNL     1       6.048   4.457  15.963  0.00  0.00    +0.000 OA
ATOM     31  C   UNL     1       5.584   4.399  14.621  0.00  0.00    +0.000 C 
ENDBRANCH  25  30
BRANCH  26  32
ATOM     32  O   UNL     1       4.053   2.832  17.234  0.00  0.00    +0.000 OA
ATOM     33  C   UNL     1       3.087   2.061  17.940  0.00  0.00    +0.000 C 
ENDBRANCH  26  32
ENDBRANCH  19  22
ENDBRANCH   6  17
BRANCH   1  35
ATOM     34  C   UNL     1      -1.132  10.161  17.820  0.00  0.00    +0.000 C 
ATOM     35  O   UNL     1       0.026  10.199  18.656  0.00  0.00    +0.000 OA
ENDBRANCH   1  35
TORSDOF 7
ENDMDL
MODEL 4
REMARK VINA RESULT:      -8.0      5.021     12.091
REMARK  Name = 
REMARK  11 active torsions:
REMARK  status: ('A' for Active; 'I' for Inactive)
REMARK    1  A    between atoms: C_1  and  O_2
REMARK    2  A    between atoms: O_2  and  C_3
REMARK    3  A    between atoms: C_5  and  C_6
REMARK    4  A    between atoms: C_18  and  N_19
REMARK    5  A    between atoms: C_21  and  C_22
REMARK    6  A    between atoms: C_24  and  O_25
REMARK    7  A    between atoms: O_25  and  C_26
REMARK    8  A    between atoms: C_27  and  O_28
REMARK    9  A    between atoms: O_28  and  C_29
REMARK   10  A    between atoms: C_30  and  O_31
REMARK   11  A    between atoms: O_31  and  C_32
REMARK                            x       y       z     vdW  Elec       q    Type
REMARK                         _______ _______ _______ _____ _____    ______ ____
ROOT
ATOM      1  C   UNL     1       0.763  10.233  19.338  0.00  0.00    +0.000 A 
ATOM      2  C   UNL     1       1.574   9.366  18.578  0.00  0.00    +0.000 A 
ATOM      3  C   UNL     1       2.045   8.156  19.104  0.00  0.00    +0.000 A 
ATOM      4  C   UNL     1       1.752   7.860  20.440  0.00  0.00    +0.000 A 
ATOM      5  C   UNL     1       0.983   8.714  21.217  0.00  0.00    +0.000 A 
ATOM      6  C   UNL     1       0.463   9.899  20.674  0.00  0.00    +0.000 A 
ENDROOT
BRANCH   3   7
ATOM      7  C   UNL     1       2.808   7.150  18.349  0.00  0.00    +0.000 A 
ATOM      8  N   UNL     1       3.756   7.494  17.505  0.00  0.00    +0.000 NA
ATOM      9  C   UNL     1       4.366   6.389  16.974  0.00  0.00    +0.000 A 
ATOM     10  C   UNL     1       5.433   6.420  16.056  0.00  0.00    +0.000 A 
ATOM     11  C   UNL     1       5.962   5.219  15.580  0.00  0.00    +0.000 A 
ATOM     12  C   UNL     1       5.436   4.014  16.024  0.00  0.00    +0.000 A 
ATOM     13  F   UNL     1       5.954   2.870  15.560  0.00  0.00    +0.000 F 
ATOM     14  C   UNL     1       4.389   3.950  16.942  0.00  0.00    +0.000 A 
ATOM     15  C   UNL     1       3.863   5.163  17.409  0.00  0.00    +0.000 A 
ATOM     16  S   UNL     1       2.588   5.455  18.529  0.00  0.00    +0.000 S 
ENDBRANCH   3   7
BRANCH   6  17
ATOM     17  N   UNL     1      -0.365  10.674  21.527  0.00  0.00    +0.000 N 
ATOM     18  C   UNL     1      -1.333  11.598  21.232  0.00  0.00    +0.000 A 
ATOM     19  C   UNL     1      -1.792  12.037  22.451  0.00  0.00    +0.000 A 
ATOM     20  N   UNL     1      -1.159  11.362  23.447  0.00  0.00    +0.000 NA
ATOM     21  N   UNL     1      -0.289  10.538  22.883  0.00  0.00    +0.000 NA
BRANCH  19  22
ATOM     22  C   UNL     1      -2.802  13.046  22.660  0.00  0.00    +0.000 A 
ATOM     23  C   UNL     1      -2.568  14.365  22.274  0.00  0.00    +0.000 A 
ATOM     24  C   UNL     1      -3.538  15.347  22.490  0.00  0.00    +0.000 A 
ATOM     25  C   UNL     1      -4.755  15.012  23.133  0.00  0.00    +0.000 A 
ATOM     26  C   UNL     1      -4.991  13.679  23.527  0.00  0.00    +0.000 A 
ATOM     27  C   UNL     1      -4.019  12.712  23.258  0.00  0.00    +0.000 A 
BRANCH  24  28
ATOM     28  O   UNL     1      -3.359  16.661  22.120  0.00  0.00    +0.000 OA
ATOM     29  C   UNL     1      -3.435  16.932  20.722  0.00  0.00    +0.000 C 
ENDBRANCH  24  28
BRANCH  25  30
ATOM     30  O   UNL     1      -5.598  16.072  23.381  0.00  0.00    +0.000 OA
ATOM     31  C   UNL     1      -5.411  16.771  24.605  0.00  0.00    +0.000 C 
ENDBRANCH  25  30
BRANCH  26  32
ATOM     32  O   UNL     1      -6.152  13.375  24.192  0.00  0.00    +0.000 OA
ATOM     33  C   UNL     1      -7.091  12.522  23.546  0.00  0.00    +0.000 C 
ENDBRANCH  26  32
ENDBRANCH  19  22
ENDBRANCH   6  17
BRANCH   1  35
ATOM     34  C   UNL     1       1.281  12.472  18.734  0.00  0.00    +0.000 C 
ATOM     35  O   UNL     1       0.319  11.418  18.815  0.00  0.00    +0.000 OA
ENDBRANCH   1  35
TORSDOF 7
ENDMDL
MODEL 5
REMARK VINA RESULT:      -7.9      1.861      2.764
REMARK  Name = 
REMARK  11 active torsions:
REMARK  status: ('A' for Active; 'I' for Inactive)
REMARK    1  A    between atoms: C_1  and  O_2
REMARK    2  A    between atoms: O_2  and  C_3
REMARK    3  A    between atoms: C_5  and  C_6
REMARK    4  A    between atoms: C_18  and  N_19
REMARK    5  A    between atoms: C_21  and  C_22
REMARK    6  A    between atoms: C_24  and  O_25
REMARK    7  A    between atoms: O_25  and  C_26
REMARK    8  A    between atoms: C_27  and  O_28
REMARK    9  A    between atoms: O_28  and  C_29
REMARK   10  A    between atoms: C_30  and  O_31
REMARK   11  A    between atoms: O_31  and  C_32
REMARK                            x       y       z     vdW  Elec       q    Type
REMARK                         _______ _______ _______ _____ _____    ______ ____
ROOT
ATOM      1  C   UNL     1      -1.055  11.358  19.707  0.00  0.00    +0.000 A 
ATOM      2  C   UNL     1      -1.834  12.321  20.378  0.00  0.00    +0.000 A 
ATOM      3  C   UNL     1      -1.667  12.572  21.746  0.00  0.00    +0.000 A 
ATOM      4  C   UNL     1      -0.752  11.785  22.454  0.00  0.00    +0.000 A 
ATOM      5  C   UNL     1       0.002  10.807  21.820  0.00  0.00    +0.000 A 
ATOM      6  C   UNL     1      -0.124  10.594  20.439  0.00  0.00    +0.000 A 
ENDROOT
BRANCH   3   7
ATOM      7  C   UNL     1      -2.363  13.627  22.500  0.00  0.00    +0.000 A 
ATOM      8  N   UNL     1      -3.614  13.944  22.246  0.00  0.00    +0.000 NA
ATOM      9  C   UNL     1      -4.064  14.902  23.116  0.00  0.00    +0.000 A 
ATOM     10  C   UNL     1      -5.365  15.438  23.120  0.00  0.00    +0.000 A 
ATOM     11  C   UNL     1      -5.697  16.421  24.055  0.00  0.00    +0.000 A 
ATOM     12  C   UNL     1      -4.745  16.848  24.969  0.00  0.00    +0.000 A 
ATOM     13  F   UNL     1      -5.077  17.790  25.861  0.00  0.00    +0.000 F 
ATOM     14  C   UNL     1      -3.452  16.326  24.998  0.00  0.00    +0.000 A 
ATOM     15  C   UNL     1      -3.130  15.344  24.052  0.00  0.00    +0.000 A 
ATOM     16  S   UNL     1      -1.652  14.495  23.802  0.00  0.00    +0.000 S 
ENDBRANCH   3   7
BRANCH   6  17
ATOM     17  N   UNL     1       0.735   9.618  19.870  0.00  0.00    +0.000 N 
ATOM     18  C   UNL     1       1.032   8.344  20.278  0.00  0.00    +0.000 A 
ATOM     19  C   UNL     1       1.931   7.872  19.352  0.00  0.00    +0.000 A 
ATOM     20  N   UNL     1       2.131   8.812  18.390  0.00  0.00    +0.000 NA
ATOM     21  N   UNL     1       1.407   9.873  18.710  0.00  0.00    +0.000 NA
BRANCH  19  22
ATOM     22  C   UNL     1       2.565   6.576  19.374  0.00  0.00    +0.000 A 
ATOM     23  C   UNL     1       2.214   5.638  20.343  0.00  0.00    +0.000 A 
ATOM     24  C   UNL     1       2.836   4.388  20.376  0.00  0.00    +0.000 A 
ATOM     25  C   UNL     1       3.854   4.079  19.440  0.00  0.00    +0.000 A 
ATOM     26  C   UNL     1       4.212   5.028  18.461  0.00  0.00    +0.000 A 
ATOM     27  C   UNL     1       3.541   6.252  18.429  0.00  0.00    +0.000 A 
BRANCH  24  28
ATOM     28  O   UNL     1       2.520   3.425  21.308  0.00  0.00    +0.000 OA
ATOM     29  C   UNL     1       1.213   2.864  21.206  0.00  0.00    +0.000 C 
ENDBRANCH  24  28
BRANCH  25  30
ATOM     30  O   UNL     1       4.466   2.859  19.622  0.00  0.00    +0.000 OA
ATOM     31  C   UNL     1       3.924   1.754  18.910  0.00  0.00    +0.000 C 
ENDBRANCH  25  30
BRANCH  26  32
ATOM     32  O   UNL     1       5.232   4.736  17.591  0.00  0.00    +0.000 OA
ATOM     33  C   UNL     1       4.891   4.234  16.303  0.00  0.00    +0.000 C 
ENDBRANCH  26  32
ENDBRANCH  19  22
ENDBRANCH   6  17
BRANCH   1  35
ATOM     34  C   UNL     1      -2.266  10.182  18.034  0.00  0.00    +0.000 C 
ATOM     35  O   UNL     1      -1.238  11.114  18.371  0.00  0.00    +0.000 OA
ENDBRANCH   1  35
TORSDOF 7
ENDMDL
MODEL 6
REMARK VINA RESULT:      -7.9      4.983     11.931
REMARK  Name = 
REMARK  11 active torsions:
REMARK  status: ('A' for Active; 'I' for Inactive)
REMARK    1  A    between atoms: C_1  and  O_2
REMARK    2  A    between atoms: O_2  and  C_3
REMARK    3  A    between atoms: C_5  and  C_6
REMARK    4  A    between atoms: C_18  and  N_19
REMARK    5  A    between atoms: C_21  and  C_22
REMARK    6  A    between atoms: C_24  and  O_25
REMARK    7  A    between atoms: O_25  and  C_26
REMARK    8  A    between atoms: C_27  and  O_28
REMARK    9  A    between atoms: O_28  and  C_29
REMARK   10  A    between atoms: C_30  and  O_31
REMARK   11  A    between atoms: O_31  and  C_32
REMARK                            x       y       z     vdW  Elec       q    Type
REMARK                         _______ _______ _______ _____ _____    ______ ____
ROOT
ATOM      1  C   UNL     1       0.855  10.422  19.214  0.00  0.00    +0.000 A 
ATOM      2  C   UNL     1       1.671   9.526  18.493  0.00  0.00    +0.000 A 
ATOM      3  C   UNL     1       2.031   8.279  19.021  0.00  0.00    +0.000 A 
ATOM      4  C   UNL     1       1.620   7.970  20.322  0.00  0.00    +0.000 A 
ATOM      5  C   UNL     1       0.845   8.851  21.063  0.00  0.00    +0.000 A 
ATOM      6  C   UNL     1       0.436  10.076  20.514  0.00  0.00    +0.000 A 
ENDROOT
BRANCH   3   7
ATOM      7  C   UNL     1       2.790   7.247  18.297  0.00  0.00    +0.000 A 
ATOM      8  N   UNL     1       3.731   7.561  17.434  0.00  0.00    +0.000 NA
ATOM      9  C   UNL     1       4.340   6.438  16.941  0.00  0.00    +0.000 A 
ATOM     10  C   UNL     1       5.400   6.437  16.014  0.00  0.00    +0.000 A 
ATOM     11  C   UNL     1       5.927   5.220  15.579  0.00  0.00    +0.000 A 
ATOM     12  C   UNL     1       5.407   4.031  16.071  0.00  0.00    +0.000 A 
ATOM     13  F   UNL     1       5.924   2.872  15.647  0.00  0.00    +0.000 F 
ATOM     14  C   UNL     1       4.367   4.000  16.999  0.00  0.00    +0.000 A 
ATOM     15  C   UNL     1       3.842   5.228  17.424  0.00  0.00    +0.000 A 
ATOM     16  S   UNL     1       2.575   5.559  18.543  0.00  0.00    +0.000 S 
ENDBRANCH   3   7
BRANCH   6  17
ATOM     17  N   UNL     1      -0.409  10.880  21.324  0.00  0.00    +0.000 N 
ATOM     18  C   UNL     1      -1.552  11.568  21.012  0.00  0.00    +0.000 A 
ATOM     19  C   UNL     1      -1.934  12.176  22.183  0.00  0.00    +0.000 A 
ATOM     20  N   UNL     1      -1.078  11.825  23.180  0.00  0.00    +0.000 NA
ATOM     21  N   UNL     1      -0.150  11.041  22.654  0.00  0.00    +0.000 NA
BRANCH  19  22
ATOM     22  C   UNL     1      -3.074  13.045  22.352  0.00  0.00    +0.000 A 
ATOM     23  C   UNL     1      -4.331  12.650  21.898  0.00  0.00    +0.000 A 
ATOM     24  C   UNL     1      -5.433  13.496  22.046  0.00  0.00    +0.000 A 
ATOM     25  C   UNL     1      -5.271  14.776  22.632  0.00  0.00    +0.000 A 
ATOM     26  C   UNL     1      -3.999  15.177  23.089  0.00  0.00    +0.000 A 
ATOM     27  C   UNL     1      -2.926  14.291  22.964  0.00  0.00    +0.000 A 
BRANCH  24  28
ATOM     28  O   UNL     1      -6.697  13.150  21.622  0.00  0.00    +0.000 OA
ATOM     29  C   UNL     1      -6.769  12.076  20.687  0.00  0.00    +0.000 C 
ENDBRANCH  24  28
BRANCH  25  30
ATOM     30  O   UNL     1      -6.401  15.563  22.642  0.00  0.00    +0.000 OA
ATOM     31  C   UNL     1      -7.210  15.514  23.810  0.00  0.00    +0.000 C 
ENDBRANCH  25  30
BRANCH  26  32
ATOM     32  O   UNL     1      -3.844  16.436  23.609  0.00  0.00    +0.000 OA
ATOM     33  C   UNL     1      -3.784  16.573  25.025  0.00  0.00    +0.000 C 
ENDBRANCH  26  32
ENDBRANCH  19  22
ENDBRANCH   6  17
BRANCH   1  35
ATOM     34  C   UNL     1       1.533  12.650  18.741  0.00  0.00    +0.000 C 
ATOM     35  O   UNL     1       0.521  11.643  18.691  0.00  0.00    +0.000 OA
ENDBRANCH   1  35
TORSDOF 7
ENDMDL
MODEL 7
REMARK VINA RESULT:      -7.9      1.763      2.180
REMARK  Name = 
REMARK  11 active torsions:
REMARK  status: ('A' for Active; 'I' for Inactive)
REMARK    1  A    between atoms: C_1  and  O_2
REMARK    2  A    between atoms: O_2  and  C_3
REMARK    3  A    between atoms: C_5  and  C_6
REMARK    4  A    between atoms: C_18  and  N_19
REMARK    5  A    between atoms: C_21  and  C_22
REMARK    6  A    between atoms: C_24  and  O_25
REMARK    7  A    between atoms: O_25  and  C_26
REMARK    8  A    between atoms: C_27  and  O_28
REMARK    9  A    between atoms: O_28  and  C_29
REMARK   10  A    between atoms: C_30  and  O_31
REMARK   11  A    between atoms: O_31  and  C_32
REMARK                            x       y       z     vdW  Elec       q    Type
REMARK                         _______ _______ _______ _____ _____    ______ ____
ROOT
ATOM      1  C   UNL     1      -0.630  10.667  19.624  0.00  0.00    +0.000 A 
ATOM      2  C   UNL     1      -1.398  11.618  20.325  0.00  0.00    +0.000 A 
ATOM      3  C   UNL     1      -1.210  11.843  21.695  0.00  0.00    +0.000 A 
ATOM      4  C   UNL     1      -0.287  11.040  22.374  0.00  0.00    +0.000 A 
ATOM      5  C   UNL     1       0.456  10.073  21.711  0.00  0.00    +0.000 A 
ATOM      6  C   UNL     1       0.310   9.887  20.327  0.00  0.00    +0.000 A 
ENDROOT
BRANCH   3   7
ATOM      7  C   UNL     1      -1.893  12.884  22.479  0.00  0.00    +0.000 A 
ATOM      8  N   UNL     1      -1.282  13.530  23.447  0.00  0.00    +0.000 NA
ATOM      9  C   UNL     1      -2.094  14.493  23.984  0.00  0.00    +0.000 A 
ATOM     10  C   UNL     1      -1.727  15.369  25.023  0.00  0.00    +0.000 A 
ATOM     11  C   UNL     1      -2.654  16.303  25.491  0.00  0.00    +0.000 A 
ATOM     12  C   UNL     1      -3.918  16.359  24.922  0.00  0.00    +0.000 A 
ATOM     13  F   UNL     1      -4.796  17.260  25.380  0.00  0.00    +0.000 F 
ATOM     14  C   UNL     1      -4.307  15.514  23.884  0.00  0.00    +0.000 A 
ATOM     15  C   UNL     1      -3.369  14.578  23.426  0.00  0.00    +0.000 A 
ATOM     16  S   UNL     1      -3.506  13.397  22.180  0.00  0.00    +0.000 S 
ENDBRANCH   3   7
BRANCH   6  17
ATOM     17  N   UNL     1       1.159   8.921  19.727  0.00  0.00    +0.000 N 
ATOM     18  C   UNL     1       1.512   7.663  20.142  0.00  0.00    +0.000 A 
ATOM     19  C   UNL     1       2.367   7.194  19.173  0.00  0.00    +0.000 A 
ATOM     20  N   UNL     1       2.484   8.118  18.182  0.00  0.00    +0.000 NA
ATOM     21  N   UNL     1       1.753   9.168  18.524  0.00  0.00    +0.000 NA
BRANCH  19  22
ATOM     22  C   UNL     1       3.033   5.915  19.183  0.00  0.00    +0.000 A 
ATOM     23  C   UNL     1       2.291   4.736  19.242  0.00  0.00    +0.000 A 
ATOM     24  C   UNL     1       2.935   3.496  19.266  0.00  0.00    +0.000 A 
ATOM     25  C   UNL     1       4.351   3.433  19.263  0.00  0.00    +0.000 A 
ATOM     26  C   UNL     1       5.102   4.624  19.206  0.00  0.00    +0.000 A 
ATOM     27  C   UNL     1       4.428   5.846  19.140  0.00  0.00    +0.000 A 
BRANCH  24  28
ATOM     28  O   UNL     1       2.248   2.304  19.317  0.00  0.00    +0.000 OA
ATOM     29  C   UNL     1       0.862   2.369  18.991  0.00  0.00    +0.000 C 
ENDBRANCH  24  28
BRANCH  25  30
ATOM     30  O   UNL     1       4.880   2.168  19.385  0.00  0.00    +0.000 OA
ATOM     31  C   UNL     1       5.032   1.658  20.704  0.00  0.00    +0.000 C 
ENDBRANCH  25  30
BRANCH  26  32
ATOM     32  O   UNL     1       6.471   4.553  19.253  0.00  0.00    +0.000 OA
ATOM     33  C   UNL     1       7.192   4.707  18.035  0.00  0.00    +0.000 C 
ENDBRANCH  26  32
ENDBRANCH  19  22
ENDBRANCH   6  17
BRANCH   1  35
ATOM     34  C   UNL     1      -2.171  10.144  17.892  0.00  0.00    +0.000 C 
ATOM     35  O   UNL     1      -0.832  10.450  18.286  0.00  0.00    +0.000 OA
ENDBRANCH   1  35
TORSDOF 7
ENDMDL
MODEL 8
REMARK VINA RESULT:      -7.9      2.007      2.457
REMARK  Name = 
REMARK  11 active torsions:
REMARK  status: ('A' for Active; 'I' for Inactive)
REMARK    1  A    between atoms: C_1  and  O_2
REMARK    2  A    between atoms: O_2  and  C_3
REMARK    3  A    between atoms: C_5  and  C_6
REMARK    4  A    between atoms: C_18  and  N_19
REMARK    5  A    between atoms: C_21  and  C_22
REMARK    6  A    between atoms: C_24  and  O_25
REMARK    7  A    between atoms: O_25  and  C_26
REMARK    8  A    between atoms: C_27  and  O_28
REMARK    9  A    between atoms: O_28  and  C_29
REMARK   10  A    between atoms: C_30  and  O_31
REMARK   11  A    between atoms: O_31  and  C_32
REMARK                            x       y       z     vdW  Elec       q    Type
REMARK                         _______ _______ _______ _____ _____    ______ ____
ROOT
ATOM      1  C   UNL     1      -0.899  10.961  19.375  0.00  0.00    +0.000 A 
ATOM      2  C   UNL     1      -1.670  11.894  20.095  0.00  0.00    +0.000 A 
ATOM      3  C   UNL     1      -1.354  12.242  21.415  0.00  0.00    +0.000 A 
ATOM      4  C   UNL     1      -0.288  11.579  22.034  0.00  0.00    +0.000 A 
ATOM      5  C   UNL     1       0.464  10.631  21.355  0.00  0.00    +0.000 A 
ATOM      6  C   UNL     1       0.184  10.324  20.015  0.00  0.00    +0.000 A 
ENDROOT
BRANCH   3   7
ATOM      7  C   UNL     1      -2.042  13.278  22.201  0.00  0.00    +0.000 A 
ATOM      8  N   UNL     1      -3.326  13.517  22.052  0.00  0.00    +0.000 NA
ATOM      9  C   UNL     1      -3.753  14.474  22.934  0.00  0.00    +0.000 A 
ATOM     10  C   UNL     1      -5.079  14.937  23.041  0.00  0.00    +0.000 A 
ATOM     11  C   UNL     1      -5.384  15.927  23.976  0.00  0.00    +0.000 A 
ATOM     12  C   UNL     1      -4.381  16.435  24.790  0.00  0.00    +0.000 A 
ATOM     13  F   UNL     1      -4.689  17.384  25.684  0.00  0.00    +0.000 F 
ATOM     14  C   UNL     1      -3.063  15.988  24.717  0.00  0.00    +0.000 A 
ATOM     15  C   UNL     1      -2.768  14.997  23.770  0.00  0.00    +0.000 A 
ATOM     16  S   UNL     1      -1.271  14.225  23.411  0.00  0.00    +0.000 S 
ENDBRANCH   3   7
BRANCH   6  17
ATOM     17  N   UNL     1       1.049   9.391  19.387  0.00  0.00    +0.000 N 
ATOM     18  C   UNL     1       1.290   8.070  19.664  0.00  0.00    +0.000 A 
ATOM     19  C   UNL     1       2.228   7.676  18.741  0.00  0.00    +0.000 A 
ATOM     20  N   UNL     1       2.506   8.710  17.902  0.00  0.00    +0.000 NA
ATOM     21  N   UNL     1       1.792   9.752  18.300  0.00  0.00    +0.000 NA
BRANCH  19  22
ATOM     22  C   UNL     1       2.826   6.366  18.650  0.00  0.00    +0.000 A 
ATOM     23  C   UNL     1       2.064   5.272  18.246  0.00  0.00    +0.000 A 
ATOM     24  C   UNL     1       2.637   4.000  18.172  0.00  0.00    +0.000 A 
ATOM     25  C   UNL     1       3.992   3.810  18.539  0.00  0.00    +0.000 A 
ATOM     26  C   UNL     1       4.763   4.916  18.951  0.00  0.00    +0.000 A 
ATOM     27  C   UNL     1       4.172   6.182  18.974  0.00  0.00    +0.000 A 
BRANCH  24  28
ATOM     28  O   UNL     1       1.929   2.889  17.771  0.00  0.00    +0.000 OA
ATOM     29  C   UNL     1       0.896   2.455  18.654  0.00  0.00    +0.000 C 
ENDBRANCH  24  28
BRANCH  25  30
ATOM     30  O   UNL     1       4.427   2.504  18.521  0.00  0.00    +0.000 OA
ATOM     31  C   UNL     1       4.442   1.812  19.763  0.00  0.00    +0.000 C 
ENDBRANCH  25  30
BRANCH  26  32
ATOM     32  O   UNL     1       6.059   4.713  19.351  0.00  0.00    +0.000 OA
ATOM     33  C   UNL     1       7.032   5.688  18.991  0.00  0.00    +0.000 C 
ENDBRANCH  26  32
ENDBRANCH  19  22
ENDBRANCH   6  17
BRANCH   1  35
ATOM     34  C   UNL     1      -2.159  11.479  17.428  0.00  0.00    +0.000 C 
ATOM     35  O   UNL     1      -1.227  10.621  18.089  0.00  0.00    +0.000 OA
ENDBRANCH   1  35
TORSDOF 7
ENDMDL
MODEL 9
REMARK VINA RESULT:      -7.8      4.980     11.879
REMARK  Name = 
REMARK  11 active torsions:
REMARK  status: ('A' for Active; 'I' for Inactive)
REMARK    1  A    between atoms: C_1  and  O_2
REMARK    2  A    between atoms: O_2  and  C_3
REMARK    3  A    between atoms: C_5  and  C_6
REMARK    4  A    between atoms: C_18  and  N_19
REMARK    5  A    between atoms: C_21  and  C_22
REMARK    6  A    between atoms: C_24  and  O_25
REMARK    7  A    between atoms: O_25  and  C_26
REMARK    8  A    between atoms: C_27  and  O_28
REMARK    9  A    between atoms: O_28  and  C_29
REMARK   10  A    between atoms: C_30  and  O_31
REMARK   11  A    between atoms: O_31  and  C_32
REMARK                            x       y       z     vdW  Elec       q    Type
REMARK                         _______ _______ _______ _____ _____    ______ ____
ROOT
ATOM      1  C   UNL     1       0.774  10.074  19.436  0.00  0.00    +0.000 A 
ATOM      2  C   UNL     1       1.586   9.242  18.640  0.00  0.00    +0.000 A 
ATOM      3  C   UNL     1       2.084   8.025  19.126  0.00  0.00    +0.000 A 
ATOM      4  C   UNL     1       1.816   7.688  20.457  0.00  0.00    +0.000 A 
ATOM      5  C   UNL     1       1.046   8.508  21.269  0.00  0.00    +0.000 A 
ATOM      6  C   UNL     1       0.499   9.699  20.766  0.00  0.00    +0.000 A 
ENDROOT
BRANCH   3   7
ATOM      7  C   UNL     1       2.851   7.052  18.332  0.00  0.00    +0.000 A 
ATOM      8  N   UNL     1       3.740   7.436  17.443  0.00  0.00    +0.000 NA
ATOM      9  C   UNL     1       4.371   6.358  16.881  0.00  0.00    +0.000 A 
ATOM     10  C   UNL     1       5.388   6.435  15.911  0.00  0.00    +0.000 A 
ATOM     11  C   UNL     1       5.944   5.258  15.407  0.00  0.00    +0.000 A 
ATOM     12  C   UNL     1       5.493   4.032  15.875  0.00  0.00    +0.000 A 
ATOM     13  F   UNL     1       6.036   2.910  15.384  0.00  0.00    +0.000 F 
ATOM     14  C   UNL     1       4.497   3.923  16.844  0.00  0.00    +0.000 A 
ATOM     15  C   UNL     1       3.943   5.113  17.338  0.00  0.00    +0.000 A 
ATOM     16  S   UNL     1       2.713   5.349  18.521  0.00  0.00    +0.000 S 
ENDBRANCH   3   7
BRANCH   6  17
ATOM     17  N   UNL     1      -0.328  10.437  21.652  0.00  0.00    +0.000 N 
ATOM     18  C   UNL     1      -0.974  11.634  21.482  0.00  0.00    +0.000 A 
ATOM     19  C   UNL     1      -1.614  11.868  22.675  0.00  0.00    +0.000 A 
ATOM     20  N   UNL     1      -1.403  10.823  23.519  0.00  0.00    +0.000 NA
ATOM     21  N   UNL     1      -0.618   9.958  22.897  0.00  0.00    +0.000 NA
BRANCH  19  22
ATOM     22  C   UNL     1      -2.405  13.032  22.995  0.00  0.00    +0.000 A 
ATOM     23  C   UNL     1      -3.763  12.901  23.281  0.00  0.00    +0.000 A 
ATOM     24  C   UNL     1      -4.535  14.027  23.577  0.00  0.00    +0.000 A 
ATOM     25  C   UNL     1      -3.946  15.316  23.555  0.00  0.00    +0.000 A 
ATOM     26  C   UNL     1      -2.573  15.449  23.263  0.00  0.00    +0.000 A 
ATOM     27  C   UNL     1      -1.820  14.300  23.013  0.00  0.00    +0.000 A 
BRANCH  24  28
ATOM     28  O   UNL     1      -5.877  13.951  23.873  0.00  0.00    +0.000 OA
ATOM     29  C   UNL     1      -6.409  12.636  24.025  0.00  0.00    +0.000 C 
ENDBRANCH  24  28
BRANCH  25  30
ATOM     30  O   UNL     1      -4.816  16.361  23.766  0.00  0.00    +0.000 OA
ATOM     31  C   UNL     1      -4.725  17.033  25.016  0.00  0.00    +0.000 C 
ENDBRANCH  25  30
BRANCH  26  32
ATOM     32  O   UNL     1      -2.024  16.705  23.197  0.00  0.00    +0.000 OA
ATOM     33  C   UNL     1      -1.847  17.292  21.912  0.00  0.00    +0.000 C 
ENDBRANCH  26  32
ENDBRANCH  19  22
ENDBRANCH   6  17
BRANCH   1  35
ATOM     34  C   UNL     1       1.289  12.245  18.620  0.00  0.00    +0.000 C 
ATOM     35  O   UNL     1       0.303  11.266  18.952  0.00  0.00    +0.000 OA
ENDBRANCH   1  35
TORSDOF 7
ENDMDL
