MODEL 1
REMARK VINA RESULT:      -7.1      0.000      0.000
REMARK  Name = 
REMARK  5 active torsions:
REMARK  status: ('A' for Active; 'I' for Inactive)
REMARK    1  A    between atoms: C_2  and  C_4
REMARK    2  A    between atoms: C_4  and  C_5
REMARK    3  A    between atoms: C_5  and  C_6
REMARK    4  A    between atoms: C_6  and  C_7
REMARK    5  A    between atoms: C_9  and  C_10
REMARK                            x       y       z     vdW  Elec       q    Type
REMARK                         _______ _______ _______ _____ _____    ______ ____
ROOT
ATOM      1  C   UNL     1       3.264   2.990  18.469  0.00  0.00    +0.000 A 
ATOM      2  N   UNL     1       3.767   4.078  17.935  0.00  0.00    +0.000 NA
ATOM      3  C   UNL     1       4.980   4.196  18.586  0.00  0.00    +0.000 A 
ATOM      4  N   UNL     1       5.217   3.213  19.471  0.00  0.00    +0.000 NA
ATOM      5  O   UNL     1       4.078   2.414  19.396  0.00  0.00    +0.000 OA
ENDROOT
BRANCH   3   6
ATOM      6  C   UNL     1       5.903   5.295  18.318  0.00  0.00    +0.000 A 
ATOM      7  C   UNL     1       5.615   6.231  17.312  0.00  0.00    +0.000 A 
ATOM      8  C   UNL     1       6.495   7.283  17.046  0.00  0.00    +0.000 A 
ATOM      9  C   UNL     1       7.671   7.412  17.781  0.00  0.00    +0.000 A 
ATOM     10  C   UNL     1       7.969   6.492  18.785  0.00  0.00    +0.000 A 
ATOM     11  C   UNL     1       7.089   5.440  19.053  0.00  0.00    +0.000 A 
ENDBRANCH   3   6
BRANCH   1  12
ATOM     12  C   UNL     1       1.958   2.338  18.225  0.00  0.00    +0.000 C 
BRANCH  12  13
ATOM     13  C   UNL     1       1.098   2.359  19.486  0.00  0.00    +0.000 C 
BRANCH  13  14
ATOM     14  C   UNL     1       0.931   3.773  20.037  0.00  0.00    +0.000 C 
BRANCH  14  16
ATOM     15  N   UNL     1       2.431   5.246  21.234  0.00  0.00    +0.000 N 
ATOM     16  C   UNL     1       1.838   4.018  21.223  0.00  0.00    +0.000 C 
ATOM     17  O   UNL     1       2.049   3.213  22.121  0.00  0.00    +0.000 OA
ATOM     18  H   UNL     1       3.053   5.457  22.005  0.00  0.00    +0.000 HD
ATOM     19  H   UNL     1       2.302   5.934  20.508  0.00  0.00    +0.000 HD
ENDBRANCH  14  16
ENDBRANCH  13  14
ENDBRANCH  12  13
ENDBRANCH   1  12
TORSDOF 5
ENDMDL
MODEL 2
REMARK VINA RESULT:      -7.0      3.680      6.622
REMARK  Name = 
REMARK  5 active torsions:
REMARK  status: ('A' for Active; 'I' for Inactive)
REMARK    1  A    between atoms: C_2  and  C_4
REMARK    2  A    between atoms: C_4  and  C_5
REMARK    3  A    between atoms: C_5  and  C_6
REMARK    4  A    between atoms: C_6  and  C_7
REMARK    5  A    between atoms: C_9  and  C_10
REMARK                            x       y       z     vdW  Elec       q    Type
REMARK                         _______ _______ _______ _____ _____    ______ ____
ROOT
ATOM      1  C   UNL     1       5.908   4.454  16.585  0.00  0.00    +0.000 A 
ATOM      2  N   UNL     1       4.623   4.394  16.842  0.00  0.00    +0.000 NA
ATOM      3  C   UNL     1       4.599   4.264  18.217  0.00  0.00    +0.000 A 
ATOM      4  N   UNL     1       5.819   4.261  18.781  0.00  0.00    +0.000 NA
ATOM      5  O   UNL     1       6.687   4.384  17.700  0.00  0.00    +0.000 OA
ENDROOT
BRANCH   3   6
ATOM      6  C   UNL     1       3.351   4.146  18.966  0.00  0.00    +0.000 A 
ATOM      7  C   UNL     1       3.011   5.110  19.928  0.00  0.00    +0.000 A 
ATOM      8  C   UNL     1       1.821   5.003  20.653  0.00  0.00    +0.000 A 
ATOM      9  C   UNL     1       0.960   3.933  20.426  0.00  0.00    +0.000 A 
ATOM     10  C   UNL     1       1.283   2.969  19.472  0.00  0.00    +0.000 A 
ATOM     11  C   UNL     1       2.472   3.076  18.745  0.00  0.00    +0.000 A 
ENDBRANCH   3   6
BRANCH   1  12
ATOM     12  C   UNL     1       6.606   4.559  15.284  0.00  0.00    +0.000 C 
BRANCH  12  13
ATOM     13  C   UNL     1       5.663   4.212  14.134  0.00  0.00    +0.000 C 
BRANCH  13  14
ATOM     14  C   UNL     1       6.418   3.678  12.920  0.00  0.00    +0.000 C 
BRANCH  14  16
ATOM     15  N   UNL     1       5.999   1.706  11.584  0.00  0.00    +0.000 N 
ATOM     16  C   UNL     1       5.504   2.908  11.992  0.00  0.00    +0.000 C 
ATOM     17  O   UNL     1       4.404   3.294  11.615  0.00  0.00    +0.000 OA
ATOM     18  H   UNL     1       5.427   1.154  10.957  0.00  0.00    +0.000 HD
ATOM     19  H   UNL     1       6.906   1.355  11.853  0.00  0.00    +0.000 HD
ENDBRANCH  14  16
ENDBRANCH  13  14
ENDBRANCH  12  13
ENDBRANCH   1  12
TORSDOF 5
ENDMDL
MODEL 3
REMARK VINA RESULT:      -7.0      0.319      1.211
REMARK  Name = 
REMARK  5 active torsions:
REMARK  status: ('A' for Active; 'I' for Inactive)
REMARK    1  A    between atoms: C_2  and  C_4
REMARK    2  A    between atoms: C_4  and  C_5
REMARK    3  A    between atoms: C_5  and  C_6
REMARK    4  A    between atoms: C_6  and  C_7
REMARK    5  A    between atoms: C_9  and  C_10
REMARK                            x       y       z     vdW  Elec       q    Type
REMARK                         _______ _______ _______ _____ _____    ______ ____
ROOT
ATOM      1  C   UNL     1       3.198   3.290  18.286  0.00  0.00    +0.000 A 
ATOM      2  N   UNL     1       3.776   4.368  17.813  0.00  0.00    +0.000 NA
ATOM      3  C   UNL     1       4.971   4.393  18.506  0.00  0.00    +0.000 A 
ATOM      4  N   UNL     1       5.126   3.363  19.356  0.00  0.00    +0.000 NA
ATOM      5  O   UNL     1       3.949   2.633  19.213  0.00  0.00    +0.000 OA
ENDROOT
BRANCH   3   6
ATOM      6  C   UNL     1       5.961   5.449  18.312  0.00  0.00    +0.000 A 
ATOM      7  C   UNL     1       7.116   5.489  19.110  0.00  0.00    +0.000 A 
ATOM      8  C   UNL     1       8.066   6.499  18.935  0.00  0.00    +0.000 A 
ATOM      9  C   UNL     1       7.874   7.478  17.963  0.00  0.00    +0.000 A 
ATOM     10  C   UNL     1       6.733   7.449  17.161  0.00  0.00    +0.000 A 
ATOM     11  C   UNL     1       5.783   6.439  17.335  0.00  0.00    +0.000 A 
ENDBRANCH   3   6
BRANCH   1  12
ATOM     12  C   UNL     1       1.867   2.721  17.976  0.00  0.00    +0.000 C 
BRANCH  12  13
ATOM     13  C   UNL     1       1.128   2.340  19.256  0.00  0.00    +0.000 C 
BRANCH  13  14
ATOM     14  C   UNL     1       0.823   3.561  20.120  0.00  0.00    +0.000 C 
BRANCH  14  16
ATOM     15  N   UNL     1       2.574   4.732  21.308  0.00  0.00    +0.000 N 
ATOM     16  C   UNL     1       1.752   3.645  21.312  0.00  0.00    +0.000 C 
ATOM     17  O   UNL     1       1.794   2.830  22.225  0.00  0.00    +0.000 OA
ATOM     18  H   UNL     1       3.220   4.831  22.082  0.00  0.00    +0.000 HD
ATOM     19  H   UNL     1       2.588   5.419  20.569  0.00  0.00    +0.000 HD
ENDBRANCH  14  16
ENDBRANCH  13  14
ENDBRANCH  12  13
ENDBRANCH   1  12
TORSDOF 5
ENDMDL
MODEL 4
REMARK VINA RESULT:      -7.0      1.274      1.536
REMARK  Name = 
REMARK  5 active torsions:
REMARK  status: ('A' for Active; 'I' for Inactive)
REMARK    1  A    between atoms: C_2  and  C_4
REMARK    2  A    between atoms: C_4  and  C_5
REMARK    3  A    between atoms: C_5  and  C_6
REMARK    4  A    between atoms: C_6  and  C_7
REMARK    5  A    between atoms: C_9  and  C_10
REMARK                            x       y       z     vdW  Elec       q    Type
REMARK                         _______ _______ _______ _____ _____    ______ ____
ROOT
ATOM      1  C   UNL     1       2.669   4.082  17.964  0.00  0.00    +0.000 A 
ATOM      2  N   UNL     1       3.970   4.103  18.132  0.00  0.00    +0.000 NA
ATOM      3  C   UNL     1       4.257   5.453  18.069  0.00  0.00    +0.000 A 
ATOM      4  N   UNL     1       3.174   6.228  17.885  0.00  0.00    +0.000 NA
ATOM      5  O   UNL     1       2.121   5.319  17.812  0.00  0.00    +0.000 OA
ENDROOT
BRANCH   3   6
ATOM      6  C   UNL     1       5.617   5.967  18.195  0.00  0.00    +0.000 A 
ATOM      7  C   UNL     1       6.062   7.002  17.358  0.00  0.00    +0.000 A 
ATOM      8  C   UNL     1       7.364   7.497  17.469  0.00  0.00    +0.000 A 
ATOM      9  C   UNL     1       8.235   6.964  18.416  0.00  0.00    +0.000 A 
ATOM     10  C   UNL     1       7.807   5.937  19.256  0.00  0.00    +0.000 A 
ATOM     11  C   UNL     1       6.504   5.442  19.147  0.00  0.00    +0.000 A 
ENDBRANCH   3   6
BRANCH   1  12
ATOM     12  C   UNL     1       1.747   2.926  17.892  0.00  0.00    +0.000 C 
BRANCH  12  13
ATOM     13  C   UNL     1       1.518   2.329  19.278  0.00  0.00    +0.000 C 
BRANCH  13  14
ATOM     14  C   UNL     1       0.885   3.337  20.234  0.00  0.00    +0.000 C 
BRANCH  14  16
ATOM     15  N   UNL     1       2.438   5.025  21.001  0.00  0.00    +0.000 N 
ATOM     16  C   UNL     1       1.876   3.814  21.274  0.00  0.00    +0.000 C 
ATOM     17  O   UNL     1       2.174   3.199  22.290  0.00  0.00    +0.000 OA
ATOM     18  H   UNL     1       3.113   5.387  21.664  0.00  0.00    +0.000 HD
ATOM     19  H   UNL     1       2.237   5.559  20.168  0.00  0.00    +0.000 HD
ENDBRANCH  14  16
ENDBRANCH  13  14
ENDBRANCH  12  13
ENDBRANCH   1  12
TORSDOF 5
ENDMDL
MODEL 5
REMARK VINA RESULT:      -7.0      1.164      1.164
REMARK  Name = 
REMARK  5 active torsions:
REMARK  status: ('A' for Active; 'I' for Inactive)
REMARK    1  A    between atoms: C_2  and  C_4
REMARK    2  A    between atoms: C_4  and  C_5
REMARK    3  A    between atoms: C_5  and  C_6
REMARK    4  A    between atoms: C_6  and  C_7
REMARK    5  A    between atoms: C_9  and  C_10
REMARK                            x       y       z     vdW  Elec       q    Type
REMARK                         _______ _______ _______ _____ _____    ______ ____
ROOT
ATOM      1  C   UNL     1       2.657   3.959  17.906  0.00  0.00    +0.000 A 
ATOM      2  N   UNL     1       3.345   5.074  17.942  0.00  0.00    +0.000 NA
ATOM      3  C   UNL     1       4.648   4.619  18.001  0.00  0.00    +0.000 A 
ATOM      4  N   UNL     1       4.753   3.279  17.986  0.00  0.00    +0.000 NA
ATOM      5  O   UNL     1       3.433   2.840  17.926  0.00  0.00    +0.000 OA
ENDROOT
BRANCH   3   6
ATOM      6  C   UNL     1       5.788   5.528  18.070  0.00  0.00    +0.000 A 
ATOM      7  C   UNL     1       5.848   6.651  17.231  0.00  0.00    +0.000 A 
ATOM      8  C   UNL     1       6.938   7.524  17.287  0.00  0.00    +0.000 A 
ATOM      9  C   UNL     1       7.979   7.285  18.181  0.00  0.00    +0.000 A 
ATOM     10  C   UNL     1       7.932   6.174  19.023  0.00  0.00    +0.000 A 
ATOM     11  C   UNL     1       6.842   5.301  18.969  0.00  0.00    +0.000 A 
ENDBRANCH   3   6
BRANCH   1  12
ATOM     12  C   UNL     1       1.190   3.757  17.874  0.00  0.00    +0.000 C 
BRANCH  12  13
ATOM     13  C   UNL     1       0.721   2.992  19.109  0.00  0.00    +0.000 C 
BRANCH  13  14
ATOM     14  C   UNL     1       1.062   3.732  20.399  0.00  0.00    +0.000 C 
BRANCH  14  16
ATOM     15  N   UNL     1       3.173   2.681  20.936  0.00  0.00    +0.000 N 
ATOM     16  C   UNL     1       1.884   2.870  21.334  0.00  0.00    +0.000 C 
ATOM     17  O   UNL     1       1.467   2.369  22.370  0.00  0.00    +0.000 OA
ATOM     18  H   UNL     1       3.764   2.106  21.524  0.00  0.00    +0.000 HD
ATOM     19  H   UNL     1       3.556   3.058  20.081  0.00  0.00    +0.000 HD
ENDBRANCH  14  16
ENDBRANCH  13  14
ENDBRANCH  12  13
ENDBRANCH   1  12
TORSDOF 5
ENDMDL
MODEL 6
REMARK VINA RESULT:      -6.9      2.486      5.924
REMARK  Name = 
REMARK  5 active torsions:
REMARK  status: ('A' for Active; 'I' for Inactive)
REMARK    1  A    between atoms: C_2  and  C_4
REMARK    2  A    between atoms: C_4  and  C_5
REMARK    3  A    between atoms: C_5  and  C_6
REMARK    4  A    between atoms: C_6  and  C_7
REMARK    5  A    between atoms: C_9  and  C_10
REMARK                            x       y       z     vdW  Elec       q    Type
REMARK                         _______ _______ _______ _____ _____    ______ ____
ROOT
ATOM      1  C   UNL     1       4.464   6.255  16.916  0.00  0.00    +0.000 A 
ATOM      2  N   UNL     1       4.066   5.125  17.450  0.00  0.00    +0.000 NA
ATOM      3  C   UNL     1       3.121   5.544  18.365  0.00  0.00    +0.000 A 
ATOM      4  N   UNL     1       2.936   6.875  18.381  0.00  0.00    +0.000 NA
ATOM      5  O   UNL     1       3.828   7.348  17.422  0.00  0.00    +0.000 OA
ENDROOT
BRANCH   3   6
ATOM      6  C   UNL     1       2.400   4.608  19.224  0.00  0.00    +0.000 A 
ATOM      7  C   UNL     1       2.639   4.591  20.607  0.00  0.00    +0.000 A 
ATOM      8  C   UNL     1       1.958   3.696  21.436  0.00  0.00    +0.000 A 
ATOM      9  C   UNL     1       1.031   2.809  20.894  0.00  0.00    +0.000 A 
ATOM     10  C   UNL     1       0.781   2.817  19.522  0.00  0.00    +0.000 A 
ATOM     11  C   UNL     1       1.461   3.712  18.692  0.00  0.00    +0.000 A 
ENDBRANCH   3   6
BRANCH   1  12
ATOM     12  C   UNL     1       5.499   6.498  15.885  0.00  0.00    +0.000 C 
BRANCH  12  13
ATOM     13  C   UNL     1       6.868   6.031  16.372  0.00  0.00    +0.000 C 
BRANCH  13  14
ATOM     14  C   UNL     1       7.194   6.575  17.760  0.00  0.00    +0.000 C 
BRANCH  14  16
ATOM     15  N   UNL     1       7.747   4.254  18.158  0.00  0.00    +0.000 N 
ATOM     16  C   UNL     1       7.488   5.459  18.739  0.00  0.00    +0.000 C 
ATOM     17  O   UNL     1       7.505   5.583  19.957  0.00  0.00    +0.000 OA
ATOM     18  H   UNL     1       7.945   3.472  18.771  0.00  0.00    +0.000 HD
ATOM     19  H   UNL     1       7.727   4.099  17.161  0.00  0.00    +0.000 HD
ENDBRANCH  14  16
ENDBRANCH  13  14
ENDBRANCH  12  13
ENDBRANCH   1  12
TORSDOF 5
ENDMDL
MODEL 7
REMARK VINA RESULT:      -6.9      3.907      6.793
REMARK  Name = 
REMARK  5 active torsions:
REMARK  status: ('A' for Active; 'I' for Inactive)
REMARK    1  A    between atoms: C_2  and  C_4
REMARK    2  A    between atoms: C_4  and  C_5
REMARK    3  A    between atoms: C_5  and  C_6
REMARK    4  A    between atoms: C_6  and  C_7
REMARK    5  A    between atoms: C_9  and  C_10
REMARK                            x       y       z     vdW  Elec       q    Type
REMARK                         _______ _______ _______ _____ _____    ______ ____
ROOT
ATOM      1  C   UNL     1       5.543   5.399  15.996  0.00  0.00    +0.000 A 
ATOM      2  N   UNL     1       4.618   4.616  16.497  0.00  0.00    +0.000 NA
ATOM      3  C   UNL     1       4.112   5.377  17.533  0.00  0.00    +0.000 A 
ATOM      4  N   UNL     1       4.693   6.584  17.651  0.00  0.00    +0.000 NA
ATOM      5  O   UNL     1       5.645   6.598  16.635  0.00  0.00    +0.000 OA
ENDROOT
BRANCH   3   6
ATOM      6  C   UNL     1       3.043   4.896  18.403  0.00  0.00    +0.000 A 
ATOM      7  C   UNL     1       2.818   5.503  19.648  0.00  0.00    +0.000 A 
ATOM      8  C   UNL     1       1.800   5.046  20.489  0.00  0.00    +0.000 A 
ATOM      9  C   UNL     1       0.997   3.978  20.097  0.00  0.00    +0.000 A 
ATOM     10  C   UNL     1       1.207   3.366  18.861  0.00  0.00    +0.000 A 
ATOM     11  C   UNL     1       2.224   3.823  18.019  0.00  0.00    +0.000 A 
ENDBRANCH   3   6
BRANCH   1  12
ATOM     12  C   UNL     1       6.484   5.153  14.879  0.00  0.00    +0.000 C 
BRANCH  12  13
ATOM     13  C   UNL     1       6.207   3.802  14.225  0.00  0.00    +0.000 C 
BRANCH  13  14
ATOM     14  C   UNL     1       6.496   3.825  12.727  0.00  0.00    +0.000 C 
BRANCH  14  16
ATOM     15  N   UNL     1       5.982   1.727  11.638  0.00  0.00    +0.000 N 
ATOM     16  C   UNL     1       5.515   2.966  11.958  0.00  0.00    +0.000 C 
ATOM     17  O   UNL     1       4.386   3.314  11.634  0.00  0.00    +0.000 OA
ATOM     18  H   UNL     1       5.364   1.116  11.118  0.00  0.00    +0.000 HD
ATOM     19  H   UNL     1       6.909   1.403  11.867  0.00  0.00    +0.000 HD
ENDBRANCH  14  16
ENDBRANCH  13  14
ENDBRANCH  12  13
ENDBRANCH   1  12
TORSDOF 5
ENDMDL
MODEL 8
REMARK VINA RESULT:      -6.9      3.436      6.489
REMARK  Name = 
REMARK  5 active torsions:
REMARK  status: ('A' for Active; 'I' for Inactive)
REMARK    1  A    between atoms: C_2  and  C_4
REMARK    2  A    between atoms: C_4  and  C_5
REMARK    3  A    between atoms: C_5  and  C_6
REMARK    4  A    between atoms: C_6  and  C_7
REMARK    5  A    between atoms: C_9  and  C_10
REMARK                            x       y       z     vdW  Elec       q    Type
REMARK                         _______ _______ _______ _____ _____    ______ ____
ROOT
ATOM      1  C   UNL     1       6.237   4.503  17.100  0.00  0.00    +0.000 A 
ATOM      2  N   UNL     1       4.939   4.442  17.283  0.00  0.00    +0.000 NA
ATOM      3  C   UNL     1       4.839   4.260  18.648  0.00  0.00    +0.000 A 
ATOM      4  N   UNL     1       6.026   4.227  19.278  0.00  0.00    +0.000 NA
ATOM      5  O   UNL     1       6.953   4.385  18.252  0.00  0.00    +0.000 OA
ENDROOT
BRANCH   3   6
ATOM      6  C   UNL     1       3.551   4.122  19.323  0.00  0.00    +0.000 A 
ATOM      7  C   UNL     1       2.913   5.249  19.864  0.00  0.00    +0.000 A 
ATOM      8  C   UNL     1       1.683   5.126  20.515  0.00  0.00    +0.000 A 
ATOM      9  C   UNL     1       1.077   3.877  20.633  0.00  0.00    +0.000 A 
ATOM     10  C   UNL     1       1.698   2.749  20.098  0.00  0.00    +0.000 A 
ATOM     11  C   UNL     1       2.928   2.871  19.446  0.00  0.00    +0.000 A 
ENDBRANCH   3   6
BRANCH   1  12
ATOM     12  C   UNL     1       7.006   4.653  15.843  0.00  0.00    +0.000 C 
BRANCH  12  13
ATOM     13  C   UNL     1       6.094   5.082  14.698  0.00  0.00    +0.000 C 
BRANCH  13  14
ATOM     14  C   UNL     1       5.599   3.888  13.886  0.00  0.00    +0.000 C 
BRANCH  14  16
ATOM     15  N   UNL     1       6.240   2.463  12.040  0.00  0.00    +0.000 N 
ATOM     16  C   UNL     1       6.451   3.659  12.657  0.00  0.00    +0.000 C 
ATOM     17  O   UNL     1       7.270   4.456  12.216  0.00  0.00    +0.000 OA
ATOM     18  H   UNL     1       6.790   2.260  11.214  0.00  0.00    +0.000 HD
ATOM     19  H   UNL     1       5.590   1.768  12.376  0.00  0.00    +0.000 HD
ENDBRANCH  14  16
ENDBRANCH  13  14
ENDBRANCH  12  13
ENDBRANCH   1  12
TORSDOF 5
ENDMDL
MODEL 9
REMARK VINA RESULT:      -6.9      3.461      6.698
REMARK  Name = 
REMARK  5 active torsions:
REMARK  status: ('A' for Active; 'I' for Inactive)
REMARK    1  A    between atoms: C_2  and  C_4
REMARK    2  A    between atoms: C_4  and  C_5
REMARK    3  A    between atoms: C_5  and  C_6
REMARK    4  A    between atoms: C_6  and  C_7
REMARK    5  A    between atoms: C_9  and  C_10
REMARK                            x       y       z     vdW  Elec       q    Type
REMARK                         _______ _______ _______ _____ _____    ______ ____
ROOT
ATOM      1  C   UNL     1       5.133   5.116  16.744  0.00  0.00    +0.000 A 
ATOM      2  N   UNL     1       3.948   4.940  17.279  0.00  0.00    +0.000 NA
ATOM      3  C   UNL     1       4.248   4.284  18.456  0.00  0.00    +0.000 A 
ATOM      4  N   UNL     1       5.563   4.080  18.643  0.00  0.00    +0.000 NA
ATOM      5  O   UNL     1       6.151   4.629  17.506  0.00  0.00    +0.000 OA
ENDROOT
BRANCH   3   6
ATOM      6  C   UNL     1       3.214   3.863  19.398  0.00  0.00    +0.000 A 
ATOM      7  C   UNL     1       3.530   2.988  20.449  0.00  0.00    +0.000 A 
ATOM      8  C   UNL     1       2.545   2.576  21.352  0.00  0.00    +0.000 A 
ATOM      9  C   UNL     1       1.237   3.033  21.214  0.00  0.00    +0.000 A 
ATOM     10  C   UNL     1       0.909   3.904  20.177  0.00  0.00    +0.000 A 
ATOM     11  C   UNL     1       1.893   4.318  19.274  0.00  0.00    +0.000 A 
ENDBRANCH   3   6
BRANCH   1  12
ATOM     12  C   UNL     1       5.500   5.732  15.448  0.00  0.00    +0.000 C 
BRANCH  12  13
ATOM     13  C   UNL     1       6.442   4.822  14.663  0.00  0.00    +0.000 C 
BRANCH  13  14
ATOM     14  C   UNL     1       5.679   3.787  13.842  0.00  0.00    +0.000 C 
BRANCH  14  16
ATOM     15  N   UNL     1       6.020   2.324  11.946  0.00  0.00    +0.000 N 
ATOM     16  C   UNL     1       6.364   3.511  12.521  0.00  0.00    +0.000 C 
ATOM     17  O   UNL     1       7.163   4.263  11.977  0.00  0.00    +0.000 OA
ATOM     18  H   UNL     1       6.456   2.090  11.062  0.00  0.00    +0.000 HD
ATOM     19  H   UNL     1       5.381   1.665  12.364  0.00  0.00    +0.000 HD
ENDBRANCH  14  16
ENDBRANCH  13  14
ENDBRANCH  12  13
ENDBRANCH   1  12
TORSDOF 5
ENDMDL
