MODEL 1
REMARK VINA RESULT:      -8.4      0.000      0.000
REMARK  Name = 
REMARK  10 active torsions:
REMARK  status: ('A' for Active; 'I' for Inactive)
REMARK    1  A    between atoms: C_1  and  C_2
REMARK    2  A    between atoms: C_4  and  C_5
REMARK    3  A    between atoms: C_6  and  C_7
REMARK    4  A    between atoms: C_7  and  C_9
REMARK    5  A    between atoms: C_10  and  C_11
REMARK    6  A    between atoms: C_13  and  C_14
REMARK    7  A    between atoms: C_15  and  O_16
REMARK    8  A    between atoms: C_17  and  C_18
REMARK    9  A    between atoms: C_21  and  C_22
REMARK   10  A    between atoms: C_23  and  O_24
REMARK                            x       y       z     vdW  Elec       q    Type
REMARK                         _______ _______ _______ _____ _____    ______ ____
ROOT
ATOM      1  C   UNL     1       0.825   9.515  21.167  0.00  0.00    +0.000 C 
ATOM      2  O   UNL     1       1.459  10.366  21.778  0.00  0.00    +0.000 OA
ENDROOT
BRANCH   1   4
ATOM      3  C   UNL     1       1.850   7.581  20.014  0.00  0.00    +0.000 C 
ATOM      4  C   UNL     1       1.241   8.083  21.100  0.00  0.00    +0.000 C 
BRANCH   3   8
ATOM      5  C   UNL     1       1.787   2.790  21.568  0.00  0.00    +0.000 C 
ATOM      6  C   UNL     1       2.262   3.840  20.603  0.00  0.00    +0.000 A 
ATOM      7  C   UNL     1       1.856   5.175  20.761  0.00  0.00    +0.000 A 
ATOM      8  C   UNL     1       2.285   6.176  19.879  0.00  0.00    +0.000 A 
ATOM      9  C   UNL     1       3.111   5.808  18.805  0.00  0.00    +0.000 A 
ATOM     10  C   UNL     1       3.536   4.477  18.622  0.00  0.00    +0.000 A 
ATOM     11  C   UNL     1       4.440   4.139  17.470  0.00  0.00    +0.000 C 
ATOM     12  C   UNL     1       3.100   3.505  19.533  0.00  0.00    +0.000 A 
BRANCH  12  13
ATOM     13  O   UNL     1       3.466   2.190  19.421  0.00  0.00    +0.000 OA
ATOM     14  H   UNL     1       2.912   1.644  19.999  0.00  0.00    +0.000 HD
ENDBRANCH  12  13
ENDBRANCH   3   8
ENDBRANCH   1   4
BRANCH   1  15
ATOM     15  C   UNL     1      -0.435   9.818  20.429  0.00  0.00    +0.000 C 
ATOM     16  C   UNL     1      -0.419  10.220  19.146  0.00  0.00    +0.000 C 
BRANCH  16  17
ATOM     17  C   UNL     1      -1.631  10.546  18.371  0.00  0.00    +0.000 A 
ATOM     18  C   UNL     1      -1.789  10.152  17.033  0.00  0.00    +0.000 A 
ATOM     19  C   UNL     1      -2.955  10.455  16.306  0.00  0.00    +0.000 A 
ATOM     20  C   UNL     1      -3.054  10.012  14.874  0.00  0.00    +0.000 C 
ATOM     21  C   UNL     1      -3.985  11.155  16.949  0.00  0.00    +0.000 A 
ATOM     22  C   UNL     1      -3.867  11.543  18.291  0.00  0.00    +0.000 A 
ATOM     23  C   UNL     1      -4.957  12.293  19.006  0.00  0.00    +0.000 C 
ATOM     24  C   UNL     1      -2.688  11.225  18.991  0.00  0.00    +0.000 A 
BRANCH  21  25
ATOM     25  O   UNL     1      -5.141  11.479  16.295  0.00  0.00    +0.000 OA
ATOM     26  H   UNL     1      -5.090  12.387  15.961  0.00  0.00    +0.000 HD
ENDBRANCH  21  25
ENDBRANCH  16  17
ENDBRANCH   1  15
TORSDOF 6
ENDMDL
MODEL 2
REMARK VINA RESULT:      -8.3      0.171      8.747
REMARK  Name = 
REMARK  10 active torsions:
REMARK  status: ('A' for Active; 'I' for Inactive)
REMARK    1  A    between atoms: C_1  and  C_2
REMARK    2  A    between atoms: C_4  and  C_5
REMARK    3  A    between atoms: C_6  and  C_7
REMARK    4  A    between atoms: C_7  and  C_9
REMARK    5  A    between atoms: C_10  and  C_11
REMARK    6  A    between atoms: C_13  and  C_14
REMARK    7  A    between atoms: C_15  and  O_16
REMARK    8  A    between atoms: C_17  and  C_18
REMARK    9  A    between atoms: C_21  and  C_22
REMARK   10  A    between atoms: C_23  and  O_24
REMARK                            x       y       z     vdW  Elec       q    Type
REMARK                         _______ _______ _______ _____ _____    ______ ____
ROOT
ATOM      1  C   UNL     1       0.802   9.512  21.230  0.00  0.00    +0.000 C 
ATOM      2  O   UNL     1       1.492  10.282  21.886  0.00  0.00    +0.000 OA
ENDROOT
BRANCH   1   4
ATOM      3  C   UNL     1      -0.470  10.026  19.172  0.00  0.00    +0.000 C 
ATOM      4  C   UNL     1      -0.434   9.939  20.511  0.00  0.00    +0.000 C 
BRANCH   3   8
ATOM      5  C   UNL     1      -3.128  10.106  14.893  0.00  0.00    +0.000 C 
ATOM      6  C   UNL     1      -2.974  10.489  16.338  0.00  0.00    +0.000 A 
ATOM      7  C   UNL     1      -1.829  10.101  17.050  0.00  0.00    +0.000 A 
ATOM      8  C   UNL     1      -1.656  10.445  18.398  0.00  0.00    +0.000 A 
ATOM      9  C   UNL     1      -2.678  11.167  19.036  0.00  0.00    +0.000 A 
ATOM     10  C   UNL     1      -3.838  11.572  18.346  0.00  0.00    +0.000 A 
ATOM     11  C   UNL     1      -4.892  12.364  19.069  0.00  0.00    +0.000 C 
ATOM     12  C   UNL     1      -3.969  11.223  16.995  0.00  0.00    +0.000 A 
BRANCH  12  13
ATOM     13  O   UNL     1      -5.067  11.575  16.258  0.00  0.00    +0.000 OA
ATOM     14  H   UNL     1      -4.788  12.016  15.441  0.00  0.00    +0.000 HD
ENDBRANCH  12  13
ENDBRANCH   3   8
ENDBRANCH   1   4
BRANCH   1  15
ATOM     15  C   UNL     1       1.127   8.064  21.076  0.00  0.00    +0.000 C 
ATOM     16  C   UNL     1       1.933   7.625  20.094  0.00  0.00    +0.000 C 
BRANCH  16  17
ATOM     17  C   UNL     1       2.277   6.206  19.885  0.00  0.00    +0.000 A 
ATOM     18  C   UNL     1       1.902   5.205  20.795  0.00  0.00    +0.000 A 
ATOM     19  C   UNL     1       2.222   3.852  20.580  0.00  0.00    +0.000 A 
ATOM     20  C   UNL     1       1.797   2.834  21.600  0.00  0.00    +0.000 C 
ATOM     21  C   UNL     1       2.919   3.504  19.416  0.00  0.00    +0.000 A 
ATOM     22  C   UNL     1       3.290   4.476  18.477  0.00  0.00    +0.000 A 
ATOM     23  C   UNL     1       4.038   4.131  17.219  0.00  0.00    +0.000 C 
ATOM     24  C   UNL     1       2.955   5.822  18.721  0.00  0.00    +0.000 A 
BRANCH  21  25
ATOM     25  O   UNL     1       3.260   2.206  19.152  0.00  0.00    +0.000 OA
ATOM     26  H   UNL     1       2.684   1.845  18.462  0.00  0.00    +0.000 HD
ENDBRANCH  21  25
ENDBRANCH  16  17
ENDBRANCH   1  15
TORSDOF 6
ENDMDL
MODEL 3
REMARK VINA RESULT:      -8.3      0.126      8.632
REMARK  Name = 
REMARK  10 active torsions:
REMARK  status: ('A' for Active; 'I' for Inactive)
REMARK    1  A    between atoms: C_1  and  C_2
REMARK    2  A    between atoms: C_4  and  C_5
REMARK    3  A    between atoms: C_6  and  C_7
REMARK    4  A    between atoms: C_7  and  C_9
REMARK    5  A    between atoms: C_10  and  C_11
REMARK    6  A    between atoms: C_13  and  C_14
REMARK    7  A    between atoms: C_15  and  O_16
REMARK    8  A    between atoms: C_17  and  C_18
REMARK    9  A    between atoms: C_21  and  C_22
REMARK   10  A    between atoms: C_23  and  O_24
REMARK                            x       y       z     vdW  Elec       q    Type
REMARK                         _______ _______ _______ _____ _____    ______ ____
ROOT
ATOM      1  C   UNL     1       0.814   9.562  21.206  0.00  0.00    +0.000 C 
ATOM      2  O   UNL     1       1.498  10.372  21.819  0.00  0.00    +0.000 OA
ENDROOT
BRANCH   1   4
ATOM      3  C   UNL     1      -0.505  10.111  19.186  0.00  0.00    +0.000 C 
ATOM      4  C   UNL     1      -0.458   9.931  20.516  0.00  0.00    +0.000 C 
BRANCH   3   8
ATOM      5  C   UNL     1      -5.005  12.365  18.953  0.00  0.00    +0.000 C 
ATOM      6  C   UNL     1      -3.907  11.576  18.295  0.00  0.00    +0.000 A 
ATOM      7  C   UNL     1      -2.765  11.216  19.027  0.00  0.00    +0.000 A 
ATOM      8  C   UNL     1      -1.726  10.479  18.441  0.00  0.00    +0.000 A 
ATOM      9  C   UNL     1      -1.839  10.132  17.085  0.00  0.00    +0.000 A 
ATOM     10  C   UNL     1      -2.975  10.479  16.326  0.00  0.00    +0.000 A 
ATOM     11  C   UNL     1      -3.058  10.063  14.884  0.00  0.00    +0.000 C 
ATOM     12  C   UNL     1      -4.001  11.203  16.950  0.00  0.00    +0.000 A 
BRANCH  12  13
ATOM     13  O   UNL     1      -5.133  11.580  16.279  0.00  0.00    +0.000 OA
ATOM     14  H   UNL     1      -5.656  10.797  16.048  0.00  0.00    +0.000 HD
ENDBRANCH  12  13
ENDBRANCH   3   8
ENDBRANCH   1   4
BRANCH   1  15
ATOM     15  C   UNL     1       1.180   8.122  21.080  0.00  0.00    +0.000 C 
ATOM     16  C   UNL     1       1.910   7.671  20.046  0.00  0.00    +0.000 C 
BRANCH  16  17
ATOM     17  C   UNL     1       2.291   6.257  19.862  0.00  0.00    +0.000 A 
ATOM     18  C   UNL     1       1.890   5.254  20.758  0.00  0.00    +0.000 A 
ATOM     19  C   UNL     1       2.245   3.906  20.566  0.00  0.00    +0.000 A 
ATOM     20  C   UNL     1       1.790   2.886  21.570  0.00  0.00    +0.000 C 
ATOM     21  C   UNL     1       3.004   3.566  19.439  0.00  0.00    +0.000 A 
ATOM     22  C   UNL     1       3.402   4.540  18.513  0.00  0.00    +0.000 A 
ATOM     23  C   UNL     1       4.216   4.202  17.295  0.00  0.00    +0.000 C 
ATOM     24  C   UNL     1       3.031   5.880  18.733  0.00  0.00    +0.000 A 
BRANCH  21  25
ATOM     25  O   UNL     1       3.381   2.273  19.199  0.00  0.00    +0.000 OA
ATOM     26  H   UNL     1       2.997   1.686  19.866  0.00  0.00    +0.000 HD
ENDBRANCH  21  25
ENDBRANCH  16  17
ENDBRANCH   1  15
TORSDOF 6
ENDMDL
MODEL 4
REMARK VINA RESULT:      -8.3      0.180      1.773
REMARK  Name = 
REMARK  10 active torsions:
REMARK  status: ('A' for Active; 'I' for Inactive)
REMARK    1  A    between atoms: C_1  and  C_2
REMARK    2  A    between atoms: C_4  and  C_5
REMARK    3  A    between atoms: C_6  and  C_7
REMARK    4  A    between atoms: C_7  and  C_9
REMARK    5  A    between atoms: C_10  and  C_11
REMARK    6  A    between atoms: C_13  and  C_14
REMARK    7  A    between atoms: C_15  and  O_16
REMARK    8  A    between atoms: C_17  and  C_18
REMARK    9  A    between atoms: C_21  and  C_22
REMARK   10  A    between atoms: C_23  and  O_24
REMARK                            x       y       z     vdW  Elec       q    Type
REMARK                         _______ _______ _______ _____ _____    ______ ____
ROOT
ATOM      1  C   UNL     1       0.828   9.469  21.286  0.00  0.00    +0.000 C 
ATOM      2  O   UNL     1       1.424  10.317  21.937  0.00  0.00    +0.000 OA
ENDROOT
BRANCH   1   4
ATOM      3  C   UNL     1       1.896   7.602  20.064  0.00  0.00    +0.000 C 
ATOM      4  C   UNL     1       1.292   8.055  21.174  0.00  0.00    +0.000 C 
BRANCH   3   8
ATOM      5  C   UNL     1       4.766   4.214  17.684  0.00  0.00    +0.000 C 
ATOM      6  C   UNL     1       3.768   4.553  18.756  0.00  0.00    +0.000 A 
ATOM      7  C   UNL     1       3.307   5.871  18.896  0.00  0.00    +0.000 A 
ATOM      8  C   UNL     1       2.375   6.217  19.885  0.00  0.00    +0.000 A 
ATOM      9  C   UNL     1       1.932   5.213  20.761  0.00  0.00    +0.000 A 
ATOM     10  C   UNL     1       2.377   3.881  20.644  0.00  0.00    +0.000 A 
ATOM     11  C   UNL     1       1.853   2.839  21.593  0.00  0.00    +0.000 C 
ATOM     12  C   UNL     1       3.296   3.569  19.633  0.00  0.00    +0.000 A 
BRANCH  12  13
ATOM     13  O   UNL     1       3.778   2.300  19.458  0.00  0.00    +0.000 OA
ATOM     14  H   UNL     1       3.216   1.666  19.929  0.00  0.00    +0.000 HD
ENDBRANCH  12  13
ENDBRANCH   3   8
ENDBRANCH   1   4
BRANCH   1  15
ATOM     15  C   UNL     1      -0.430   9.759  20.538  0.00  0.00    +0.000 C 
ATOM     16  C   UNL     1      -0.407  10.262  19.292  0.00  0.00    +0.000 C 
BRANCH  16  17
ATOM     17  C   UNL     1      -1.617  10.581  18.511  0.00  0.00    +0.000 A 
ATOM     18  C   UNL     1      -1.788  10.143  17.188  0.00  0.00    +0.000 A 
ATOM     19  C   UNL     1      -2.952  10.439  16.456  0.00  0.00    +0.000 A 
ATOM     20  C   UNL     1      -3.064   9.948  15.040  0.00  0.00    +0.000 C 
ATOM     21  C   UNL     1      -3.968  11.177  17.078  0.00  0.00    +0.000 A 
ATOM     22  C   UNL     1      -3.837  11.610  18.405  0.00  0.00    +0.000 A 
ATOM     23  C   UNL     1      -4.912  12.401  19.098  0.00  0.00    +0.000 C 
ATOM     24  C   UNL     1      -2.661  11.297  19.111  0.00  0.00    +0.000 A 
BRANCH  21  25
ATOM     25  O   UNL     1      -5.122  11.497  16.418  0.00  0.00    +0.000 OA
ATOM     26  H   UNL     1      -5.524  10.698  16.046  0.00  0.00    +0.000 HD
ENDBRANCH  21  25
ENDBRANCH  16  17
ENDBRANCH   1  15
TORSDOF 6
ENDMDL
MODEL 5
REMARK VINA RESULT:      -8.3      0.133      8.509
REMARK  Name = 
REMARK  10 active torsions:
REMARK  status: ('A' for Active; 'I' for Inactive)
REMARK    1  A    between atoms: C_1  and  C_2
REMARK    2  A    between atoms: C_4  and  C_5
REMARK    3  A    between atoms: C_6  and  C_7
REMARK    4  A    between atoms: C_7  and  C_9
REMARK    5  A    between atoms: C_10  and  C_11
REMARK    6  A    between atoms: C_13  and  C_14
REMARK    7  A    between atoms: C_15  and  O_16
REMARK    8  A    between atoms: C_17  and  C_18
REMARK    9  A    between atoms: C_21  and  C_22
REMARK   10  A    between atoms: C_23  and  O_24
REMARK                            x       y       z     vdW  Elec       q    Type
REMARK                         _______ _______ _______ _____ _____    ______ ____
ROOT
ATOM      1  C   UNL     1       0.813   9.483  21.238  0.00  0.00    +0.000 C 
ATOM      2  O   UNL     1       1.487  10.273  21.887  0.00  0.00    +0.000 OA
ENDROOT
BRANCH   1   4
ATOM      3  C   UNL     1      -0.493  10.066  19.218  0.00  0.00    +0.000 C 
ATOM      4  C   UNL     1      -0.452   9.872  20.547  0.00  0.00    +0.000 C 
BRANCH   3   8
ATOM      5  C   UNL     1      -4.957  12.388  18.985  0.00  0.00    +0.000 C 
ATOM      6  C   UNL     1      -3.871  11.585  18.327  0.00  0.00    +0.000 A 
ATOM      7  C   UNL     1      -2.735  11.205  19.059  0.00  0.00    +0.000 A 
ATOM      8  C   UNL     1      -1.707  10.454  18.472  0.00  0.00    +0.000 A 
ATOM      9  C   UNL     1      -1.823  10.112  17.115  0.00  0.00    +0.000 A 
ATOM     10  C   UNL     1      -2.953  10.478  16.356  0.00  0.00    +0.000 A 
ATOM     11  C   UNL     1      -3.040  10.067  14.913  0.00  0.00    +0.000 C 
ATOM     12  C   UNL     1      -3.968  11.216  16.980  0.00  0.00    +0.000 A 
BRANCH  12  13
ATOM     13  O   UNL     1      -5.094  11.611  16.309  0.00  0.00    +0.000 OA
ATOM     14  H   UNL     1      -5.732  10.883  16.278  0.00  0.00    +0.000 HD
ENDBRANCH  12  13
ENDBRANCH   3   8
ENDBRANCH   1   4
BRANCH   1  15
ATOM     15  C   UNL     1       1.186   8.050  21.065  0.00  0.00    +0.000 C 
ATOM     16  C   UNL     1       1.931   7.638  20.025  0.00  0.00    +0.000 C 
BRANCH  16  17
ATOM     17  C   UNL     1       2.319   6.233  19.796  0.00  0.00    +0.000 A 
ATOM     18  C   UNL     1       3.073   5.840  18.679  0.00  0.00    +0.000 A 
ATOM     19  C   UNL     1       3.451   4.500  18.476  0.00  0.00    +0.000 A 
ATOM     20  C   UNL     1       4.249   4.148  17.253  0.00  0.00    +0.000 C 
ATOM     21  C   UNL     1       3.073   3.545  19.429  0.00  0.00    +0.000 A 
ATOM     22  C   UNL     1       2.340   3.908  20.566  0.00  0.00    +0.000 A 
ATOM     23  C   UNL     1       1.923   2.904  21.604  0.00  0.00    +0.000 C 
ATOM     24  C   UNL     1       1.977   5.257  20.741  0.00  0.00    +0.000 A 
BRANCH  21  25
ATOM     25  O   UNL     1       3.410   2.226  19.286  0.00  0.00    +0.000 OA
ATOM     26  H   UNL     1       3.670   2.047  18.371  0.00  0.00    +0.000 HD
ENDBRANCH  21  25
ENDBRANCH  16  17
ENDBRANCH   1  15
TORSDOF 6
ENDMDL
MODEL 6
REMARK VINA RESULT:      -8.3      6.179      9.430
REMARK  Name = 
REMARK  10 active torsions:
REMARK  status: ('A' for Active; 'I' for Inactive)
REMARK    1  A    between atoms: C_1  and  C_2
REMARK    2  A    between atoms: C_4  and  C_5
REMARK    3  A    between atoms: C_6  and  C_7
REMARK    4  A    between atoms: C_7  and  C_9
REMARK    5  A    between atoms: C_10  and  C_11
REMARK    6  A    between atoms: C_13  and  C_14
REMARK    7  A    between atoms: C_15  and  O_16
REMARK    8  A    between atoms: C_17  and  C_18
REMARK    9  A    between atoms: C_21  and  C_22
REMARK   10  A    between atoms: C_23  and  O_24
REMARK                            x       y       z     vdW  Elec       q    Type
REMARK                         _______ _______ _______ _____ _____    ______ ____
ROOT
ATOM      1  C   UNL     1       7.276   7.165  17.205  0.00  0.00    +0.000 C 
ATOM      2  O   UNL     1       7.813   6.491  16.335  0.00  0.00    +0.000 OA
ENDROOT
BRANCH   1   4
ATOM      3  C   UNL     1       5.126   5.968  17.462  0.00  0.00    +0.000 C 
ATOM      4  C   UNL     1       6.124   6.674  18.017  0.00  0.00    +0.000 C 
BRANCH   3   8
ATOM      5  C   UNL     1       1.469   6.580  20.872  0.00  0.00    +0.000 C 
ATOM      6  C   UNL     1       2.164   5.730  19.845  0.00  0.00    +0.000 A 
ATOM      7  C   UNL     1       3.287   6.226  19.166  0.00  0.00    +0.000 A 
ATOM      8  C   UNL     1       3.957   5.456  18.205  0.00  0.00    +0.000 A 
ATOM      9  C   UNL     1       3.457   4.177  17.911  0.00  0.00    +0.000 A 
ATOM     10  C   UNL     1       2.331   3.653  18.578  0.00  0.00    +0.000 A 
ATOM     11  C   UNL     1       1.850   2.269  18.243  0.00  0.00    +0.000 C 
ATOM     12  C   UNL     1       1.697   4.446  19.544  0.00  0.00    +0.000 A 
BRANCH  12  13
ATOM     13  O   UNL     1       0.597   4.009  20.232  0.00  0.00    +0.000 OA
ATOM     14  H   UNL     1       0.633   4.325  21.147  0.00  0.00    +0.000 HD
ENDBRANCH  12  13
ENDBRANCH   3   8
ENDBRANCH   1   4
BRANCH   1  15
ATOM     15  C   UNL     1       7.719   8.547  17.548  0.00  0.00    +0.000 C 
ATOM     16  C   UNL     1       8.664   8.772  18.477  0.00  0.00    +0.000 C 
BRANCH  16  17
ATOM     17  C   UNL     1       9.131  10.116  18.868  0.00  0.00    +0.000 A 
ATOM     18  C   UNL     1       9.076  10.568  20.195  0.00  0.00    +0.000 A 
ATOM     19  C   UNL     1       9.538  11.846  20.561  0.00  0.00    +0.000 A 
ATOM     20  C   UNL     1       9.440  12.270  21.999  0.00  0.00    +0.000 C 
ATOM     21  C   UNL     1      10.080  12.673  19.568  0.00  0.00    +0.000 A 
ATOM     22  C   UNL     1      10.169  12.243  18.237  0.00  0.00    +0.000 A 
ATOM     23  C   UNL     1      10.747  13.109  17.153  0.00  0.00    +0.000 C 
ATOM     24  C   UNL     1       9.699  10.959  17.903  0.00  0.00    +0.000 A 
BRANCH  21  25
ATOM     25  O   UNL     1      10.544  13.926  19.861  0.00  0.00    +0.000 OA
ATOM     26  H   UNL     1       9.832  14.464  20.237  0.00  0.00    +0.000 HD
ENDBRANCH  21  25
ENDBRANCH  16  17
ENDBRANCH   1  15
TORSDOF 6
ENDMDL
MODEL 7
REMARK VINA RESULT:      -8.3      6.233      9.646
REMARK  Name = 
REMARK  10 active torsions:
REMARK  status: ('A' for Active; 'I' for Inactive)
REMARK    1  A    between atoms: C_1  and  C_2
REMARK    2  A    between atoms: C_4  and  C_5
REMARK    3  A    between atoms: C_6  and  C_7
REMARK    4  A    between atoms: C_7  and  C_9
REMARK    5  A    between atoms: C_10  and  C_11
REMARK    6  A    between atoms: C_13  and  C_14
REMARK    7  A    between atoms: C_15  and  O_16
REMARK    8  A    between atoms: C_17  and  C_18
REMARK    9  A    between atoms: C_21  and  C_22
REMARK   10  A    between atoms: C_23  and  O_24
REMARK                            x       y       z     vdW  Elec       q    Type
REMARK                         _______ _______ _______ _____ _____    ______ ____
ROOT
ATOM      1  C   UNL     1       7.351   6.905  17.393  0.00  0.00    +0.000 C 
ATOM      2  O   UNL     1       7.640   6.568  16.252  0.00  0.00    +0.000 OA
ENDROOT
BRANCH   1   4
ATOM      3  C   UNL     1       5.039   6.034  17.527  0.00  0.00    +0.000 C 
ATOM      4  C   UNL     1       6.196   6.328  18.142  0.00  0.00    +0.000 C 
BRANCH   3   8
ATOM      5  C   UNL     1       1.795   2.256  18.290  0.00  0.00    +0.000 C 
ATOM      6  C   UNL     1       2.276   3.644  18.607  0.00  0.00    +0.000 A 
ATOM      7  C   UNL     1       3.387   4.175  17.934  0.00  0.00    +0.000 A 
ATOM      8  C   UNL     1       3.857   5.467  18.207  0.00  0.00    +0.000 A 
ATOM      9  C   UNL     1       3.205   6.215  19.200  0.00  0.00    +0.000 A 
ATOM     10  C   UNL     1       2.086   5.709  19.892  0.00  0.00    +0.000 A 
ATOM     11  C   UNL     1       1.409   6.560  20.930  0.00  0.00    +0.000 C 
ATOM     12  C   UNL     1       1.635   4.419  19.581  0.00  0.00    +0.000 A 
BRANCH  12  13
ATOM     13  O   UNL     1       0.558   3.856  20.211  0.00  0.00    +0.000 OA
ATOM     14  H   UNL     1       0.552   4.113  21.145  0.00  0.00    +0.000 HD
ENDBRANCH  12  13
ENDBRANCH   3   8
ENDBRANCH   1   4
BRANCH   1  15
ATOM     15  C   UNL     1       8.125   7.925  18.158  0.00  0.00    +0.000 C 
ATOM     16  C   UNL     1       8.283   9.177  17.698  0.00  0.00    +0.000 C 
BRANCH  16  17
ATOM     17  C   UNL     1       9.049  10.223  18.403  0.00  0.00    +0.000 A 
ATOM     18  C   UNL     1       8.872  10.483  19.770  0.00  0.00    +0.000 A 
ATOM     19  C   UNL     1       9.617  11.472  20.438  0.00  0.00    +0.000 A 
ATOM     20  C   UNL     1       9.368  11.705  21.901  0.00  0.00    +0.000 C 
ATOM     21  C   UNL     1      10.571  12.197  19.713  0.00  0.00    +0.000 A 
ATOM     22  C   UNL     1      10.789  11.946  18.351  0.00  0.00    +0.000 A 
ATOM     23  C   UNL     1      11.807  12.709  17.549  0.00  0.00    +0.000 C 
ATOM     24  C   UNL     1      10.027  10.951  17.712  0.00  0.00    +0.000 A 
BRANCH  21  25
ATOM     25  O   UNL     1      11.326  13.172  20.306  0.00  0.00    +0.000 OA
ATOM     26  H   UNL     1      11.925  12.778  20.957  0.00  0.00    +0.000 HD
ENDBRANCH  21  25
ENDBRANCH  16  17
ENDBRANCH   1  15
TORSDOF 6
ENDMDL
MODEL 8
REMARK VINA RESULT:      -8.2      6.170      9.390
REMARK  Name = 
REMARK  10 active torsions:
REMARK  status: ('A' for Active; 'I' for Inactive)
REMARK    1  A    between atoms: C_1  and  C_2
REMARK    2  A    between atoms: C_4  and  C_5
REMARK    3  A    between atoms: C_6  and  C_7
REMARK    4  A    between atoms: C_7  and  C_9
REMARK    5  A    between atoms: C_10  and  C_11
REMARK    6  A    between atoms: C_13  and  C_14
REMARK    7  A    between atoms: C_15  and  O_16
REMARK    8  A    between atoms: C_17  and  C_18
REMARK    9  A    between atoms: C_21  and  C_22
REMARK   10  A    between atoms: C_23  and  O_24
REMARK                            x       y       z     vdW  Elec       q    Type
REMARK                         _______ _______ _______ _____ _____    ______ ____
ROOT
ATOM      1  C   UNL     1       7.162   7.193  17.200  0.00  0.00    +0.000 C 
ATOM      2  O   UNL     1       7.786   6.438  16.466  0.00  0.00    +0.000 OA
ENDROOT
BRANCH   1   4
ATOM      3  C   UNL     1       8.599   8.767  18.456  0.00  0.00    +0.000 C 
ATOM      4  C   UNL     1       7.634   8.567  17.544  0.00  0.00    +0.000 C 
BRANCH   3   8
ATOM      5  C   UNL     1       9.527  12.269  21.957  0.00  0.00    +0.000 C 
ATOM      6  C   UNL     1       9.584  11.809  20.527  0.00  0.00    +0.000 A 
ATOM      7  C   UNL     1       9.072  10.552  20.172  0.00  0.00    +0.000 A 
ATOM      8  C   UNL     1       9.109  10.097  18.846  0.00  0.00    +0.000 A 
ATOM      9  C   UNL     1       9.702  10.922  17.877  0.00  0.00    +0.000 A 
ATOM     10  C   UNL     1      10.223  12.190  18.204  0.00  0.00    +0.000 A 
ATOM     11  C   UNL     1      10.826  13.044  17.124  0.00  0.00    +0.000 C 
ATOM     12  C   UNL     1      10.154  12.618  19.537  0.00  0.00    +0.000 A 
BRANCH  12  13
ATOM     13  O   UNL     1      10.641  13.834  19.934  0.00  0.00    +0.000 OA
ATOM     14  H   UNL     1      10.118  14.545  19.532  0.00  0.00    +0.000 HD
ENDBRANCH  12  13
ENDBRANCH   3   8
ENDBRANCH   1   4
BRANCH   1  15
ATOM     15  C   UNL     1       5.860   6.822  17.826  0.00  0.00    +0.000 C 
ATOM     16  C   UNL     1       5.446   5.544  17.882  0.00  0.00    +0.000 C 
BRANCH  16  17
ATOM     17  C   UNL     1       4.163   5.120  18.475  0.00  0.00    +0.000 A 
ATOM     18  C   UNL     1       3.636   3.835  18.271  0.00  0.00    +0.000 A 
ATOM     19  C   UNL     1       2.419   3.434  18.853  0.00  0.00    +0.000 A 
ATOM     20  C   UNL     1       1.908   2.048  18.585  0.00  0.00    +0.000 C 
ATOM     21  C   UNL     1       1.734   4.344  19.669  0.00  0.00    +0.000 A 
ATOM     22  C   UNL     1       2.245   5.627  19.911  0.00  0.00    +0.000 A 
ATOM     23  C   UNL     1       1.531   6.621  20.783  0.00  0.00    +0.000 C 
ATOM     24  C   UNL     1       3.464   5.998  19.314  0.00  0.00    +0.000 A 
BRANCH  21  25
ATOM     25  O   UNL     1       0.546   4.013  20.262  0.00  0.00    +0.000 OA
ATOM     26  H   UNL     1      -0.026   4.793  20.315  0.00  0.00    +0.000 HD
ENDBRANCH  21  25
ENDBRANCH  16  17
ENDBRANCH   1  15
TORSDOF 6
ENDMDL
MODEL 9
REMARK VINA RESULT:      -8.2      6.119      9.281
REMARK  Name = 
REMARK  10 active torsions:
REMARK  status: ('A' for Active; 'I' for Inactive)
REMARK    1  A    between atoms: C_1  and  C_2
REMARK    2  A    between atoms: C_4  and  C_5
REMARK    3  A    between atoms: C_6  and  C_7
REMARK    4  A    between atoms: C_7  and  C_9
REMARK    5  A    between atoms: C_10  and  C_11
REMARK    6  A    between atoms: C_13  and  C_14
REMARK    7  A    between atoms: C_15  and  O_16
REMARK    8  A    between atoms: C_17  and  C_18
REMARK    9  A    between atoms: C_21  and  C_22
REMARK   10  A    between atoms: C_23  and  O_24
REMARK                            x       y       z     vdW  Elec       q    Type
REMARK                         _______ _______ _______ _____ _____    ______ ____
ROOT
ATOM      1  C   UNL     1       7.204   7.149  17.217  0.00  0.00    +0.000 C 
ATOM      2  O   UNL     1       7.755   6.472  16.359  0.00  0.00    +0.000 OA
ENDROOT
BRANCH   1   4
ATOM      3  C   UNL     1       5.064   5.926  17.439  0.00  0.00    +0.000 C 
ATOM      4  C   UNL     1       6.033   6.664  18.006  0.00  0.00    +0.000 C 
BRANCH   3   8
ATOM      5  C   UNL     1       1.722   2.277  18.384  0.00  0.00    +0.000 C 
ATOM      6  C   UNL     1       2.250   3.660  18.646  0.00  0.00    +0.000 A 
ATOM      7  C   UNL     1       3.365   4.133  17.936  0.00  0.00    +0.000 A 
ATOM      8  C   UNL     1       3.878   5.419  18.157  0.00  0.00    +0.000 A 
ATOM      9  C   UNL     1       3.267   6.220  19.135  0.00  0.00    +0.000 A 
ATOM     10  C   UNL     1       2.146   5.772  19.863  0.00  0.00    +0.000 A 
ATOM     11  C   UNL     1       1.514   6.678  20.882  0.00  0.00    +0.000 C 
ATOM     12  C   UNL     1       1.651   4.487  19.603  0.00  0.00    +0.000 A 
BRANCH  12  13
ATOM     13  O   UNL     1       0.568   3.979  20.270  0.00  0.00    +0.000 OA
ATOM     14  H   UNL     1      -0.079   4.682  20.432  0.00  0.00    +0.000 HD
ENDBRANCH  12  13
ENDBRANCH   3   8
ENDBRANCH   1   4
BRANCH   1  15
ATOM     15  C   UNL     1       7.648   8.528  17.571  0.00  0.00    +0.000 C 
ATOM     16  C   UNL     1       8.657   8.743  18.431  0.00  0.00    +0.000 C 
BRANCH  16  17
ATOM     17  C   UNL     1       9.129  10.084  18.828  0.00  0.00    +0.000 A 
ATOM     18  C   UNL     1       9.648  10.997  17.898  0.00  0.00    +0.000 A 
ATOM     19  C   UNL     1      10.082  12.279  18.283  0.00  0.00    +0.000 A 
ATOM     20  C   UNL     1      10.637  13.203  17.236  0.00  0.00    +0.000 C 
ATOM     21  C   UNL     1       9.973  12.648  19.630  0.00  0.00    +0.000 A 
ATOM     22  C   UNL     1       9.438  11.767  20.580  0.00  0.00    +0.000 A 
ATOM     23  C   UNL     1       9.308  12.138  22.031  0.00  0.00    +0.000 C 
ATOM     24  C   UNL     1       9.013  10.492  20.163  0.00  0.00    +0.000 A 
BRANCH  21  25
ATOM     25  O   UNL     1      10.379  13.879  20.066  0.00  0.00    +0.000 OA
ATOM     26  H   UNL     1       9.739  14.234  20.701  0.00  0.00    +0.000 HD
ENDBRANCH  21  25
ENDBRANCH  16  17
ENDBRANCH   1  15
TORSDOF 6
ENDMDL
