MODEL 1
REMARK VINA RESULT:      -6.9      0.000      0.000
REMARK  Name = 
REMARK  6 active torsions:
REMARK  status: ('A' for Active; 'I' for Inactive)
REMARK    1  A    between atoms: C_1  and  C_2
REMARK    2  A    between atoms: C_2  and  C_4
REMARK    3  A    between atoms: C_5  and  C_6
REMARK    4  A    between atoms: C_13  and  C_14
REMARK    5  A    between atoms: C_20  and  N_21
REMARK    6  A    between atoms: N_27  and  C_28
REMARK                            x       y       z     vdW  Elec       q    Type
REMARK                         _______ _______ _______ _____ _____    ______ ____
ROOT
ATOM      1  C   UNL     1      -5.386  11.799  19.584  0.00  0.00    +0.000 A 
ATOM      2  C   UNL     1      -4.057  11.789  19.115  0.00  0.00    +0.000 A 
ATOM      3  C   UNL     1      -3.208  12.384  20.138  0.00  0.00    +0.000 A 
ATOM      4  C   UNL     1      -4.042  12.791  21.183  0.00  0.00    +0.000 A 
ATOM      5  N   UNL     1      -5.344  12.464  20.814  0.00  0.00    +0.000 N 
ATOM      6  C   UNL     1      -6.517  12.845  21.574  0.00  0.00    +0.000 C 
ENDROOT
BRANCH   2   7
ATOM      7  C   UNL     1      -3.645  11.224  17.811  0.00  0.00    +0.000 A 
ATOM      8  C   UNL     1      -2.672  10.208  17.727  0.00  0.00    +0.000 A 
ATOM      9  C   UNL     1      -2.261   9.711  16.482  0.00  0.00    +0.000 A 
ATOM     10  C   UNL     1      -2.885  10.155  15.326  0.00  0.00    +0.000 A 
ATOM     11  F   UNL     1      -2.509   9.660  14.139  0.00  0.00    +0.000 F 
ATOM     12  C   UNL     1      -3.896  11.104  15.386  0.00  0.00    +0.000 A 
ATOM     13  C   UNL     1      -4.249  11.661  16.619  0.00  0.00    +0.000 A 
ENDBRANCH   2   7
BRANCH   4  14
ATOM     14  N   UNL     1      -3.823  13.494  22.342  0.00  0.00    +0.000 N 
ATOM     15  C   UNL     1      -3.604  14.958  22.342  0.00  0.00    +0.000 C 
ATOM     16  C   UNL     1      -4.240  15.571  23.617  0.00  0.00    +0.000 C 
ATOM     17  N   UNL     1      -3.763  14.959  24.869  0.00  0.00    +0.000 NA
ATOM     18  C   UNL     1      -3.900  13.490  24.803  0.00  0.00    +0.000 C 
ATOM     19  C   UNL     1      -3.243  12.860  23.546  0.00  0.00    +0.000 C 
ATOM     20  H   UNL     1      -4.327  15.314  25.640  0.00  0.00    +0.000 HD
ENDBRANCH   4  14
BRANCH   3  21
ATOM     21  C   UNL     1      -1.739  12.546  20.139  0.00  0.00    +0.000 A 
ATOM     22  C   UNL     1      -0.906  11.621  20.776  0.00  0.00    +0.000 A 
ATOM     23  C   UNL     1       0.465  11.844  20.784  0.00  0.00    +0.000 A 
ATOM     24  N   UNL     1       1.063  12.870  20.148  0.00  0.00    +0.000 NA
ATOM     25  C   UNL     1       0.249  13.742  19.522  0.00  0.00    +0.000 A 
ATOM     26  C   UNL     1      -1.134  13.651  19.537  0.00  0.00    +0.000 A 
ENDBRANCH   3  21
BRANCH   1  28
ATOM     27  C   UNL     1      -6.939   9.744  19.124  0.00  0.00    +0.000 C 
ATOM     28  C   UNL     1      -6.577  11.198  18.935  0.00  0.00    +0.000 C 
ATOM     29  O   UNL     1      -7.321  11.833  18.183  0.00  0.00    +0.000 OA
ENDBRANCH   1  28
TORSDOF 4
ENDMDL
MODEL 2
REMARK VINA RESULT:      -6.9      0.079      1.271
REMARK  Name = 
REMARK  6 active torsions:
REMARK  status: ('A' for Active; 'I' for Inactive)
REMARK    1  A    between atoms: C_1  and  C_2
REMARK    2  A    between atoms: C_2  and  C_4
REMARK    3  A    between atoms: C_5  and  C_6
REMARK    4  A    between atoms: C_13  and  C_14
REMARK    5  A    between atoms: C_20  and  N_21
REMARK    6  A    between atoms: N_27  and  C_28
REMARK                            x       y       z     vdW  Elec       q    Type
REMARK                         _______ _______ _______ _____ _____    ______ ____
ROOT
ATOM      1  C   UNL     1      -5.380  11.787  19.542  0.00  0.00    +0.000 A 
ATOM      2  C   UNL     1      -4.053  11.772  19.067  0.00  0.00    +0.000 A 
ATOM      3  C   UNL     1      -3.198  12.366  20.086  0.00  0.00    +0.000 A 
ATOM      4  C   UNL     1      -4.026  12.777  21.134  0.00  0.00    +0.000 A 
ATOM      5  N   UNL     1      -5.331  12.453  20.770  0.00  0.00    +0.000 N 
ATOM      6  C   UNL     1      -6.499  12.838  21.535  0.00  0.00    +0.000 C 
ENDROOT
BRANCH   2   7
ATOM      7  C   UNL     1      -3.648  11.205  17.762  0.00  0.00    +0.000 A 
ATOM      8  C   UNL     1      -4.218  11.661  16.557  0.00  0.00    +0.000 A 
ATOM      9  C   UNL     1      -3.856  11.085  15.331  0.00  0.00    +0.000 A 
ATOM     10  C   UNL     1      -2.858  10.123  15.291  0.00  0.00    +0.000 A 
ATOM     11  F   UNL     1      -2.496   9.592  14.116  0.00  0.00    +0.000 F 
ATOM     12  C   UNL     1      -2.231   9.706  16.457  0.00  0.00    +0.000 A 
ATOM     13  C   UNL     1      -2.649  10.219  17.689  0.00  0.00    +0.000 A 
ENDBRANCH   2   7
BRANCH   4  14
ATOM     14  N   UNL     1      -3.801  13.480  22.291  0.00  0.00    +0.000 N 
ATOM     15  C   UNL     1      -3.558  14.941  22.287  0.00  0.00    +0.000 C 
ATOM     16  C   UNL     1      -4.190  15.568  23.557  0.00  0.00    +0.000 C 
ATOM     17  N   UNL     1      -3.727  14.953  24.813  0.00  0.00    +0.000 NA
ATOM     18  C   UNL     1      -3.888  13.486  24.752  0.00  0.00    +0.000 C 
ATOM     19  C   UNL     1      -3.236  12.841  23.500  0.00  0.00    +0.000 C 
ATOM     20  H   UNL     1      -4.288  15.319  25.581  0.00  0.00    +0.000 HD
ENDBRANCH   4  14
BRANCH   3  21
ATOM     21  C   UNL     1      -1.728  12.524  20.081  0.00  0.00    +0.000 A 
ATOM     22  C   UNL     1      -1.109  13.545  19.354  0.00  0.00    +0.000 A 
ATOM     23  C   UNL     1       0.277  13.621  19.348  0.00  0.00    +0.000 A 
ATOM     24  N   UNL     1       1.078  12.808  20.064  0.00  0.00    +0.000 NA
ATOM     25  C   UNL     1       0.466  11.841  20.775  0.00  0.00    +0.000 A 
ATOM     26  C   UNL     1      -0.904  11.632  20.771  0.00  0.00    +0.000 A 
ENDBRANCH   3  21
BRANCH   1  28
ATOM     27  C   UNL     1      -6.947   9.739  19.100  0.00  0.00    +0.000 C 
ATOM     28  C   UNL     1      -6.575  11.189  18.898  0.00  0.00    +0.000 C 
ATOM     29  O   UNL     1      -7.314  11.822  18.140  0.00  0.00    +0.000 OA
ENDBRANCH   1  28
TORSDOF 4
ENDMDL
MODEL 3
REMARK VINA RESULT:      -6.2      0.551      1.404
REMARK  Name = 
REMARK  6 active torsions:
REMARK  status: ('A' for Active; 'I' for Inactive)
REMARK    1  A    between atoms: C_1  and  C_2
REMARK    2  A    between atoms: C_2  and  C_4
REMARK    3  A    between atoms: C_5  and  C_6
REMARK    4  A    between atoms: C_13  and  C_14
REMARK    5  A    between atoms: C_20  and  N_21
REMARK    6  A    between atoms: N_27  and  C_28
REMARK                            x       y       z     vdW  Elec       q    Type
REMARK                         _______ _______ _______ _____ _____    ______ ____
ROOT
ATOM      1  C   UNL     1      -5.640  11.852  19.725  0.00  0.00    +0.000 A 
ATOM      2  C   UNL     1      -4.285  11.896  19.339  0.00  0.00    +0.000 A 
ATOM      3  C   UNL     1      -3.533  12.561  20.394  0.00  0.00    +0.000 A 
ATOM      4  C   UNL     1      -4.450  12.954  21.373  0.00  0.00    +0.000 A 
ATOM      5  N   UNL     1      -5.708  12.551  20.935  0.00  0.00    +0.000 N 
ATOM      6  C   UNL     1      -6.944  12.892  21.610  0.00  0.00    +0.000 C 
ENDROOT
BRANCH   2   7
ATOM      7  C   UNL     1      -3.766  11.318  18.081  0.00  0.00    +0.000 A 
ATOM      8  C   UNL     1      -4.324  11.657  16.833  0.00  0.00    +0.000 A 
ATOM      9  C   UNL     1      -3.850  11.069  15.651  0.00  0.00    +0.000 A 
ATOM     10  C   UNL     1      -2.757  10.217  15.699  0.00  0.00    +0.000 A 
ATOM     11  F   UNL     1      -2.288   9.677  14.567  0.00  0.00    +0.000 F 
ATOM     12  C   UNL     1      -2.143   9.921  16.908  0.00  0.00    +0.000 A 
ATOM     13  C   UNL     1      -2.667  10.441  18.096  0.00  0.00    +0.000 A 
ENDBRANCH   2   7
BRANCH   4  14
ATOM     14  N   UNL     1      -4.339  13.697  22.521  0.00  0.00    +0.000 N 
ATOM     15  C   UNL     1      -4.418  13.081  23.866  0.00  0.00    +0.000 C 
ATOM     16  C   UNL     1      -3.459  13.829  24.829  0.00  0.00    +0.000 C 
ATOM     17  N   UNL     1      -3.697  15.281  24.891  0.00  0.00    +0.000 NA
ATOM     18  C   UNL     1      -3.712  15.855  23.530  0.00  0.00    +0.000 C 
ATOM     19  C   UNL     1      -4.688  15.134  22.563  0.00  0.00    +0.000 C 
ATOM     20  H   UNL     1      -2.944  15.712  25.427  0.00  0.00    +0.000 HD
ENDBRANCH   4  14
BRANCH   3  21
ATOM     21  C   UNL     1      -2.076  12.797  20.481  0.00  0.00    +0.000 A 
ATOM     22  C   UNL     1      -1.239  11.925  21.182  0.00  0.00    +0.000 A 
ATOM     23  C   UNL     1       0.116  12.217  21.269  0.00  0.00    +0.000 A 
ATOM     24  N   UNL     1       0.700  13.263  20.653  0.00  0.00    +0.000 NA
ATOM     25  C   UNL     1      -0.117  14.084  19.965  0.00  0.00    +0.000 A 
ATOM     26  C   UNL     1      -1.492  13.924  19.897  0.00  0.00    +0.000 A 
ENDBRANCH   3  21
BRANCH   1  28
ATOM     27  C   UNL     1      -7.022   9.695  19.186  0.00  0.00    +0.000 C 
ATOM     28  C   UNL     1      -6.757  11.174  19.022  0.00  0.00    +0.000 C 
ATOM     29  O   UNL     1      -7.512  11.761  18.244  0.00  0.00    +0.000 OA
ENDBRANCH   1  28
TORSDOF 4
ENDMDL
MODEL 4
REMARK VINA RESULT:      -6.1      1.150      1.191
REMARK  Name = 
REMARK  6 active torsions:
REMARK  status: ('A' for Active; 'I' for Inactive)
REMARK    1  A    between atoms: C_1  and  C_2
REMARK    2  A    between atoms: C_2  and  C_4
REMARK    3  A    between atoms: C_5  and  C_6
REMARK    4  A    between atoms: C_13  and  C_14
REMARK    5  A    between atoms: C_20  and  N_21
REMARK    6  A    between atoms: N_27  and  C_28
REMARK                            x       y       z     vdW  Elec       q    Type
REMARK                         _______ _______ _______ _____ _____    ______ ____
ROOT
ATOM      1  C   UNL     1      -4.946  12.372  20.227  0.00  0.00    +0.000 A 
ATOM      2  C   UNL     1      -3.683  12.270  19.610  0.00  0.00    +0.000 A 
ATOM      3  C   UNL     1      -2.716  12.986  20.430  0.00  0.00    +0.000 A 
ATOM      4  C   UNL     1      -3.417  13.553  21.498  0.00  0.00    +0.000 A 
ATOM      5  N   UNL     1      -4.755  13.203  21.336  0.00  0.00    +0.000 N 
ATOM      6  C   UNL     1      -5.827  13.710  22.168  0.00  0.00    +0.000 C 
ENDROOT
BRANCH   2   7
ATOM      7  C   UNL     1      -3.432  11.518  18.360  0.00  0.00    +0.000 A 
ATOM      8  C   UNL     1      -2.412  10.550  18.279  0.00  0.00    +0.000 A 
ATOM      9  C   UNL     1      -2.158   9.875  17.077  0.00  0.00    +0.000 A 
ATOM     10  C   UNL     1      -2.979  10.094  15.980  0.00  0.00    +0.000 A 
ATOM     11  F   UNL     1      -2.751   9.430  14.840  0.00  0.00    +0.000 F 
ATOM     12  C   UNL     1      -4.034  10.991  16.054  0.00  0.00    +0.000 A 
ATOM     13  C   UNL     1      -4.237  11.726  17.227  0.00  0.00    +0.000 A 
ENDBRANCH   2   7
BRANCH   4  14
ATOM     14  N   UNL     1      -3.058  14.407  22.510  0.00  0.00    +0.000 N 
ATOM     15  C   UNL     1      -2.778  15.841  22.265  0.00  0.00    +0.000 C 
ATOM     16  C   UNL     1      -3.263  16.673  23.481  0.00  0.00    +0.000 C 
ATOM     17  N   UNL     1      -2.695  16.229  24.766  0.00  0.00    +0.000 NA
ATOM     18  C   UNL     1      -2.901  14.777  24.940  0.00  0.00    +0.000 C 
ATOM     19  C   UNL     1      -2.394  13.930  23.743  0.00  0.00    +0.000 C 
ATOM     20  H   UNL     1      -3.167  16.726  25.520  0.00  0.00    +0.000 HD
ENDBRANCH   4  14
BRANCH   3  21
ATOM     21  C   UNL     1      -1.256  13.118  20.234  0.00  0.00    +0.000 A 
ATOM     22  C   UNL     1      -0.354  12.296  20.916  0.00  0.00    +0.000 A 
ATOM     23  C   UNL     1       1.008  12.491  20.728  0.00  0.00    +0.000 A 
ATOM     24  N   UNL     1       1.527  13.385  19.864  0.00  0.00    +0.000 NA
ATOM     25  C   UNL     1       0.645  14.157  19.199  0.00  0.00    +0.000 A 
ATOM     26  C   UNL     1      -0.727  14.096  19.389  0.00  0.00    +0.000 A 
ENDBRANCH   3  21
BRANCH   1  28
ATOM     27  C   UNL     1      -7.222  12.402  18.935  0.00  0.00    +0.000 C 
ATOM     28  C   UNL     1      -6.207  11.709  19.815  0.00  0.00    +0.000 C 
ATOM     29  O   UNL     1      -6.520  10.576  20.187  0.00  0.00    +0.000 OA
ENDBRANCH   1  28
TORSDOF 4
ENDMDL
MODEL 5
REMARK VINA RESULT:      -5.9      3.013      6.105
REMARK  Name = 
REMARK  6 active torsions:
REMARK  status: ('A' for Active; 'I' for Inactive)
REMARK    1  A    between atoms: C_1  and  C_2
REMARK    2  A    between atoms: C_2  and  C_4
REMARK    3  A    between atoms: C_5  and  C_6
REMARK    4  A    between atoms: C_13  and  C_14
REMARK    5  A    between atoms: C_20  and  N_21
REMARK    6  A    between atoms: N_27  and  C_28
REMARK                            x       y       z     vdW  Elec       q    Type
REMARK                         _______ _______ _______ _____ _____    ______ ____
ROOT
ATOM      1  C   UNL     1      -5.596  12.562  20.370  0.00  0.00    +0.000 A 
ATOM      2  C   UNL     1      -4.291  12.799  20.849  0.00  0.00    +0.000 A 
ATOM      3  C   UNL     1      -3.346  12.311  19.853  0.00  0.00    +0.000 A 
ATOM      4  C   UNL     1      -4.091  11.742  18.817  0.00  0.00    +0.000 A 
ATOM      5  N   UNL     1      -5.433  11.871  19.165  0.00  0.00    +0.000 N 
ATOM      6  C   UNL     1      -6.521  11.284  18.410  0.00  0.00    +0.000 C 
ENDROOT
BRANCH   2   7
ATOM      7  C   UNL     1      -3.991  13.465  22.135  0.00  0.00    +0.000 A 
ATOM      8  C   UNL     1      -3.950  12.741  23.343  0.00  0.00    +0.000 A 
ATOM      9  C   UNL     1      -3.706  13.392  24.560  0.00  0.00    +0.000 A 
ATOM     10  C   UNL     1      -3.408  14.747  24.567  0.00  0.00    +0.000 A 
ATOM     11  F   UNL     1      -3.150  15.362  25.728  0.00  0.00    +0.000 F 
ATOM     12  C   UNL     1      -3.372  15.470  23.383  0.00  0.00    +0.000 A 
ATOM     13  C   UNL     1      -3.697  14.839  22.178  0.00  0.00    +0.000 A 
ENDBRANCH   2   7
BRANCH   4  14
ATOM     14  N   UNL     1      -3.749  11.045  17.686  0.00  0.00    +0.000 N 
ATOM     15  C   UNL     1      -4.386  11.312  16.376  0.00  0.00    +0.000 C 
ATOM     16  C   UNL     1      -3.339  11.121  15.248  0.00  0.00    +0.000 C 
ATOM     17  N   UNL     1      -2.686   9.801  15.265  0.00  0.00    +0.000 NA
ATOM     18  C   UNL     1      -2.145   9.516  16.610  0.00  0.00    +0.000 C 
ATOM     19  C   UNL     1      -3.191   9.676  17.746  0.00  0.00    +0.000 C 
ATOM     20  H   UNL     1      -1.921   9.807  14.592  0.00  0.00    +0.000 HD
ENDBRANCH   4  14
BRANCH   3  21
ATOM     21  C   UNL     1      -1.870  12.384  19.869  0.00  0.00    +0.000 A 
ATOM     22  C   UNL     1      -1.169  13.133  18.919  0.00  0.00    +0.000 A 
ATOM     23  C   UNL     1       0.220  13.132  18.953  0.00  0.00    +0.000 A 
ATOM     24  N   UNL     1       0.948  12.506  19.898  0.00  0.00    +0.000 NA
ATOM     25  C   UNL     1       0.258  11.804  20.818  0.00  0.00    +0.000 A 
ATOM     26  C   UNL     1      -1.122  11.674  20.811  0.00  0.00    +0.000 A 
ENDBRANCH   3  21
BRANCH   1  28
ATOM     27  C   UNL     1      -7.599  12.126  21.996  0.00  0.00    +0.000 C 
ATOM     28  C   UNL     1      -6.875  12.988  20.989  0.00  0.00    +0.000 C 
ATOM     29  O   UNL     1      -7.438  14.047  20.700  0.00  0.00    +0.000 OA
ENDBRANCH   1  28
TORSDOF 4
ENDMDL
MODEL 6
REMARK VINA RESULT:      -5.9      3.024      6.077
REMARK  Name = 
REMARK  6 active torsions:
REMARK  status: ('A' for Active; 'I' for Inactive)
REMARK    1  A    between atoms: C_1  and  C_2
REMARK    2  A    between atoms: C_2  and  C_4
REMARK    3  A    between atoms: C_5  and  C_6
REMARK    4  A    between atoms: C_13  and  C_14
REMARK    5  A    between atoms: C_20  and  N_21
REMARK    6  A    between atoms: N_27  and  C_28
REMARK                            x       y       z     vdW  Elec       q    Type
REMARK                         _______ _______ _______ _____ _____    ______ ____
ROOT
ATOM      1  C   UNL     1      -5.556  12.491  20.429  0.00  0.00    +0.000 A 
ATOM      2  C   UNL     1      -4.251  12.762  20.887  0.00  0.00    +0.000 A 
ATOM      3  C   UNL     1      -3.309  12.307  19.872  0.00  0.00    +0.000 A 
ATOM      4  C   UNL     1      -4.056  11.723  18.845  0.00  0.00    +0.000 A 
ATOM      5  N   UNL     1      -5.395  11.812  19.217  0.00  0.00    +0.000 N 
ATOM      6  C   UNL     1      -6.478  11.199  18.476  0.00  0.00    +0.000 C 
ENDROOT
BRANCH   2   7
ATOM      7  C   UNL     1      -3.948  13.429  22.172  0.00  0.00    +0.000 A 
ATOM      8  C   UNL     1      -3.929  12.710  23.384  0.00  0.00    +0.000 A 
ATOM      9  C   UNL     1      -3.682  13.362  24.600  0.00  0.00    +0.000 A 
ATOM     10  C   UNL     1      -3.359  14.711  24.603  0.00  0.00    +0.000 A 
ATOM     11  F   UNL     1      -3.097  15.327  25.762  0.00  0.00    +0.000 F 
ATOM     12  C   UNL     1      -3.301  15.427  23.415  0.00  0.00    +0.000 A 
ATOM     13  C   UNL     1      -3.629  14.797  22.211  0.00  0.00    +0.000 A 
ENDBRANCH   2   7
BRANCH   4  14
ATOM     14  N   UNL     1      -3.713  11.043  17.704  0.00  0.00    +0.000 N 
ATOM     15  C   UNL     1      -4.384  11.296  16.409  0.00  0.00    +0.000 C 
ATOM     16  C   UNL     1      -3.354  11.144  15.259  0.00  0.00    +0.000 C 
ATOM     17  N   UNL     1      -2.658   9.845  15.257  0.00  0.00    +0.000 NA
ATOM     18  C   UNL     1      -2.083   9.572  16.589  0.00  0.00    +0.000 C 
ATOM     19  C   UNL     1      -3.110   9.692  17.746  0.00  0.00    +0.000 C 
ATOM     20  H   UNL     1      -1.907   9.879  14.569  0.00  0.00    +0.000 HD
ENDBRANCH   4  14
BRANCH   3  21
ATOM     21  C   UNL     1      -1.836  12.422  19.864  0.00  0.00    +0.000 A 
ATOM     22  C   UNL     1      -1.044  11.683  20.748  0.00  0.00    +0.000 A 
ATOM     23  C   UNL     1       0.333  11.862  20.728  0.00  0.00    +0.000 A 
ATOM     24  N   UNL     1       0.975  12.658  19.851  0.00  0.00    +0.000 NA
ATOM     25  C   UNL     1       0.200  13.348  18.992  0.00  0.00    +0.000 A 
ATOM     26  C   UNL     1      -1.185  13.303  18.998  0.00  0.00    +0.000 A 
ENDBRANCH   3  21
BRANCH   1  28
ATOM     27  C   UNL     1      -7.478  14.223  20.826  0.00  0.00    +0.000 C 
ATOM     28  C   UNL     1      -6.836  12.877  21.072  0.00  0.00    +0.000 C 
ATOM     29  O   UNL     1      -7.434  12.145  21.864  0.00  0.00    +0.000 OA
ENDBRANCH   1  28
TORSDOF 4
ENDMDL
MODEL 7
REMARK VINA RESULT:      -5.9      2.471      4.040
REMARK  Name = 
REMARK  6 active torsions:
REMARK  status: ('A' for Active; 'I' for Inactive)
REMARK    1  A    between atoms: C_1  and  C_2
REMARK    2  A    between atoms: C_2  and  C_4
REMARK    3  A    between atoms: C_5  and  C_6
REMARK    4  A    between atoms: C_13  and  C_14
REMARK    5  A    between atoms: C_20  and  N_21
REMARK    6  A    between atoms: N_27  and  C_28
REMARK                            x       y       z     vdW  Elec       q    Type
REMARK                         _______ _______ _______ _____ _____    ______ ____
ROOT
ATOM      1  C   UNL     1      -3.260  11.592  18.558  0.00  0.00    +0.000 A 
ATOM      2  C   UNL     1      -2.261  12.277  19.279  0.00  0.00    +0.000 A 
ATOM      3  C   UNL     1      -2.902  12.999  20.370  0.00  0.00    +0.000 A 
ATOM      4  C   UNL     1      -4.278  12.784  20.259  0.00  0.00    +0.000 A 
ATOM      5  N   UNL     1      -4.472  11.969  19.146  0.00  0.00    +0.000 N 
ATOM      6  C   UNL     1      -5.776  11.626  18.616  0.00  0.00    +0.000 C 
ENDROOT
BRANCH   2   7
ATOM      7  C   UNL     1      -0.818  12.209  18.960  0.00  0.00    +0.000 A 
ATOM      8  C   UNL     1      -0.109  10.993  19.032  0.00  0.00    +0.000 A 
ATOM      9  C   UNL     1       1.268  10.951  18.768  0.00  0.00    +0.000 A 
ATOM     10  C   UNL     1       1.921  12.097  18.340  0.00  0.00    +0.000 A 
ATOM     11  F   UNL     1       3.230  12.049  18.063  0.00  0.00    +0.000 F 
ATOM     12  C   UNL     1       1.231  13.292  18.193  0.00  0.00    +0.000 A 
ATOM     13  C   UNL     1      -0.124  13.355  18.536  0.00  0.00    +0.000 A 
ENDBRANCH   2   7
BRANCH   4  14
ATOM     14  N   UNL     1      -5.365  13.287  20.927  0.00  0.00    +0.000 N 
ATOM     15  C   UNL     1      -5.849  14.669  20.711  0.00  0.00    +0.000 C 
ATOM     16  C   UNL     1      -7.396  14.694  20.820  0.00  0.00    +0.000 C 
ATOM     17  N   UNL     1      -7.909  14.140  22.085  0.00  0.00    +0.000 NA
ATOM     18  C   UNL     1      -7.334  12.801  22.326  0.00  0.00    +0.000 C 
ATOM     19  C   UNL     1      -5.784  12.768  22.248  0.00  0.00    +0.000 C 
ATOM     20  H   UNL     1      -8.923  14.061  22.019  0.00  0.00    +0.000 HD
ENDBRANCH   4  14
BRANCH   3  21
ATOM     21  C   UNL     1      -2.273  13.813  21.432  0.00  0.00    +0.000 A 
ATOM     22  C   UNL     1      -2.077  15.188  21.274  0.00  0.00    +0.000 A 
ATOM     23  C   UNL     1      -1.442  15.898  22.285  0.00  0.00    +0.000 A 
ATOM     24  N   UNL     1      -1.060  15.356  23.458  0.00  0.00    +0.000 NA
ATOM     25  C   UNL     1      -1.274  14.033  23.603  0.00  0.00    +0.000 A 
ATOM     26  C   UNL     1      -1.817  13.228  22.616  0.00  0.00    +0.000 A 
ENDBRANCH   3  21
BRANCH   1  28
ATOM     27  C   UNL     1      -2.795  11.114  16.027  0.00  0.00    +0.000 C 
ATOM     28  C   UNL     1      -3.071  10.641  17.436  0.00  0.00    +0.000 C 
ATOM     29  O   UNL     1      -3.156   9.418  17.573  0.00  0.00    +0.000 OA
ENDBRANCH   1  28
TORSDOF 4
ENDMDL
MODEL 8
REMARK VINA RESULT:      -5.8      0.807      1.818
REMARK  Name = 
REMARK  6 active torsions:
REMARK  status: ('A' for Active; 'I' for Inactive)
REMARK    1  A    between atoms: C_1  and  C_2
REMARK    2  A    between atoms: C_2  and  C_4
REMARK    3  A    between atoms: C_5  and  C_6
REMARK    4  A    between atoms: C_13  and  C_14
REMARK    5  A    between atoms: C_20  and  N_21
REMARK    6  A    between atoms: N_27  and  C_28
REMARK                            x       y       z     vdW  Elec       q    Type
REMARK                         _______ _______ _______ _____ _____    ______ ____
ROOT
ATOM      1  C   UNL     1      -5.155  12.069  19.590  0.00  0.00    +0.000 A 
ATOM      2  C   UNL     1      -3.849  11.970  19.069  0.00  0.00    +0.000 A 
ATOM      3  C   UNL     1      -2.935  12.607  20.008  0.00  0.00    +0.000 A 
ATOM      4  C   UNL     1      -3.707  13.125  21.051  0.00  0.00    +0.000 A 
ATOM      5  N   UNL     1      -5.036  12.823  20.761  0.00  0.00    +0.000 N 
ATOM      6  C   UNL     1      -6.159  13.307  21.537  0.00  0.00    +0.000 C 
ENDROOT
BRANCH   2   7
ATOM      7  C   UNL     1      -3.515  11.292  17.797  0.00  0.00    +0.000 A 
ATOM      8  C   UNL     1      -4.166  11.631  16.594  0.00  0.00    +0.000 A 
ATOM      9  C   UNL     1      -3.870  10.951  15.404  0.00  0.00    +0.000 A 
ATOM     10  C   UNL     1      -2.860  10.001  15.388  0.00  0.00    +0.000 A 
ATOM     11  F   UNL     1      -2.561   9.371  14.245  0.00  0.00    +0.000 F 
ATOM     12  C   UNL     1      -2.156   9.698  16.545  0.00  0.00    +0.000 A 
ATOM     13  C   UNL     1      -2.506  10.315  17.750  0.00  0.00    +0.000 A 
ENDBRANCH   2   7
BRANCH   4  14
ATOM     14  N   UNL     1      -3.413  13.904  22.142  0.00  0.00    +0.000 N 
ATOM     15  C   UNL     1      -3.210  13.323  23.489  0.00  0.00    +0.000 C 
ATOM     16  C   UNL     1      -2.118  14.133  24.237  0.00  0.00    +0.000 C 
ATOM     17  N   UNL     1      -2.402  15.576  24.314  0.00  0.00    +0.000 NA
ATOM     18  C   UNL     1      -2.699  16.111  22.970  0.00  0.00    +0.000 C 
ATOM     19  C   UNL     1      -3.810  15.327  22.221  0.00  0.00    +0.000 C 
ATOM     20  H   UNL     1      -1.581  16.050  24.688  0.00  0.00    +0.000 HD
ENDBRANCH   4  14
BRANCH   3  21
ATOM     21  C   UNL     1      -1.463  12.710  19.937  0.00  0.00    +0.000 A 
ATOM     22  C   UNL     1      -0.838  13.597  19.056  0.00  0.00    +0.000 A 
ATOM     23  C   UNL     1       0.550  13.622  18.997  0.00  0.00    +0.000 A 
ATOM     24  N   UNL     1       1.349  12.888  19.797  0.00  0.00    +0.000 NA
ATOM     25  C   UNL     1       0.732  12.052  20.655  0.00  0.00    +0.000 A 
ATOM     26  C   UNL     1      -0.643  11.894  20.721  0.00  0.00    +0.000 A 
ENDBRANCH   3  21
BRANCH   1  28
ATOM     27  C   UNL     1      -7.357  12.266  18.189  0.00  0.00    +0.000 C 
ATOM     28  C   UNL     1      -6.394  11.469  19.037  0.00  0.00    +0.000 C 
ATOM     29  O   UNL     1      -6.729  10.303  19.259  0.00  0.00    +0.000 OA
ENDBRANCH   1  28
TORSDOF 4
ENDMDL
MODEL 9
REMARK VINA RESULT:      -5.8      1.993      4.351
REMARK  Name = 
REMARK  6 active torsions:
REMARK  status: ('A' for Active; 'I' for Inactive)
REMARK    1  A    between atoms: C_1  and  C_2
REMARK    2  A    between atoms: C_2  and  C_4
REMARK    3  A    between atoms: C_5  and  C_6
REMARK    4  A    between atoms: C_13  and  C_14
REMARK    5  A    between atoms: C_20  and  N_21
REMARK    6  A    between atoms: N_27  and  C_28
REMARK                            x       y       z     vdW  Elec       q    Type
REMARK                         _______ _______ _______ _____ _____    ______ ____
ROOT
ATOM      1  C   UNL     1      -1.426  12.038  19.940  0.00  0.00    +0.000 A 
ATOM      2  C   UNL     1      -2.695  11.937  19.334  0.00  0.00    +0.000 A 
ATOM      3  C   UNL     1      -3.671  12.564  20.215  0.00  0.00    +0.000 A 
ATOM      4  C   UNL     1      -2.987  12.986  21.358  0.00  0.00    +0.000 A 
ATOM      5  N   UNL     1      -1.652  12.628  21.188  0.00  0.00    +0.000 N 
ATOM      6  C   UNL     1      -0.642  12.774  22.215  0.00  0.00    +0.000 C 
ENDROOT
BRANCH   2   7
ATOM      7  C   UNL     1      -2.932  11.319  18.011  0.00  0.00    +0.000 A 
ATOM      8  C   UNL     1      -2.166  10.223  17.566  0.00  0.00    +0.000 A 
ATOM      9  C   UNL     1      -2.372   9.675  16.293  0.00  0.00    +0.000 A 
ATOM     10  C   UNL     1      -3.404  10.152  15.498  0.00  0.00    +0.000 A 
ATOM     11  F   UNL     1      -3.617   9.610  14.292  0.00  0.00    +0.000 F 
ATOM     12  C   UNL     1      -4.218  11.185  15.941  0.00  0.00    +0.000 A 
ATOM     13  C   UNL     1      -3.960  11.788  17.176  0.00  0.00    +0.000 A 
ENDBRANCH   2   7
BRANCH   4  14
ATOM     14  N   UNL     1      -3.395  13.533  22.549  0.00  0.00    +0.000 N 
ATOM     15  C   UNL     1      -4.237  12.784  23.509  0.00  0.00    +0.000 C 
ATOM     16  C   UNL     1      -3.831  13.170  24.956  0.00  0.00    +0.000 C 
ATOM     17  N   UNL     1      -3.880  14.619  25.218  0.00  0.00    +0.000 NA
ATOM     18  C   UNL     1      -3.115  15.350  24.188  0.00  0.00    +0.000 C 
ATOM     19  C   UNL     1      -3.531  14.994  22.736  0.00  0.00    +0.000 C 
ATOM     20  H   UNL     1      -3.468  14.799  26.132  0.00  0.00    +0.000 HD
ENDBRANCH   4  14
BRANCH   3  21
ATOM     21  C   UNL     1      -5.119  12.761  19.995  0.00  0.00    +0.000 A 
ATOM     22  C   UNL     1      -5.645  14.022  19.700  0.00  0.00    +0.000 A 
ATOM     23  C   UNL     1      -7.019  14.159  19.546  0.00  0.00    +0.000 A 
ATOM     24  N   UNL     1      -7.887  13.130  19.592  0.00  0.00    +0.000 NA
ATOM     25  C   UNL     1      -7.363  11.917  19.859  0.00  0.00    +0.000 A 
ATOM     26  C   UNL     1      -6.018  11.698  20.115  0.00  0.00    +0.000 A 
ENDBRANCH   3  21
BRANCH   1  28
ATOM     27  C   UNL     1       0.564  10.349  19.752  0.00  0.00    +0.000 C 
ATOM     28  C   UNL     1      -0.118  11.641  19.365  0.00  0.00    +0.000 C 
ATOM     29  O   UNL     1       0.505  12.347  18.568  0.00  0.00    +0.000 OA
ENDBRANCH   1  28
TORSDOF 4
ENDMDL
