MODEL 1
REMARK VINA RESULT:      -6.7      0.000      0.000
REMARK  Name = 
REMARK  6 active torsions:
REMARK  status: ('A' for Active; 'I' for Inactive)
REMARK    1  A    between atoms: N_1  and  C_2
REMARK    2  A    between atoms: C_7  and  C_8
REMARK    3  A    between atoms: C_8  and  N_9
REMARK    4  A    between atoms: N_9  and  C_10
REMARK    5  A    between atoms: C_10  and  N_12
REMARK    6  A    between atoms: N_12  and  C_13
REMARK                            x       y       z     vdW  Elec       q    Type
REMARK                         _______ _______ _______ _____ _____    ______ ____
ROOT
ATOM      1  N   UNL     1       4.048   7.189  17.519  0.00  0.00    +0.000 N 
ATOM      2  H   UNL     1       4.338   7.924  16.878  0.00  0.00    +0.000 HD
ENDROOT
BRANCH   1   3
ATOM      3  C   UNL     1       2.892   7.423  18.240  0.00  0.00    +0.000 C 
ATOM      4  S   UNL     1       1.833   8.689  17.950  0.00  0.00    +0.000 S 
BRANCH   3   5
ATOM      5  N   UNL     1       2.815   6.540  19.311  0.00  0.00    +0.000 N 
ATOM      6  H   UNL     1       2.989   6.993  20.200  0.00  0.00    +0.000 HD
BRANCH   5   7
ATOM      7  C   UNL     1       2.117   5.316  19.366  0.00  0.00    +0.000 A 
ATOM      8  C   UNL     1       1.870   4.573  18.209  0.00  0.00    +0.000 A 
ATOM      9  C   UNL     1       1.252   3.325  18.291  0.00  0.00    +0.000 A 
ATOM     10  C   UNL     1       0.864   2.816  19.528  0.00  0.00    +0.000 A 
ATOM     11  C   UNL     1       1.109   3.552  20.687  0.00  0.00    +0.000 A 
ATOM     12  C   UNL     1       1.749   4.792  20.611  0.00  0.00    +0.000 A 
ENDBRANCH   5   7
ENDBRANCH   3   5
ENDBRANCH   1   3
BRANCH   1  13
ATOM     13  C   UNL     1       5.074   6.190  17.819  0.00  0.00    +0.000 C 
BRANCH  13  19
ATOM     14  C   UNL     1       6.949   5.961  16.158  0.00  0.00    +0.000 A 
ATOM     15  N   UNL     1       7.548   5.402  15.089  0.00  0.00    +0.000 NA
ATOM     16  C   UNL     1       6.858   4.421  14.466  0.00  0.00    +0.000 A 
ATOM     17  C   UNL     1       5.613   4.000  14.895  0.00  0.00    +0.000 A 
ATOM     18  N   UNL     1       4.998   4.533  15.975  0.00  0.00    +0.000 NA
ATOM     19  C   UNL     1       5.687   5.531  16.605  0.00  0.00    +0.000 A 
BRANCH  14  20
ATOM     20  N   UNL     1       7.680   6.969  16.787  0.00  0.00    +0.000 N 
ATOM     21  H   UNL     1       7.144   7.828  16.669  0.00  0.00    +0.000 HD
ATOM     22  H   UNL     1       7.827   6.771  17.771  0.00  0.00    +0.000 HD
ENDBRANCH  14  20
ENDBRANCH  13  19
ENDBRANCH   1  13
TORSDOF 6
ENDMDL
MODEL 2
REMARK VINA RESULT:      -6.7      3.007      6.246
REMARK  Name = 
REMARK  6 active torsions:
REMARK  status: ('A' for Active; 'I' for Inactive)
REMARK    1  A    between atoms: N_1  and  C_2
REMARK    2  A    between atoms: C_7  and  C_8
REMARK    3  A    between atoms: C_8  and  N_9
REMARK    4  A    between atoms: N_9  and  C_10
REMARK    5  A    between atoms: C_10  and  N_12
REMARK    6  A    between atoms: N_12  and  C_13
REMARK                            x       y       z     vdW  Elec       q    Type
REMARK                         _______ _______ _______ _____ _____    ______ ____
ROOT
ATOM      1  N   UNL     1       3.288   3.499  16.922  0.00  0.00    +0.000 N 
ATOM      2  H   UNL     1       2.488   3.663  16.317  0.00  0.00    +0.000 HD
ENDROOT
BRANCH   1   3
ATOM      3  C   UNL     1       4.433   4.219  16.636  0.00  0.00    +0.000 C 
ATOM      4  S   UNL     1       5.550   3.797  15.460  0.00  0.00    +0.000 S 
BRANCH   3   5
ATOM      5  N   UNL     1       4.583   5.256  17.551  0.00  0.00    +0.000 N 
ATOM      6  H   UNL     1       3.823   5.297  18.218  0.00  0.00    +0.000 HD
BRANCH   5   7
ATOM      7  C   UNL     1       5.779   5.895  17.935  0.00  0.00    +0.000 A 
ATOM      8  C   UNL     1       6.579   5.378  18.957  0.00  0.00    +0.000 A 
ATOM      9  C   UNL     1       7.801   5.976  19.268  0.00  0.00    +0.000 A 
ATOM     10  C   UNL     1       8.226   7.103  18.568  0.00  0.00    +0.000 A 
ATOM     11  C   UNL     1       7.434   7.623  17.546  0.00  0.00    +0.000 A 
ATOM     12  C   UNL     1       6.220   7.012  17.216  0.00  0.00    +0.000 A 
ENDBRANCH   5   7
ENDBRANCH   3   5
ENDBRANCH   1   3
BRANCH   1  13
ATOM     13  C   UNL     1       3.201   2.297  17.751  0.00  0.00    +0.000 C 
BRANCH  13  19
ATOM     14  C   UNL     1       3.593   2.423  20.233  0.00  0.00    +0.000 A 
ATOM     15  N   UNL     1       3.202   2.636  21.503  0.00  0.00    +0.000 NA
ATOM     16  C   UNL     1       1.897   2.942  21.681  0.00  0.00    +0.000 A 
ATOM     17  C   UNL     1       1.008   3.044  20.627  0.00  0.00    +0.000 A 
ATOM     18  N   UNL     1       1.380   2.853  19.341  0.00  0.00    +0.000 NA
ATOM     19  C   UNL     1       2.696   2.535  19.155  0.00  0.00    +0.000 A 
BRANCH  14  20
ATOM     20  N   UNL     1       4.943   2.110  20.072  0.00  0.00    +0.000 N 
ATOM     21  H   UNL     1       5.455   2.985  20.183  0.00  0.00    +0.000 HD
ATOM     22  H   UNL     1       5.256   1.424  20.751  0.00  0.00    +0.000 HD
ENDBRANCH  14  20
ENDBRANCH  13  19
ENDBRANCH   1  13
TORSDOF 6
ENDMDL
MODEL 3
REMARK VINA RESULT:      -6.7      2.214      3.555
REMARK  Name = 
REMARK  6 active torsions:
REMARK  status: ('A' for Active; 'I' for Inactive)
REMARK    1  A    between atoms: N_1  and  C_2
REMARK    2  A    between atoms: C_7  and  C_8
REMARK    3  A    between atoms: C_8  and  N_9
REMARK    4  A    between atoms: N_9  and  C_10
REMARK    5  A    between atoms: C_10  and  N_12
REMARK    6  A    between atoms: N_12  and  C_13
REMARK                            x       y       z     vdW  Elec       q    Type
REMARK                         _______ _______ _______ _____ _____    ______ ____
ROOT
ATOM      1  N   UNL     1       3.619   4.054  18.990  0.00  0.00    +0.000 N 
ATOM      2  H   UNL     1       3.224   3.536  18.210  0.00  0.00    +0.000 HD
ENDROOT
BRANCH   1   3
ATOM      3  C   UNL     1       2.723   4.738  19.790  0.00  0.00    +0.000 C 
ATOM      4  S   UNL     1       1.293   4.093  20.379  0.00  0.00    +0.000 S 
BRANCH   3   5
ATOM      5  N   UNL     1       3.118   6.065  19.918  0.00  0.00    +0.000 N 
ATOM      6  H   UNL     1       4.124   6.166  19.977  0.00  0.00    +0.000 HD
BRANCH   5   7
ATOM      7  C   UNL     1       2.402   7.215  19.528  0.00  0.00    +0.000 A 
ATOM      8  C   UNL     1       1.663   7.955  20.455  0.00  0.00    +0.000 A 
ATOM      9  C   UNL     1       1.028   9.136  20.070  0.00  0.00    +0.000 A 
ATOM     10  C   UNL     1       1.116   9.579  18.752  0.00  0.00    +0.000 A 
ATOM     11  C   UNL     1       1.854   8.847  17.823  0.00  0.00    +0.000 A 
ATOM     12  C   UNL     1       2.510   7.676  18.211  0.00  0.00    +0.000 A 
ENDBRANCH   5   7
ENDBRANCH   3   5
ENDBRANCH   1   3
BRANCH   1  13
ATOM     13  C   UNL     1       5.065   4.268  18.922  0.00  0.00    +0.000 C 
BRANCH  13  19
ATOM     14  C   UNL     1       6.999   4.550  17.339  0.00  0.00    +0.000 A 
ATOM     15  N   UNL     1       7.539   4.720  16.117  0.00  0.00    +0.000 NA
ATOM     16  C   UNL     1       6.666   4.834  15.092  0.00  0.00    +0.000 A 
ATOM     17  C   UNL     1       5.296   4.772  15.271  0.00  0.00    +0.000 A 
ATOM     18  N   UNL     1       4.730   4.582  16.485  0.00  0.00    +0.000 NA
ATOM     19  C   UNL     1       5.607   4.475  17.528  0.00  0.00    +0.000 A 
BRANCH  14  20
ATOM     20  N   UNL     1       7.918   4.432  18.382  0.00  0.00    +0.000 N 
ATOM     21  H   UNL     1       7.862   5.299  18.914  0.00  0.00    +0.000 HD
ATOM     22  H   UNL     1       7.717   3.634  18.975  0.00  0.00    +0.000 HD
ENDBRANCH  14  20
ENDBRANCH  13  19
ENDBRANCH   1  13
TORSDOF 6
ENDMDL
MODEL 4
REMARK VINA RESULT:      -6.6      2.455      2.886
REMARK  Name = 
REMARK  6 active torsions:
REMARK  status: ('A' for Active; 'I' for Inactive)
REMARK    1  A    between atoms: N_1  and  C_2
REMARK    2  A    between atoms: C_7  and  C_8
REMARK    3  A    between atoms: C_8  and  N_9
REMARK    4  A    between atoms: N_9  and  C_10
REMARK    5  A    between atoms: C_10  and  N_12
REMARK    6  A    between atoms: N_12  and  C_13
REMARK                            x       y       z     vdW  Elec       q    Type
REMARK                         _______ _______ _______ _____ _____    ______ ____
ROOT
ATOM      1  N   UNL     1       5.666   3.694  17.171  0.00  0.00    +0.000 N 
ATOM      2  H   UNL     1       5.939   2.733  16.982  0.00  0.00    +0.000 HD
ENDROOT
BRANCH   1   3
ATOM      3  C   UNL     1       5.597   4.063  18.502  0.00  0.00    +0.000 C 
ATOM      4  S   UNL     1       6.386   5.386  19.161  0.00  0.00    +0.000 S 
BRANCH   3   5
ATOM      5  N   UNL     1       4.892   3.107  19.224  0.00  0.00    +0.000 N 
ATOM      6  H   UNL     1       5.476   2.614  19.888  0.00  0.00    +0.000 HD
BRANCH   5   7
ATOM      7  C   UNL     1       3.505   3.069  19.472  0.00  0.00    +0.000 A 
ATOM      8  C   UNL     1       2.898   3.996  20.324  0.00  0.00    +0.000 A 
ATOM      9  C   UNL     1       1.513   3.997  20.493  0.00  0.00    +0.000 A 
ATOM     10  C   UNL     1       0.726   3.063  19.823  0.00  0.00    +0.000 A 
ATOM     11  C   UNL     1       1.324   2.137  18.970  0.00  0.00    +0.000 A 
ATOM     12  C   UNL     1       2.710   2.149  18.780  0.00  0.00    +0.000 A 
ENDBRANCH   5   7
ENDBRANCH   3   5
ENDBRANCH   1   3
BRANCH   1  13
ATOM     13  C   UNL     1       5.066   4.401  16.039  0.00  0.00    +0.000 C 
BRANCH  13  19
ATOM     14  C   UNL     1       7.055   5.299  14.791  0.00  0.00    +0.000 A 
ATOM     15  N   UNL     1       7.868   5.380  13.720  0.00  0.00    +0.000 NA
ATOM     16  C   UNL     1       7.524   4.622  12.654  0.00  0.00    +0.000 A 
ATOM     17  C   UNL     1       6.412   3.800  12.654  0.00  0.00    +0.000 A 
ATOM     18  N   UNL     1       5.592   3.687  13.724  0.00  0.00    +0.000 NA
ATOM     19  C   UNL     1       5.929   4.457  14.801  0.00  0.00    +0.000 A 
BRANCH  14  20
ATOM     20  N   UNL     1       7.430   6.087  15.879  0.00  0.00    +0.000 N 
ATOM     21  H   UNL     1       8.275   5.665  16.262  0.00  0.00    +0.000 HD
ATOM     22  H   UNL     1       7.601   7.049  15.609  0.00  0.00    +0.000 HD
ENDBRANCH  14  20
ENDBRANCH  13  19
ENDBRANCH   1  13
TORSDOF 6
ENDMDL
MODEL 5
REMARK VINA RESULT:      -6.5      3.000      6.201
REMARK  Name = 
REMARK  6 active torsions:
REMARK  status: ('A' for Active; 'I' for Inactive)
REMARK    1  A    between atoms: N_1  and  C_2
REMARK    2  A    between atoms: C_7  and  C_8
REMARK    3  A    between atoms: C_8  and  N_9
REMARK    4  A    between atoms: N_9  and  C_10
REMARK    5  A    between atoms: C_10  and  N_12
REMARK    6  A    between atoms: N_12  and  C_13
REMARK                            x       y       z     vdW  Elec       q    Type
REMARK                         _______ _______ _______ _____ _____    ______ ____
ROOT
ATOM      1  N   UNL     1       3.203   3.809  16.991  0.00  0.00    +0.000 N 
ATOM      2  H   UNL     1       2.409   4.216  16.505  0.00  0.00    +0.000 HD
ENDROOT
BRANCH   1   3
ATOM      3  C   UNL     1       4.444   4.345  16.699  0.00  0.00    +0.000 C 
ATOM      4  S   UNL     1       5.549   3.656  15.645  0.00  0.00    +0.000 S 
BRANCH   3   5
ATOM      5  N   UNL     1       4.684   5.454  17.503  0.00  0.00    +0.000 N 
ATOM      6  H   UNL     1       3.924   5.637  18.146  0.00  0.00    +0.000 HD
BRANCH   5   7
ATOM      7  C   UNL     1       5.933   6.013  17.841  0.00  0.00    +0.000 A 
ATOM      8  C   UNL     1       6.411   7.157  17.198  0.00  0.00    +0.000 A 
ATOM      9  C   UNL     1       7.609   7.746  17.603  0.00  0.00    +0.000 A 
ATOM     10  C   UNL     1       8.346   7.187  18.644  0.00  0.00    +0.000 A 
ATOM     11  C   UNL     1       7.874   6.046  19.292  0.00  0.00    +0.000 A 
ATOM     12  C   UNL     1       6.661   5.468  18.905  0.00  0.00    +0.000 A 
ENDBRANCH   5   7
ENDBRANCH   3   5
ENDBRANCH   1   3
BRANCH   1  13
ATOM     13  C   UNL     1       2.941   2.522  17.635  0.00  0.00    +0.000 C 
BRANCH  13  19
ATOM     14  C   UNL     1       3.581   2.480  20.068  0.00  0.00    +0.000 A 
ATOM     15  N   UNL     1       3.311   2.563  21.384  0.00  0.00    +0.000 NA
ATOM     16  C   UNL     1       2.015   2.760  21.715  0.00  0.00    +0.000 A 
ATOM     17  C   UNL     1       1.016   2.881  20.766  0.00  0.00    +0.000 A 
ATOM     18  N   UNL     1       1.264   2.819  19.438  0.00  0.00    +0.000 NA
ATOM     19  C   UNL     1       2.571   2.611  19.097  0.00  0.00    +0.000 A 
BRANCH  14  20
ATOM     20  N   UNL     1       4.924   2.279  19.749  0.00  0.00    +0.000 N 
ATOM     21  H   UNL     1       5.464   2.678  20.517  0.00  0.00    +0.000 HD
ATOM     22  H   UNL     1       5.142   1.295  19.632  0.00  0.00    +0.000 HD
ENDBRANCH  14  20
ENDBRANCH  13  19
ENDBRANCH   1  13
TORSDOF 6
ENDMDL
MODEL 6
REMARK VINA RESULT:      -6.5      1.296      1.321
REMARK  Name = 
REMARK  6 active torsions:
REMARK  status: ('A' for Active; 'I' for Inactive)
REMARK    1  A    between atoms: N_1  and  C_2
REMARK    2  A    between atoms: C_7  and  C_8
REMARK    3  A    between atoms: C_8  and  N_9
REMARK    4  A    between atoms: N_9  and  C_10
REMARK    5  A    between atoms: C_10  and  N_12
REMARK    6  A    between atoms: N_12  and  C_13
REMARK                            x       y       z     vdW  Elec       q    Type
REMARK                         _______ _______ _______ _____ _____    ______ ____
ROOT
ATOM      1  N   UNL     1       4.558   5.912  19.168  0.00  0.00    +0.000 N 
ATOM      2  H   UNL     1       5.016   6.300  19.988  0.00  0.00    +0.000 HD
ENDROOT
BRANCH   1   3
ATOM      3  C   UNL     1       3.354   6.487  18.806  0.00  0.00    +0.000 C 
ATOM      4  S   UNL     1       3.186   7.687  17.648  0.00  0.00    +0.000 S 
BRANCH   3   5
ATOM      5  N   UNL     1       2.338   6.021  19.632  0.00  0.00    +0.000 N 
ATOM      6  H   UNL     1       1.719   6.760  19.940  0.00  0.00    +0.000 HD
BRANCH   5   7
ATOM      7  C   UNL     1       1.821   4.711  19.701  0.00  0.00    +0.000 A 
ATOM      8  C   UNL     1       1.479   4.007  18.544  0.00  0.00    +0.000 A 
ATOM      9  C   UNL     1       1.048   2.683  18.625  0.00  0.00    +0.000 A 
ATOM     10  C   UNL     1       0.942   2.056  19.864  0.00  0.00    +0.000 A 
ATOM     11  C   UNL     1       1.284   2.752  21.023  0.00  0.00    +0.000 A 
ATOM     12  C   UNL     1       1.739   4.072  20.944  0.00  0.00    +0.000 A 
ENDBRANCH   5   7
ENDBRANCH   3   5
ENDBRANCH   1   3
BRANCH   1  13
ATOM     13  C   UNL     1       5.066   4.610  18.733  0.00  0.00    +0.000 C 
BRANCH  13  19
ATOM     14  C   UNL     1       7.104   4.637  17.260  0.00  0.00    +0.000 A 
ATOM     15  N   UNL     1       7.726   4.623  16.065  0.00  0.00    +0.000 NA
ATOM     16  C   UNL     1       6.924   4.599  14.978  0.00  0.00    +0.000 A 
ATOM     17  C   UNL     1       5.544   4.579  15.072  0.00  0.00    +0.000 A 
ATOM     18  N   UNL     1       4.897   4.574  16.260  0.00  0.00    +0.000 NA
ATOM     19  C   UNL     1       5.702   4.607  17.363  0.00  0.00    +0.000 A 
BRANCH  14  20
ATOM     20  N   UNL     1       7.951   4.659  18.368  0.00  0.00    +0.000 N 
ATOM     21  H   UNL     1       8.580   5.449  18.233  0.00  0.00    +0.000 HD
ATOM     22  H   UNL     1       7.435   4.756  19.236  0.00  0.00    +0.000 HD
ENDBRANCH  14  20
ENDBRANCH  13  19
ENDBRANCH   1  13
TORSDOF 6
ENDMDL
MODEL 7
REMARK VINA RESULT:      -6.5      1.957      3.168
REMARK  Name = 
REMARK  6 active torsions:
REMARK  status: ('A' for Active; 'I' for Inactive)
REMARK    1  A    between atoms: N_1  and  C_2
REMARK    2  A    between atoms: C_7  and  C_8
REMARK    3  A    between atoms: C_8  and  N_9
REMARK    4  A    between atoms: N_9  and  C_10
REMARK    5  A    between atoms: C_10  and  N_12
REMARK    6  A    between atoms: N_12  and  C_13
REMARK                            x       y       z     vdW  Elec       q    Type
REMARK                         _______ _______ _______ _____ _____    ______ ____
ROOT
ATOM      1  N   UNL     1       4.307   4.103  19.175  0.00  0.00    +0.000 N 
ATOM      2  H   UNL     1       4.380   3.097  19.050  0.00  0.00    +0.000 HD
ENDROOT
BRANCH   1   3
ATOM      3  C   UNL     1       3.028   4.621  19.262  0.00  0.00    +0.000 C 
ATOM      4  S   UNL     1       1.683   3.955  18.516  0.00  0.00    +0.000 S 
BRANCH   3   5
ATOM      5  N   UNL     1       3.052   5.834  19.940  0.00  0.00    +0.000 N 
ATOM      6  H   UNL     1       3.802   5.884  20.618  0.00  0.00    +0.000 HD
BRANCH   5   7
ATOM      7  C   UNL     1       2.521   7.067  19.511  0.00  0.00    +0.000 A 
ATOM      8  C   UNL     1       2.732   7.532  18.211  0.00  0.00    +0.000 A 
ATOM      9  C   UNL     1       2.130   8.714  17.777  0.00  0.00    +0.000 A 
ATOM     10  C   UNL     1       1.323   9.446  18.644  0.00  0.00    +0.000 A 
ATOM     11  C   UNL     1       1.106   8.987  19.943  0.00  0.00    +0.000 A 
ATOM     12  C   UNL     1       1.689   7.791  20.373  0.00  0.00    +0.000 A 
ENDBRANCH   5   7
ENDBRANCH   3   5
ENDBRANCH   1   3
BRANCH   1  13
ATOM     13  C   UNL     1       5.531   4.852  18.891  0.00  0.00    +0.000 C 
BRANCH  13  19
ATOM     14  C   UNL     1       6.974   5.690  17.009  0.00  0.00    +0.000 A 
ATOM     15  N   UNL     1       7.432   5.668  15.743  0.00  0.00    +0.000 NA
ATOM     16  C   UNL     1       6.881   4.743  14.926  0.00  0.00    +0.000 A 
ATOM     17  C   UNL     1       5.909   3.857  15.355  0.00  0.00    +0.000 A 
ATOM     18  N   UNL     1       5.447   3.847  16.626  0.00  0.00    +0.000 NA
ATOM     19  C   UNL     1       5.993   4.785  17.454  0.00  0.00    +0.000 A 
BRANCH  14  20
ATOM     20  N   UNL     1       7.558   6.651  17.834  0.00  0.00    +0.000 N 
ATOM     21  H   UNL     1       7.058   7.521  17.660  0.00  0.00    +0.000 HD
ATOM     22  H   UNL     1       7.500   6.394  18.814  0.00  0.00    +0.000 HD
ENDBRANCH  14  20
ENDBRANCH  13  19
ENDBRANCH   1  13
TORSDOF 6
ENDMDL
MODEL 8
REMARK VINA RESULT:      -6.5      0.605      1.256
REMARK  Name = 
REMARK  6 active torsions:
REMARK  status: ('A' for Active; 'I' for Inactive)
REMARK    1  A    between atoms: N_1  and  C_2
REMARK    2  A    between atoms: C_7  and  C_8
REMARK    3  A    between atoms: C_8  and  N_9
REMARK    4  A    between atoms: N_9  and  C_10
REMARK    5  A    between atoms: C_10  and  N_12
REMARK    6  A    between atoms: N_12  and  C_13
REMARK                            x       y       z     vdW  Elec       q    Type
REMARK                         _______ _______ _______ _____ _____    ______ ____
ROOT
ATOM      1  N   UNL     1       4.276   7.010  17.842  0.00  0.00    +0.000 N 
ATOM      2  H   UNL     1       4.736   7.914  17.895  0.00  0.00    +0.000 HD
ENDROOT
BRANCH   1   3
ATOM      3  C   UNL     1       2.899   7.012  17.968  0.00  0.00    +0.000 C 
ATOM      4  S   UNL     1       1.994   8.334  18.458  0.00  0.00    +0.000 S 
BRANCH   3   5
ATOM      5  N   UNL     1       2.401   5.731  17.758  0.00  0.00    +0.000 N 
ATOM      6  H   UNL     1       2.653   5.360  16.851  0.00  0.00    +0.000 HD
BRANCH   5   7
ATOM      7  C   UNL     1       2.035   4.782  18.735  0.00  0.00    +0.000 A 
ATOM      8  C   UNL     1       2.216   5.040  20.096  0.00  0.00    +0.000 A 
ATOM      9  C   UNL     1       1.772   4.126  21.052  0.00  0.00    +0.000 A 
ATOM     10  C   UNL     1       1.157   2.941  20.655  0.00  0.00    +0.000 A 
ATOM     11  C   UNL     1       0.973   2.678  19.298  0.00  0.00    +0.000 A 
ATOM     12  C   UNL     1       1.395   3.603  18.338  0.00  0.00    +0.000 A 
ENDBRANCH   5   7
ENDBRANCH   3   5
ENDBRANCH   1   3
BRANCH   1  13
ATOM     13  C   UNL     1       5.161   5.854  17.995  0.00  0.00    +0.000 C 
BRANCH  13  19
ATOM     14  C   UNL     1       6.895   5.803  16.173  0.00  0.00    +0.000 A 
ATOM     15  N   UNL     1       7.423   5.331  15.028  0.00  0.00    +0.000 NA
ATOM     16  C   UNL     1       6.721   4.357  14.406  0.00  0.00    +0.000 A 
ATOM     17  C   UNL     1       5.535   3.858  14.911  0.00  0.00    +0.000 A 
ATOM     18  N   UNL     1       4.994   4.301  16.069  0.00  0.00    +0.000 NA
ATOM     19  C   UNL     1       5.694   5.292  16.698  0.00  0.00    +0.000 A 
BRANCH  14  20
ATOM     20  N   UNL     1       7.636   6.806  16.799  0.00  0.00    +0.000 N 
ATOM     21  H   UNL     1       7.637   7.601  16.162  0.00  0.00    +0.000 HD
ATOM     22  H   UNL     1       7.240   7.065  17.696  0.00  0.00    +0.000 HD
ENDBRANCH  14  20
ENDBRANCH  13  19
ENDBRANCH   1  13
TORSDOF 6
ENDMDL
MODEL 9
REMARK VINA RESULT:      -6.4      2.567      6.344
REMARK  Name = 
REMARK  6 active torsions:
REMARK  status: ('A' for Active; 'I' for Inactive)
REMARK    1  A    between atoms: N_1  and  C_2
REMARK    2  A    between atoms: C_7  and  C_8
REMARK    3  A    between atoms: C_8  and  N_9
REMARK    4  A    between atoms: N_9  and  C_10
REMARK    5  A    between atoms: C_10  and  N_12
REMARK    6  A    between atoms: N_12  and  C_13
REMARK                            x       y       z     vdW  Elec       q    Type
REMARK                         _______ _______ _______ _____ _____    ______ ____
ROOT
ATOM      1  N   UNL     1       6.317   4.386  17.450  0.00  0.00    +0.000 N 
ATOM      2  H   UNL     1       6.919   3.592  17.248  0.00  0.00    +0.000 HD
ENDROOT
BRANCH   1   3
ATOM      3  C   UNL     1       6.557   5.540  16.727  0.00  0.00    +0.000 C 
ATOM      4  S   UNL     1       5.790   7.005  16.998  0.00  0.00    +0.000 S 
BRANCH   3   5
ATOM      5  N   UNL     1       7.418   5.267  15.670  0.00  0.00    +0.000 N 
ATOM      6  H   UNL     1       8.353   5.038  15.981  0.00  0.00    +0.000 HD
BRANCH   5   7
ATOM      7  C   UNL     1       7.073   4.837  14.372  0.00  0.00    +0.000 A 
ATOM      8  C   UNL     1       7.855   5.179  13.266  0.00  0.00    +0.000 A 
ATOM      9  C   UNL     1       7.548   4.676  12.002  0.00  0.00    +0.000 A 
ATOM     10  C   UNL     1       6.448   3.838  11.831  0.00  0.00    +0.000 A 
ATOM     11  C   UNL     1       5.664   3.491  12.931  0.00  0.00    +0.000 A 
ATOM     12  C   UNL     1       5.984   3.975  14.203  0.00  0.00    +0.000 A 
ENDBRANCH   5   7
ENDBRANCH   3   5
ENDBRANCH   1   3
BRANCH   1  13
ATOM     13  C   UNL     1       5.553   4.281  18.694  0.00  0.00    +0.000 C 
BRANCH  13  19
ATOM     14  C   UNL     1       3.885   2.448  19.120  0.00  0.00    +0.000 A 
ATOM     15  N   UNL     1       2.666   1.883  19.023  0.00  0.00    +0.000 NA
ATOM     16  C   UNL     1       1.745   2.575  18.316  0.00  0.00    +0.000 A 
ATOM     17  C   UNL     1       2.021   3.798  17.731  0.00  0.00    +0.000 A 
ATOM     18  N   UNL     1       3.231   4.394  17.831  0.00  0.00    +0.000 NA
ATOM     19  C   UNL     1       4.169   3.695  18.536  0.00  0.00    +0.000 A 
BRANCH  14  20
ATOM     20  N   UNL     1       4.819   1.718  19.855  0.00  0.00    +0.000 N 
ATOM     21  H   UNL     1       5.735   2.092  19.608  0.00  0.00    +0.000 HD
ATOM     22  H   UNL     1       4.658   1.795  20.853  0.00  0.00    +0.000 HD
ENDBRANCH  14  20
ENDBRANCH  13  19
ENDBRANCH   1  13
TORSDOF 6
ENDMDL
