MODEL 1
REMARK VINA RESULT:      -7.4      0.000      0.000
REMARK  Name = 
REMARK  5 active torsions:
REMARK  status: ('A' for Active; 'I' for Inactive)
REMARK    1  A    between atoms: C_1  and  C_2
REMARK    2  A    between atoms: C_4  and  C_5
REMARK    3  A    between atoms: C_6  and  N_7
REMARK    4  A    between atoms: C_8  and  C_10
REMARK    5  A    between atoms: C_22  and  C_23
REMARK                            x       y       z     vdW  Elec       q    Type
REMARK                         _______ _______ _______ _____ _____    ______ ____
ROOT
ATOM      1  N   UNL     1       0.823  10.643  20.673  0.00  0.00    +0.000 N 
ATOM      2  C   UNL     1       0.416  10.047  19.491  0.00  0.00    +0.000 C 
ATOM      3  O   UNL     1      -0.684  10.221  18.975  0.00  0.00    +0.000 OA
ATOM      4  H   UNL     1       1.522  10.119  21.179  0.00  0.00    +0.000 HD
ENDROOT
BRANCH   2   5
ATOM      5  C   UNL     1       1.381   9.123  18.930  0.00  0.00    +0.000 A 
ATOM      6  C   UNL     1       2.069   9.265  17.745  0.00  0.00    +0.000 A 
ATOM      7  N   UNL     1       2.973   8.267  17.465  0.00  0.00    +0.000 NA
ATOM      8  C   UNL     1       2.999   7.368  18.420  0.00  0.00    +0.000 A 
ATOM      9  N   UNL     1       3.781   6.268  18.469  0.00  0.00    +0.000 N 
ATOM     10  C   UNL     1       4.483   5.696  17.408  0.00  0.00    +0.000 A 
ATOM     11  C   UNL     1       4.864   6.398  16.266  0.00  0.00    +0.000 A 
ATOM     12  C   UNL     1       5.456   5.727  15.201  0.00  0.00    +0.000 A 
ATOM     13  C   UNL     1       5.695   4.369  15.311  0.00  0.00    +0.000 A 
ATOM     14  C   UNL     1       5.351   3.748  16.498  0.00  0.00    +0.000 A 
ATOM     15  N   UNL     1       4.760   4.379  17.541  0.00  0.00    +0.000 NA
ATOM     16  S   UNL     1       1.872   7.672  19.696  0.00  0.00    +0.000 S 
ATOM     17  H   UNL     1       3.613   5.564  19.178  0.00  0.00    +0.000 HD
ENDBRANCH   2   5
BRANCH   1  23
ATOM     18  C   UNL     1      -2.352  14.165  23.874  0.00  0.00    +0.000 C 
ATOM     19  C   UNL     1      -1.538  13.237  23.023  0.00  0.00    +0.000 A 
ATOM     20  C   UNL     1      -1.430  11.880  23.335  0.00  0.00    +0.000 A 
ATOM     21  C   UNL     1      -0.650  11.017  22.550  0.00  0.00    +0.000 A 
ATOM     22  C   UNL     1      -0.619   9.553  22.898  0.00  0.00    +0.000 C 
ATOM     23  C   UNL     1       0.024  11.530  21.421  0.00  0.00    +0.000 A 
ATOM     24  C   UNL     1      -0.045  12.903  21.115  0.00  0.00    +0.000 A 
ATOM     25  C   UNL     1       0.737  13.553  20.006  0.00  0.00    +0.000 C 
ATOM     26  C   UNL     1      -0.851  13.736  21.912  0.00  0.00    +0.000 A 
ENDBRANCH   1  23
TORSDOF 2
ENDMDL
MODEL 2
REMARK VINA RESULT:      -7.3      0.297      1.798
REMARK  Name = 
REMARK  5 active torsions:
REMARK  status: ('A' for Active; 'I' for Inactive)
REMARK    1  A    between atoms: C_1  and  C_2
REMARK    2  A    between atoms: C_4  and  C_5
REMARK    3  A    between atoms: C_6  and  N_7
REMARK    4  A    between atoms: C_8  and  C_10
REMARK    5  A    between atoms: C_22  and  C_23
REMARK                            x       y       z     vdW  Elec       q    Type
REMARK                         _______ _______ _______ _____ _____    ______ ____
ROOT
ATOM      1  N   UNL     1       0.854  10.864  20.595  0.00  0.00    +0.000 N 
ATOM      2  C   UNL     1       0.352  10.076  19.573  0.00  0.00    +0.000 C 
ATOM      3  O   UNL     1      -0.821  10.086  19.210  0.00  0.00    +0.000 OA
ATOM      4  H   UNL     1       1.666  10.475  21.054  0.00  0.00    +0.000 HD
ENDROOT
BRANCH   2   5
ATOM      5  C   UNL     1       1.318   9.164  18.996  0.00  0.00    +0.000 A 
ATOM      6  C   UNL     1       2.008   9.328  17.816  0.00  0.00    +0.000 A 
ATOM      7  N   UNL     1       2.913   8.336  17.519  0.00  0.00    +0.000 NA
ATOM      8  C   UNL     1       2.938   7.420  18.458  0.00  0.00    +0.000 A 
ATOM      9  N   UNL     1       3.721   6.319  18.488  0.00  0.00    +0.000 N 
ATOM     10  C   UNL     1       4.425   5.768  17.417  0.00  0.00    +0.000 A 
ATOM     11  C   UNL     1       4.808   6.492  16.289  0.00  0.00    +0.000 A 
ATOM     12  C   UNL     1       5.402   5.841  15.213  0.00  0.00    +0.000 A 
ATOM     13  C   UNL     1       5.642   4.480  15.299  0.00  0.00    +0.000 A 
ATOM     14  C   UNL     1       5.297   3.838  16.473  0.00  0.00    +0.000 A 
ATOM     15  N   UNL     1       4.703   4.449  17.526  0.00  0.00    +0.000 NA
ATOM     16  S   UNL     1       1.809   7.699  19.737  0.00  0.00    +0.000 S 
ATOM     17  H   UNL     1       3.553   5.603  19.183  0.00  0.00    +0.000 HD
ENDBRANCH   2   5
BRANCH   1  23
ATOM     18  C   UNL     1      -2.358  14.653  23.433  0.00  0.00    +0.000 C 
ATOM     19  C   UNL     1      -1.499  13.666  22.701  0.00  0.00    +0.000 A 
ATOM     20  C   UNL     1      -0.795  14.035  21.552  0.00  0.00    +0.000 A 
ATOM     21  C   UNL     1      -0.009  13.105  20.856  0.00  0.00    +0.000 A 
ATOM     22  C   UNL     1       0.776  13.573  19.659  0.00  0.00    +0.000 C 
ATOM     23  C   UNL     1       0.081  11.780  21.335  0.00  0.00    +0.000 A 
ATOM     24  C   UNL     1      -0.653  11.384  22.470  0.00  0.00    +0.000 A 
ATOM     25  C   UNL     1      -0.711   9.968  22.975  0.00  0.00    +0.000 C 
ATOM     26  C   UNL     1      -1.416  12.346  23.154  0.00  0.00    +0.000 A 
ENDBRANCH   1  23
TORSDOF 2
ENDMDL
MODEL 3
REMARK VINA RESULT:      -7.2      1.483      1.776
REMARK  Name = 
REMARK  5 active torsions:
REMARK  status: ('A' for Active; 'I' for Inactive)
REMARK    1  A    between atoms: C_1  and  C_2
REMARK    2  A    between atoms: C_4  and  C_5
REMARK    3  A    between atoms: C_6  and  N_7
REMARK    4  A    between atoms: C_8  and  C_10
REMARK    5  A    between atoms: C_22  and  C_23
REMARK                            x       y       z     vdW  Elec       q    Type
REMARK                         _______ _______ _______ _____ _____    ______ ____
ROOT
ATOM      1  N   UNL     1       0.748  11.256  21.088  0.00  0.00    +0.000 N 
ATOM      2  C   UNL     1       0.386  10.643  19.900  0.00  0.00    +0.000 C 
ATOM      3  O   UNL     1      -0.494  11.059  19.151  0.00  0.00    +0.000 OA
ATOM      4  H   UNL     1       1.144  10.627  21.772  0.00  0.00    +0.000 HD
ENDROOT
BRANCH   2   5
ATOM      5  C   UNL     1       1.089   9.405  19.634  0.00  0.00    +0.000 A 
ATOM      6  C   UNL     1       1.652   9.015  18.439  0.00  0.00    +0.000 A 
ATOM      7  N   UNL     1       2.314   7.809  18.465  0.00  0.00    +0.000 NA
ATOM      8  C   UNL     1       2.277   7.273  19.661  0.00  0.00    +0.000 A 
ATOM      9  N   UNL     1       2.837   6.103  20.037  0.00  0.00    +0.000 N 
ATOM     10  C   UNL     1       3.294   5.089  19.194  0.00  0.00    +0.000 A 
ATOM     11  C   UNL     1       3.669   5.297  17.867  0.00  0.00    +0.000 A 
ATOM     12  C   UNL     1       3.999   4.214  17.059  0.00  0.00    +0.000 A 
ATOM     13  C   UNL     1       3.987   2.941  17.602  0.00  0.00    +0.000 A 
ATOM     14  C   UNL     1       3.669   2.815  18.942  0.00  0.00    +0.000 A 
ATOM     15  N   UNL     1       3.330   3.854  19.742  0.00  0.00    +0.000 NA
ATOM     16  S   UNL     1       1.380   8.198  20.814  0.00  0.00    +0.000 S 
ATOM     17  H   UNL     1       2.621   5.712  20.945  0.00  0.00    +0.000 HD
ENDBRANCH   2   5
BRANCH   1  23
ATOM     18  C   UNL     1      -1.644  15.985  23.245  0.00  0.00    +0.000 C 
ATOM     19  C   UNL     1      -1.033  14.744  22.665  0.00  0.00    +0.000 A 
ATOM     20  C   UNL     1      -1.399  13.478  23.126  0.00  0.00    +0.000 A 
ATOM     21  C   UNL     1      -0.811  12.318  22.597  0.00  0.00    +0.000 A 
ATOM     22  C   UNL     1      -1.287  10.977  23.089  0.00  0.00    +0.000 C 
ATOM     23  C   UNL     1       0.155  12.438  21.575  0.00  0.00    +0.000 A 
ATOM     24  C   UNL     1       0.561  13.710  21.126  0.00  0.00    +0.000 A 
ATOM     25  C   UNL     1       1.667  13.932  20.131  0.00  0.00    +0.000 C 
ATOM     26  C   UNL     1      -0.062  14.850  21.665  0.00  0.00    +0.000 A 
ENDBRANCH   1  23
TORSDOF 2
ENDMDL
MODEL 4
REMARK VINA RESULT:      -7.1      1.322      1.645
REMARK  Name = 
REMARK  5 active torsions:
REMARK  status: ('A' for Active; 'I' for Inactive)
REMARK    1  A    between atoms: C_1  and  C_2
REMARK    2  A    between atoms: C_4  and  C_5
REMARK    3  A    between atoms: C_6  and  N_7
REMARK    4  A    between atoms: C_8  and  C_10
REMARK    5  A    between atoms: C_22  and  C_23
REMARK                            x       y       z     vdW  Elec       q    Type
REMARK                         _______ _______ _______ _____ _____    ______ ____
ROOT
ATOM      1  N   UNL     1       0.547  10.872  20.796  0.00  0.00    +0.000 N 
ATOM      2  C   UNL     1       0.160  10.014  19.781  0.00  0.00    +0.000 C 
ATOM      3  O   UNL     1      -0.982   9.945  19.336  0.00  0.00    +0.000 OA
ATOM      4  H   UNL     1       1.341  10.547  21.330  0.00  0.00    +0.000 HD
ENDROOT
BRANCH   2   5
ATOM      5  C   UNL     1       1.211   9.129  19.320  0.00  0.00    +0.000 A 
ATOM      6  C   UNL     1       1.734   8.046  19.991  0.00  0.00    +0.000 A 
ATOM      7  N   UNL     1       2.690   7.333  19.306  0.00  0.00    +0.000 NA
ATOM      8  C   UNL     1       2.901   7.844  18.117  0.00  0.00    +0.000 A 
ATOM      9  N   UNL     1       3.762   7.382  17.184  0.00  0.00    +0.000 N 
ATOM     10  C   UNL     1       4.807   6.481  17.387  0.00  0.00    +0.000 A 
ATOM     11  C   UNL     1       4.851   5.574  18.446  0.00  0.00    +0.000 A 
ATOM     12  C   UNL     1       5.985   4.793  18.647  0.00  0.00    +0.000 A 
ATOM     13  C   UNL     1       7.042   4.902  17.761  0.00  0.00    +0.000 A 
ATOM     14  C   UNL     1       6.904   5.773  16.696  0.00  0.00    +0.000 A 
ATOM     15  N   UNL     1       5.817   6.554  16.491  0.00  0.00    +0.000 NA
ATOM     16  S   UNL     1       1.971   9.264  17.790  0.00  0.00    +0.000 S 
ATOM     17  H   UNL     1       3.955   7.938  16.360  0.00  0.00    +0.000 HD
ENDBRANCH   2   5
BRANCH   1  23
ATOM     18  C   UNL     1      -2.907  14.504  23.555  0.00  0.00    +0.000 C 
ATOM     19  C   UNL     1      -2.019  13.544  22.822  0.00  0.00    +0.000 A 
ATOM     20  C   UNL     1      -1.768  12.265  23.325  0.00  0.00    +0.000 A 
ATOM     21  C   UNL     1      -0.919  11.376  22.649  0.00  0.00    +0.000 A 
ATOM     22  C   UNL     1      -0.732   9.990  23.206  0.00  0.00    +0.000 C 
ATOM     23  C   UNL     1      -0.323  11.778  21.434  0.00  0.00    +0.000 A 
ATOM     24  C   UNL     1      -0.538  13.077  20.933  0.00  0.00    +0.000 A 
ATOM     25  C   UNL     1       0.152  13.627  19.715  0.00  0.00    +0.000 C 
ATOM     26  C   UNL     1      -1.408  13.936  21.627  0.00  0.00    +0.000 A 
ENDBRANCH   1  23
TORSDOF 2
ENDMDL
MODEL 5
REMARK VINA RESULT:      -7.0      1.291      2.386
REMARK  Name = 
REMARK  5 active torsions:
REMARK  status: ('A' for Active; 'I' for Inactive)
REMARK    1  A    between atoms: C_1  and  C_2
REMARK    2  A    between atoms: C_4  and  C_5
REMARK    3  A    between atoms: C_6  and  N_7
REMARK    4  A    between atoms: C_8  and  C_10
REMARK    5  A    between atoms: C_22  and  C_23
REMARK                            x       y       z     vdW  Elec       q    Type
REMARK                         _______ _______ _______ _____ _____    ______ ____
ROOT
ATOM      1  N   UNL     1       0.745  10.838  20.712  0.00  0.00    +0.000 N 
ATOM      2  C   UNL     1       0.290   9.888  19.814  0.00  0.00    +0.000 C 
ATOM      3  O   UNL     1      -0.889   9.743  19.504  0.00  0.00    +0.000 OA
ATOM      4  H   UNL     1       1.605  10.586  21.178  0.00  0.00    +0.000 HD
ENDROOT
BRANCH   2   5
ATOM      5  C   UNL     1       1.323   9.006  19.308  0.00  0.00    +0.000 A 
ATOM      6  C   UNL     1       1.812   7.872  19.916  0.00  0.00    +0.000 A 
ATOM      7  N   UNL     1       2.758   7.179  19.197  0.00  0.00    +0.000 NA
ATOM      8  C   UNL     1       2.993   7.756  18.043  0.00  0.00    +0.000 A 
ATOM      9  N   UNL     1       3.852   7.330  17.091  0.00  0.00    +0.000 N 
ATOM     10  C   UNL     1       4.872   6.392  17.248  0.00  0.00    +0.000 A 
ATOM     11  C   UNL     1       4.884   5.422  18.249  0.00  0.00    +0.000 A 
ATOM     12  C   UNL     1       5.996   4.602  18.411  0.00  0.00    +0.000 A 
ATOM     13  C   UNL     1       7.064   4.738  17.542  0.00  0.00    +0.000 A 
ATOM     14  C   UNL     1       6.958   5.675  16.532  0.00  0.00    +0.000 A 
ATOM     15  N   UNL     1       5.892   6.495  16.365  0.00  0.00    +0.000 NA
ATOM     16  S   UNL     1       2.101   9.216  17.796  0.00  0.00    +0.000 S 
ATOM     17  H   UNL     1       4.066   7.930  16.304  0.00  0.00    +0.000 HD
ENDBRANCH   2   5
BRANCH   1  23
ATOM     18  C   UNL     1      -2.728  14.632  23.218  0.00  0.00    +0.000 C 
ATOM     19  C   UNL     1      -1.801  13.646  22.572  0.00  0.00    +0.000 A 
ATOM     20  C   UNL     1      -1.136  13.954  21.383  0.00  0.00    +0.000 A 
ATOM     21  C   UNL     1      -0.286  13.022  20.768  0.00  0.00    +0.000 A 
ATOM     22  C   UNL     1       0.451  13.429  19.520  0.00  0.00    +0.000 C 
ATOM     23  C   UNL     1      -0.092  11.761  21.371  0.00  0.00    +0.000 A 
ATOM     24  C   UNL     1      -0.784  11.423  22.551  0.00  0.00    +0.000 A 
ATOM     25  C   UNL     1      -0.729  10.063  23.191  0.00  0.00    +0.000 C 
ATOM     26  C   UNL     1      -1.614  12.387  23.150  0.00  0.00    +0.000 A 
ENDBRANCH   1  23
TORSDOF 2
ENDMDL
MODEL 6
REMARK VINA RESULT:      -7.0      1.615      2.594
REMARK  Name = 
REMARK  5 active torsions:
REMARK  status: ('A' for Active; 'I' for Inactive)
REMARK    1  A    between atoms: C_1  and  C_2
REMARK    2  A    between atoms: C_4  and  C_5
REMARK    3  A    between atoms: C_6  and  N_7
REMARK    4  A    between atoms: C_8  and  C_10
REMARK    5  A    between atoms: C_22  and  C_23
REMARK                            x       y       z     vdW  Elec       q    Type
REMARK                         _______ _______ _______ _____ _____    ______ ____
ROOT
ATOM      1  N   UNL     1       0.938  11.382  20.902  0.00  0.00    +0.000 N 
ATOM      2  C   UNL     1       0.426  10.656  19.840  0.00  0.00    +0.000 C 
ATOM      3  O   UNL     1      -0.555  10.994  19.184  0.00  0.00    +0.000 OA
ATOM      4  H   UNL     1       1.435  10.824  21.582  0.00  0.00    +0.000 HD
ENDROOT
BRANCH   2   5
ATOM      5  C   UNL     1       1.106   9.399  19.599  0.00  0.00    +0.000 A 
ATOM      6  C   UNL     1       1.649   8.968  18.409  0.00  0.00    +0.000 A 
ATOM      7  N   UNL     1       2.291   7.753  18.459  0.00  0.00    +0.000 NA
ATOM      8  C   UNL     1       2.259   7.249  19.670  0.00  0.00    +0.000 A 
ATOM      9  N   UNL     1       2.805   6.080  20.070  0.00  0.00    +0.000 N 
ATOM     10  C   UNL     1       3.235   5.037  19.249  0.00  0.00    +0.000 A 
ATOM     11  C   UNL     1       3.599   5.204  17.914  0.00  0.00    +0.000 A 
ATOM     12  C   UNL     1       3.901   4.095  17.131  0.00  0.00    +0.000 A 
ATOM     13  C   UNL     1       3.875   2.837  17.707  0.00  0.00    +0.000 A 
ATOM     14  C   UNL     1       3.570   2.751  19.053  0.00  0.00    +0.000 A 
ATOM     15  N   UNL     1       3.257   3.816  19.830  0.00  0.00    +0.000 NA
ATOM     16  S   UNL     1       1.391   8.219  20.808  0.00  0.00    +0.000 S 
ATOM     17  H   UNL     1       2.592   5.716  20.990  0.00  0.00    +0.000 HD
ENDBRANCH   2   5
BRANCH   1  23
ATOM     18  C   UNL     1      -1.257  16.405  22.541  0.00  0.00    +0.000 C 
ATOM     19  C   UNL     1      -0.666  15.090  22.127  0.00  0.00    +0.000 A 
ATOM     20  C   UNL     1       0.341  15.025  21.162  0.00  0.00    +0.000 A 
ATOM     21  C   UNL     1       0.878  13.793  20.759  0.00  0.00    +0.000 A 
ATOM     22  C   UNL     1       2.003  13.786  19.759  0.00  0.00    +0.000 C 
ATOM     23  C   UNL     1       0.399  12.604  21.351  0.00  0.00    +0.000 A 
ATOM     24  C   UNL     1      -0.642  12.651  22.298  0.00  0.00    +0.000 A 
ATOM     25  C   UNL     1      -1.293  11.429  22.887  0.00  0.00    +0.000 C 
ATOM     26  C   UNL     1      -1.144  13.904  22.692  0.00  0.00    +0.000 A 
ENDBRANCH   1  23
TORSDOF 2
ENDMDL
MODEL 7
REMARK VINA RESULT:      -7.0      2.927      4.046
REMARK  Name = 
REMARK  5 active torsions:
REMARK  status: ('A' for Active; 'I' for Inactive)
REMARK    1  A    between atoms: C_1  and  C_2
REMARK    2  A    between atoms: C_4  and  C_5
REMARK    3  A    between atoms: C_6  and  N_7
REMARK    4  A    between atoms: C_8  and  C_10
REMARK    5  A    between atoms: C_22  and  C_23
REMARK                            x       y       z     vdW  Elec       q    Type
REMARK                         _______ _______ _______ _____ _____    ______ ____
ROOT
ATOM      1  N   UNL     1       0.712  11.965  19.282  0.00  0.00    +0.000 N 
ATOM      2  C   UNL     1       0.988  11.253  20.436  0.00  0.00    +0.000 C 
ATOM      3  O   UNL     1       1.095  11.760  21.549  0.00  0.00    +0.000 OA
ATOM      4  H   UNL     1       1.059  11.532  18.437  0.00  0.00    +0.000 HD
ENDROOT
BRANCH   2   5
ATOM      5  C   UNL     1       1.219   9.839  20.220  0.00  0.00    +0.000 A 
ATOM      6  C   UNL     1       1.505   9.221  19.024  0.00  0.00    +0.000 A 
ATOM      7  N   UNL     1       1.737   7.868  19.099  0.00  0.00    +0.000 NA
ATOM      8  C   UNL     1       1.644   7.438  20.335  0.00  0.00    +0.000 A 
ATOM      9  N   UNL     1       1.826   6.170  20.762  0.00  0.00    +0.000 N 
ATOM     10  C   UNL     1       1.842   5.019  19.974  0.00  0.00    +0.000 A 
ATOM     11  C   UNL     1       2.133   5.020  18.610  0.00  0.00    +0.000 A 
ATOM     12  C   UNL     1       2.011   3.848  17.871  0.00  0.00    +0.000 A 
ATOM     13  C   UNL     1       1.638   2.682  18.517  0.00  0.00    +0.000 A 
ATOM     14  C   UNL     1       1.428   2.740  19.882  0.00  0.00    +0.000 A 
ATOM     15  N   UNL     1       1.526   3.873  20.618  0.00  0.00    +0.000 NA
ATOM     16  S   UNL     1       1.215   8.668  21.471  0.00  0.00    +0.000 S 
ATOM     17  H   UNL     1       1.583   5.921  21.713  0.00  0.00    +0.000 HD
ENDBRANCH   2   5
BRANCH   1  23
ATOM     18  C   UNL     1      -0.023  17.631  18.967  0.00  0.00    +0.000 C 
ATOM     19  C   UNL     1       0.179  16.148  19.070  0.00  0.00    +0.000 A 
ATOM     20  C   UNL     1       1.377  15.554  18.668  0.00  0.00    +0.000 A 
ATOM     21  C   UNL     1       1.556  14.164  18.744  0.00  0.00    +0.000 A 
ATOM     22  C   UNL     1       2.889  13.584  18.353  0.00  0.00    +0.000 C 
ATOM     23  C   UNL     1       0.511  13.360  19.247  0.00  0.00    +0.000 A 
ATOM     24  C   UNL     1      -0.716  13.941  19.622  0.00  0.00    +0.000 A 
ATOM     25  C   UNL     1      -1.920  13.147  20.052  0.00  0.00    +0.000 C 
ATOM     26  C   UNL     1      -0.855  15.338  19.550  0.00  0.00    +0.000 A 
ENDBRANCH   1  23
TORSDOF 2
ENDMDL
MODEL 8
REMARK VINA RESULT:      -6.9      2.040      2.294
REMARK  Name = 
REMARK  5 active torsions:
REMARK  status: ('A' for Active; 'I' for Inactive)
REMARK    1  A    between atoms: C_1  and  C_2
REMARK    2  A    between atoms: C_4  and  C_5
REMARK    3  A    between atoms: C_6  and  N_7
REMARK    4  A    between atoms: C_8  and  C_10
REMARK    5  A    between atoms: C_22  and  C_23
REMARK                            x       y       z     vdW  Elec       q    Type
REMARK                         _______ _______ _______ _____ _____    ______ ____
ROOT
ATOM      1  N   UNL     1      -0.669  10.343  20.387  0.00  0.00    +0.000 N 
ATOM      2  C   UNL     1       0.657  10.439  20.002  0.00  0.00    +0.000 C 
ATOM      3  O   UNL     1       1.253  11.501  19.844  0.00  0.00    +0.000 OA
ATOM      4  H   UNL     1      -1.128   9.498  20.077  0.00  0.00    +0.000 HD
ENDROOT
BRANCH   2   5
ATOM      5  C   UNL     1       1.288   9.165  19.721  0.00  0.00    +0.000 A 
ATOM      6  C   UNL     1       1.809   8.749  18.517  0.00  0.00    +0.000 A 
ATOM      7  N   UNL     1       2.405   7.509  18.530  0.00  0.00    +0.000 NA
ATOM      8  C   UNL     1       2.360   6.973  19.726  0.00  0.00    +0.000 A 
ATOM      9  N   UNL     1       2.863   5.774  20.090  0.00  0.00    +0.000 N 
ATOM     10  C   UNL     1       3.251   4.739  19.238  0.00  0.00    +0.000 A 
ATOM     11  C   UNL     1       3.614   4.930  17.905  0.00  0.00    +0.000 A 
ATOM     12  C   UNL     1       3.871   3.832  17.090  0.00  0.00    +0.000 A 
ATOM     13  C   UNL     1       3.801   2.561  17.632  0.00  0.00    +0.000 A 
ATOM     14  C   UNL     1       3.499   2.449  18.976  0.00  0.00    +0.000 A 
ATOM     15  N   UNL     1       3.230   3.502  19.784  0.00  0.00    +0.000 NA
ATOM     16  S   UNL     1       1.534   7.942  20.895  0.00  0.00    +0.000 S 
ATOM     17  H   UNL     1       2.642   5.392  21.001  0.00  0.00    +0.000 HD
ENDBRANCH   2   5
BRANCH   1  23
ATOM     18  C   UNL     1      -3.883  14.920  21.598  0.00  0.00    +0.000 C 
ATOM     19  C   UNL     1      -3.058  13.707  21.283  0.00  0.00    +0.000 A 
ATOM     20  C   UNL     1      -2.425  12.983  22.296  0.00  0.00    +0.000 A 
ATOM     21  C   UNL     1      -1.636  11.861  21.998  0.00  0.00    +0.000 A 
ATOM     22  C   UNL     1      -1.028  11.083  23.133  0.00  0.00    +0.000 C 
ATOM     23  C   UNL     1      -1.493  11.455  20.654  0.00  0.00    +0.000 A 
ATOM     24  C   UNL     1      -2.094  12.198  19.619  0.00  0.00    +0.000 A 
ATOM     25  C   UNL     1      -1.894  11.907  18.156  0.00  0.00    +0.000 C 
ATOM     26  C   UNL     1      -2.893  13.305  19.954  0.00  0.00    +0.000 A 
ENDBRANCH   1  23
TORSDOF 2
ENDMDL
MODEL 9
REMARK VINA RESULT:      -6.9      2.950      3.806
REMARK  Name = 
REMARK  5 active torsions:
REMARK  status: ('A' for Active; 'I' for Inactive)
REMARK    1  A    between atoms: C_1  and  C_2
REMARK    2  A    between atoms: C_4  and  C_5
REMARK    3  A    between atoms: C_6  and  N_7
REMARK    4  A    between atoms: C_8  and  C_10
REMARK    5  A    between atoms: C_22  and  C_23
REMARK                            x       y       z     vdW  Elec       q    Type
REMARK                         _______ _______ _______ _____ _____    ______ ____
ROOT
ATOM      1  N   UNL     1       0.610  11.985  19.265  0.00  0.00    +0.000 N 
ATOM      2  C   UNL     1       1.000  11.307  20.407  0.00  0.00    +0.000 C 
ATOM      3  O   UNL     1       1.208  11.846  21.490  0.00  0.00    +0.000 OA
ATOM      4  H   UNL     1       0.878  11.529  18.403  0.00  0.00    +0.000 HD
ENDROOT
BRANCH   2   5
ATOM      5  C   UNL     1       1.219   9.888  20.209  0.00  0.00    +0.000 A 
ATOM      6  C   UNL     1       1.508   9.254  19.022  0.00  0.00    +0.000 A 
ATOM      7  N   UNL     1       1.727   7.899  19.114  0.00  0.00    +0.000 NA
ATOM      8  C   UNL     1       1.622   7.485  20.355  0.00  0.00    +0.000 A 
ATOM      9  N   UNL     1       1.790   6.220  20.798  0.00  0.00    +0.000 N 
ATOM     10  C   UNL     1       1.802   5.060  20.024  0.00  0.00    +0.000 A 
ATOM     11  C   UNL     1       2.102   5.042  18.662  0.00  0.00    +0.000 A 
ATOM     12  C   UNL     1       1.974   3.863  17.936  0.00  0.00    +0.000 A 
ATOM     13  C   UNL     1       1.587   2.708  18.593  0.00  0.00    +0.000 A 
ATOM     14  C   UNL     1       1.369   2.784  19.956  0.00  0.00    +0.000 A 
ATOM     15  N   UNL     1       1.472   3.924  20.679  0.00  0.00    +0.000 NA
ATOM     16  S   UNL     1       1.196   8.732  21.474  0.00  0.00    +0.000 S 
ATOM     17  H   UNL     1       1.539   5.985  21.750  0.00  0.00    +0.000 HD
ENDBRANCH   2   5
BRANCH   1  23
ATOM     18  C   UNL     1      -0.341  17.627  19.222  0.00  0.00    +0.000 C 
ATOM     19  C   UNL     1      -0.100  16.146  19.213  0.00  0.00    +0.000 A 
ATOM     20  C   UNL     1      -1.077  15.254  19.663  0.00  0.00    +0.000 A 
ATOM     21  C   UNL     1      -0.842  13.871  19.674  0.00  0.00    +0.000 A 
ATOM     22  C   UNL     1      -1.952  12.953  20.112  0.00  0.00    +0.000 C 
ATOM     23  C   UNL     1       0.396  13.377  19.211  0.00  0.00    +0.000 A 
ATOM     24  C   UNL     1       1.404  14.266  18.790  0.00  0.00    +0.000 A 
ATOM     25  C   UNL     1       2.790  13.832  18.398  0.00  0.00    +0.000 C 
ATOM     26  C   UNL     1       1.128  15.644  18.774  0.00  0.00    +0.000 A 
ENDBRANCH   1  23
TORSDOF 2
ENDMDL
