MODEL 1
REMARK VINA RESULT:      -7.4      0.000      0.000
REMARK  Name = 
REMARK  5 active torsions:
REMARK  status: ('A' for Active; 'I' for Inactive)
REMARK    1  A    between atoms: C_1  and  C_2
REMARK    2  A    between atoms: C_4  and  O_5
REMARK    3  A    between atoms: C_7  and  S_8
REMARK    4  A    between atoms: S_8  and  C_9
REMARK    5  A    between atoms: C_15  and  C_16
REMARK                            x       y       z     vdW  Elec       q    Type
REMARK                         _______ _______ _______ _____ _____    ______ ____
ROOT
ATOM      1  C   UNL     1       0.914   8.667  21.619  0.00  0.00    +0.000 C 
ATOM      2  C   UNL     1       1.423   7.592  20.713  0.00  0.00    +0.000 A 
ATOM      3  N   UNL     1       2.107   7.949  19.622  0.00  0.00    +0.000 NA
ATOM      4  C   UNL     1       2.545   6.929  18.860  0.00  0.00    +0.000 A 
ATOM      5  C   UNL     1       2.360   5.560  19.097  0.00  0.00    +0.000 A 
ATOM      6  C   UNL     1       2.841   4.416  18.349  0.00  0.00    +0.000 A 
ATOM      7  C   UNL     1       2.508   3.108  18.787  0.00  0.00    +0.000 A 
ATOM      8  C   UNL     1       2.960   1.834  18.120  0.00  0.00    +0.000 C 
ATOM      9  C   UNL     1       1.681   2.959  19.905  0.00  0.00    +0.000 A 
ATOM     10  C   UNL     1       1.261   4.065  20.631  0.00  0.00    +0.000 A 
ATOM     11  C   UNL     1       1.596   5.349  20.254  0.00  0.00    +0.000 A 
ATOM     12  N   UNL     1       1.146   6.325  21.051  0.00  0.00    +0.000 NA
ENDROOT
BRANCH   4  13
ATOM     13  O   UNL     1       3.182   7.401  17.759  0.00  0.00    +0.000 OA
ATOM     14  H   UNL     1       3.748   6.636  17.549  0.00  0.00    +0.000 HD
ENDBRANCH   4  13
BRANCH   6  15
ATOM     15  S   UNL     1       4.034   4.616  17.009  0.00  0.00    +0.000 S 
BRANCH  15  16
ATOM     16  C   UNL     1       5.636   4.690  17.783  0.00  0.00    +0.000 A 
ATOM     17  C   UNL     1       5.855   5.229  19.042  0.00  0.00    +0.000 A 
ATOM     18  C   UNL     1       7.161   5.391  19.470  0.00  0.00    +0.000 A 
ATOM     19  N   UNL     1       8.229   5.031  18.731  0.00  0.00    +0.000 NA
ATOM     20  N   UNL     1       8.030   4.472  17.515  0.00  0.00    +0.000 NA
ATOM     21  C   UNL     1       6.763   4.316  17.060  0.00  0.00    +0.000 A 
ENDBRANCH  15  16
ENDBRANCH   6  15
TORSDOF 3
ENDMDL
MODEL 2
REMARK VINA RESULT:      -7.4      0.825      1.106
REMARK  Name = 
REMARK  5 active torsions:
REMARK  status: ('A' for Active; 'I' for Inactive)
REMARK    1  A    between atoms: C_1  and  C_2
REMARK    2  A    between atoms: C_4  and  O_5
REMARK    3  A    between atoms: C_7  and  S_8
REMARK    4  A    between atoms: S_8  and  C_9
REMARK    5  A    between atoms: C_15  and  C_16
REMARK                            x       y       z     vdW  Elec       q    Type
REMARK                         _______ _______ _______ _____ _____    ______ ____
ROOT
ATOM      1  C   UNL     1       0.782   8.708  21.619  0.00  0.00    +0.000 C 
ATOM      2  C   UNL     1       1.366   7.644  20.745  0.00  0.00    +0.000 A 
ATOM      3  N   UNL     1       2.033   8.016  19.647  0.00  0.00    +0.000 NA
ATOM      4  C   UNL     1       2.541   7.007  18.916  0.00  0.00    +0.000 A 
ATOM      5  C   UNL     1       2.444   5.636  19.190  0.00  0.00    +0.000 A 
ATOM      6  C   UNL     1       3.003   4.506  18.476  0.00  0.00    +0.000 A 
ATOM      7  C   UNL     1       2.754   3.190  18.948  0.00  0.00    +0.000 A 
ATOM      8  C   UNL     1       3.293   1.931  18.319  0.00  0.00    +0.000 C 
ATOM      9  C   UNL     1       1.932   3.018  20.066  0.00  0.00    +0.000 A 
ATOM     10  C   UNL     1       1.436   4.113  20.759  0.00  0.00    +0.000 A 
ATOM     11  C   UNL     1       1.689   5.406  20.349  0.00  0.00    +0.000 A 
ATOM     12  N   UNL     1       1.170   6.372  21.117  0.00  0.00    +0.000 NA
ENDROOT
BRANCH   4  13
ATOM     13  O   UNL     1       3.153   7.489  17.806  0.00  0.00    +0.000 OA
ATOM     14  H   UNL     1       2.501   7.237  17.128  0.00  0.00    +0.000 HD
ENDBRANCH   4  13
BRANCH   6  15
ATOM     15  S   UNL     1       4.189   4.747  17.136  0.00  0.00    +0.000 S 
BRANCH  15  16
ATOM     16  C   UNL     1       5.636   5.468  17.883  0.00  0.00    +0.000 A 
ATOM     17  C   UNL     1       6.484   6.345  17.221  0.00  0.00    +0.000 A 
ATOM     18  C   UNL     1       7.668   6.706  17.838  0.00  0.00    +0.000 A 
ATOM     19  N   UNL     1       8.029   6.263  19.060  0.00  0.00    +0.000 NA
ATOM     20  N   UNL     1       7.196   5.434  19.732  0.00  0.00    +0.000 NA
ATOM     21  C   UNL     1       6.036   5.048  19.147  0.00  0.00    +0.000 A 
ENDBRANCH  15  16
ENDBRANCH   6  15
TORSDOF 3
ENDMDL
MODEL 3
REMARK VINA RESULT:      -6.8      4.201      8.060
REMARK  Name = 
REMARK  5 active torsions:
REMARK  status: ('A' for Active; 'I' for Inactive)
REMARK    1  A    between atoms: C_1  and  C_2
REMARK    2  A    between atoms: C_4  and  O_5
REMARK    3  A    between atoms: C_7  and  S_8
REMARK    4  A    between atoms: S_8  and  C_9
REMARK    5  A    between atoms: C_15  and  C_16
REMARK                            x       y       z     vdW  Elec       q    Type
REMARK                         _______ _______ _______ _____ _____    ______ ____
ROOT
ATOM      1  C   UNL     1       3.395   5.912  18.202  0.00  0.00    +0.000 C 
ATOM      2  C   UNL     1       2.648   7.126  18.655  0.00  0.00    +0.000 A 
ATOM      3  N   UNL     1       2.507   8.144  17.800  0.00  0.00    +0.000 NA
ATOM      4  C   UNL     1       1.813   9.197  18.271  0.00  0.00    +0.000 A 
ATOM      5  C   UNL     1       1.234   9.325  19.541  0.00  0.00    +0.000 A 
ATOM      6  C   UNL     1       0.439  10.402  20.093  0.00  0.00    +0.000 A 
ATOM      7  C   UNL     1      -0.034  10.307  21.428  0.00  0.00    +0.000 A 
ATOM      8  C   UNL     1      -0.888  11.339  22.118  0.00  0.00    +0.000 C 
ATOM      9  C   UNL     1       0.323   9.191  22.193  0.00  0.00    +0.000 A 
ATOM     10  C   UNL     1       1.053   8.151  21.635  0.00  0.00    +0.000 A 
ATOM     11  C   UNL     1       1.497   8.196  20.330  0.00  0.00    +0.000 A 
ATOM     12  N   UNL     1       2.172   7.119  19.908  0.00  0.00    +0.000 NA
ENDROOT
BRANCH   4  13
ATOM     13  O   UNL     1       1.771  10.188  17.345  0.00  0.00    +0.000 OA
ATOM     14  H   UNL     1       0.839  10.122  17.068  0.00  0.00    +0.000 HD
ENDBRANCH   4  13
BRANCH   6  15
ATOM     15  S   UNL     1      -0.147  11.755  19.050  0.00  0.00    +0.000 S 
BRANCH  15  16
ATOM     16  C   UNL     1      -1.698  11.212  18.365  0.00  0.00    +0.000 A 
ATOM     17  C   UNL     1      -1.802  10.244  17.376  0.00  0.00    +0.000 A 
ATOM     18  C   UNL     1      -3.040  10.026  16.798  0.00  0.00    +0.000 A 
ATOM     19  N   UNL     1      -4.153  10.694  17.163  0.00  0.00    +0.000 NA
ATOM     20  N   UNL     1      -4.073  11.616  18.150  0.00  0.00    +0.000 NA
ATOM     21  C   UNL     1      -2.872  11.866  18.724  0.00  0.00    +0.000 A 
ENDBRANCH  15  16
ENDBRANCH   6  15
TORSDOF 3
ENDMDL
MODEL 4
REMARK VINA RESULT:      -6.7      2.690      4.224
REMARK  Name = 
REMARK  5 active torsions:
REMARK  status: ('A' for Active; 'I' for Inactive)
REMARK    1  A    between atoms: C_1  and  C_2
REMARK    2  A    between atoms: C_4  and  O_5
REMARK    3  A    between atoms: C_7  and  S_8
REMARK    4  A    between atoms: S_8  and  C_9
REMARK    5  A    between atoms: C_15  and  C_16
REMARK                            x       y       z     vdW  Elec       q    Type
REMARK                         _______ _______ _______ _____ _____    ______ ____
ROOT
ATOM      1  C   UNL     1       1.043   2.613  21.333  0.00  0.00    +0.000 C 
ATOM      2  C   UNL     1       2.123   3.284  20.545  0.00  0.00    +0.000 A 
ATOM      3  N   UNL     1       3.313   2.682  20.453  0.00  0.00    +0.000 NA
ATOM      4  C   UNL     1       4.231   3.338  19.718  0.00  0.00    +0.000 A 
ATOM      5  C   UNL     1       4.062   4.559  19.052  0.00  0.00    +0.000 A 
ATOM      6  C   UNL     1       4.985   5.293  18.211  0.00  0.00    +0.000 A 
ATOM      7  C   UNL     1       4.583   6.533  17.649  0.00  0.00    +0.000 A 
ATOM      8  C   UNL     1       5.431   7.384  16.739  0.00  0.00    +0.000 C 
ATOM      9  C   UNL     1       3.317   7.038  17.964  0.00  0.00    +0.000 A 
ATOM     10  C   UNL     1       2.432   6.304  18.741  0.00  0.00    +0.000 A 
ATOM     11  C   UNL     1       2.778   5.079  19.272  0.00  0.00    +0.000 A 
ATOM     12  N   UNL     1       1.826   4.465  19.985  0.00  0.00    +0.000 NA
ENDROOT
BRANCH   4  13
ATOM     13  O   UNL     1       5.410   2.668  19.728  0.00  0.00    +0.000 OA
ATOM     14  H   UNL     1       5.962   3.286  19.216  0.00  0.00    +0.000 HD
ENDBRANCH   4  13
BRANCH   6  15
ATOM     15  S   UNL     1       6.547   4.557  17.684  0.00  0.00    +0.000 S 
BRANCH  15  16
ATOM     16  C   UNL     1       6.528   4.583  15.903  0.00  0.00    +0.000 A 
ATOM     17  C   UNL     1       5.605   3.886  15.136  0.00  0.00    +0.000 A 
ATOM     18  C   UNL     1       5.790   3.840  13.766  0.00  0.00    +0.000 A 
ATOM     19  N   UNL     1       6.812   4.454  13.139  0.00  0.00    +0.000 NA
ATOM     20  N   UNL     1       7.702   5.166  13.870  0.00  0.00    +0.000 NA
ATOM     21  C   UNL     1       7.558   5.217  15.216  0.00  0.00    +0.000 A 
ENDBRANCH  15  16
ENDBRANCH   6  15
TORSDOF 3
ENDMDL
MODEL 5
REMARK VINA RESULT:      -6.6      4.084      7.997
REMARK  Name = 
REMARK  5 active torsions:
REMARK  status: ('A' for Active; 'I' for Inactive)
REMARK    1  A    between atoms: C_1  and  C_2
REMARK    2  A    between atoms: C_4  and  O_5
REMARK    3  A    between atoms: C_7  and  S_8
REMARK    4  A    between atoms: S_8  and  C_9
REMARK    5  A    between atoms: C_15  and  C_16
REMARK                            x       y       z     vdW  Elec       q    Type
REMARK                         _______ _______ _______ _____ _____    ______ ____
ROOT
ATOM      1  C   UNL     1       3.298   5.942  18.182  0.00  0.00    +0.000 C 
ATOM      2  C   UNL     1       2.592   7.178  18.642  0.00  0.00    +0.000 A 
ATOM      3  N   UNL     1       2.477   8.200  17.789  0.00  0.00    +0.000 NA
ATOM      4  C   UNL     1       1.820   9.274  18.267  0.00  0.00    +0.000 A 
ATOM      5  C   UNL     1       1.253   9.417  19.541  0.00  0.00    +0.000 A 
ATOM      6  C   UNL     1       0.496  10.518  20.101  0.00  0.00    +0.000 A 
ATOM      7  C   UNL     1       0.030  10.435  21.439  0.00  0.00    +0.000 A 
ATOM      8  C   UNL     1      -0.787  11.492  22.136  0.00  0.00    +0.000 C 
ATOM      9  C   UNL     1       0.357   9.307  22.199  0.00  0.00    +0.000 A 
ATOM     10  C   UNL     1       1.051   8.246  21.635  0.00  0.00    +0.000 A 
ATOM     11  C   UNL     1       1.487   8.279  20.326  0.00  0.00    +0.000 A 
ATOM     12  N   UNL     1       2.125   7.183  19.898  0.00  0.00    +0.000 NA
ENDROOT
BRANCH   4  13
ATOM     13  O   UNL     1       1.801  10.266  17.343  0.00  0.00    +0.000 OA
ATOM     14  H   UNL     1       0.980  10.723  17.599  0.00  0.00    +0.000 HD
ENDBRANCH   4  13
BRANCH   6  15
ATOM     15  S   UNL     1      -0.055  11.889  19.064  0.00  0.00    +0.000 S 
BRANCH  15  16
ATOM     16  C   UNL     1      -1.656  11.423  18.440  0.00  0.00    +0.000 A 
ATOM     17  C   UNL     1      -2.842  12.011  18.857  0.00  0.00    +0.000 A 
ATOM     18  C   UNL     1      -4.036  11.454  18.435  0.00  0.00    +0.000 A 
ATOM     19  N   UNL     1      -4.102  10.380  17.623  0.00  0.00    +0.000 NA
ATOM     20  N   UNL     1      -2.954   9.817  17.180  0.00  0.00    +0.000 NA
ATOM     21  C   UNL     1      -1.768  10.329  17.590  0.00  0.00    +0.000 A 
ENDBRANCH  15  16
ENDBRANCH   6  15
TORSDOF 3
ENDMDL
MODEL 6
REMARK VINA RESULT:      -6.4      2.375      5.552
REMARK  Name = 
REMARK  5 active torsions:
REMARK  status: ('A' for Active; 'I' for Inactive)
REMARK    1  A    between atoms: C_1  and  C_2
REMARK    2  A    between atoms: C_4  and  O_5
REMARK    3  A    between atoms: C_7  and  S_8
REMARK    4  A    between atoms: S_8  and  C_9
REMARK    5  A    between atoms: C_15  and  C_16
REMARK                            x       y       z     vdW  Elec       q    Type
REMARK                         _______ _______ _______ _____ _____    ______ ____
ROOT
ATOM      1  C   UNL     1       8.575   8.918  17.748  0.00  0.00    +0.000 C 
ATOM      2  C   UNL     1       7.758   7.669  17.848  0.00  0.00    +0.000 A 
ATOM      3  N   UNL     1       7.869   6.922  18.951  0.00  0.00    +0.000 NA
ATOM      4  C   UNL     1       7.094   5.821  18.977  0.00  0.00    +0.000 A 
ATOM      5  C   UNL     1       6.201   5.395  17.984  0.00  0.00    +0.000 A 
ATOM      6  C   UNL     1       5.308   4.254  17.968  0.00  0.00    +0.000 A 
ATOM      7  C   UNL     1       4.496   4.020  16.828  0.00  0.00    +0.000 A 
ATOM      8  C   UNL     1       3.509   2.890  16.688  0.00  0.00    +0.000 C 
ATOM      9  C   UNL     1       4.616   4.875  15.726  0.00  0.00    +0.000 A 
ATOM     10  C   UNL     1       5.448   5.984  15.775  0.00  0.00    +0.000 A 
ATOM     11  C   UNL     1       6.224   6.260  16.881  0.00  0.00    +0.000 A 
ATOM     12  N   UNL     1       6.966   7.372  16.808  0.00  0.00    +0.000 NA
ENDROOT
BRANCH   4  13
ATOM     13  O   UNL     1       7.318   5.113  20.112  0.00  0.00    +0.000 OA
ATOM     14  H   UNL     1       6.529   4.542  20.115  0.00  0.00    +0.000 HD
ENDBRANCH   4  13
BRANCH   6  15
ATOM     15  S   UNL     1       5.046   3.257  19.451  0.00  0.00    +0.000 S 
BRANCH  15  16
ATOM     16  C   UNL     1       3.398   3.633  20.011  0.00  0.00    +0.000 A 
ATOM     17  C   UNL     1       2.425   2.668  20.231  0.00  0.00    +0.000 A 
ATOM     18  C   UNL     1       1.134   3.086  20.498  0.00  0.00    +0.000 A 
ATOM     19  N   UNL     1       0.780   4.384  20.575  0.00  0.00    +0.000 NA
ATOM     20  N   UNL     1       1.725   5.336  20.397  0.00  0.00    +0.000 NA
ATOM     21  C   UNL     1       2.996   4.959  20.116  0.00  0.00    +0.000 A 
ENDBRANCH  15  16
ENDBRANCH   6  15
TORSDOF 3
ENDMDL
MODEL 7
REMARK VINA RESULT:      -6.3      2.172      3.585
REMARK  Name = 
REMARK  5 active torsions:
REMARK  status: ('A' for Active; 'I' for Inactive)
REMARK    1  A    between atoms: C_1  and  C_2
REMARK    2  A    between atoms: C_4  and  O_5
REMARK    3  A    between atoms: C_7  and  S_8
REMARK    4  A    between atoms: S_8  and  C_9
REMARK    5  A    between atoms: C_15  and  C_16
REMARK                            x       y       z     vdW  Elec       q    Type
REMARK                         _______ _______ _______ _____ _____    ______ ____
ROOT
ATOM      1  C   UNL     1       1.468   2.127  22.272  0.00  0.00    +0.000 C 
ATOM      2  C   UNL     1       2.029   3.095  21.279  0.00  0.00    +0.000 A 
ATOM      3  N   UNL     1       3.020   2.685  20.480  0.00  0.00    +0.000 NA
ATOM      4  C   UNL     1       3.467   3.605  19.604  0.00  0.00    +0.000 A 
ATOM      5  C   UNL     1       3.001   4.918  19.449  0.00  0.00    +0.000 A 
ATOM      6  C   UNL     1       3.401   5.938  18.501  0.00  0.00    +0.000 A 
ATOM      7  C   UNL     1       2.783   7.214  18.548  0.00  0.00    +0.000 A 
ATOM      8  C   UNL     1       3.084   8.355  17.610  0.00  0.00    +0.000 C 
ATOM      9  C   UNL     1       1.833   7.469  19.544  0.00  0.00    +0.000 A 
ATOM     10  C   UNL     1       1.436   6.469  20.420  0.00  0.00    +0.000 A 
ATOM     11  C   UNL     1       1.991   5.206  20.377  0.00  0.00    +0.000 A 
ATOM     12  N   UNL     1       1.504   4.327  21.262  0.00  0.00    +0.000 NA
ENDROOT
BRANCH   4  13
ATOM     13  O   UNL     1       4.498   3.104  18.879  0.00  0.00    +0.000 OA
ATOM     14  H   UNL     1       4.016   2.481  18.306  0.00  0.00    +0.000 HD
ENDBRANCH   4  13
BRANCH   6  15
ATOM     15  S   UNL     1       4.504   5.547  17.126  0.00  0.00    +0.000 S 
BRANCH  15  16
ATOM     16  C   UNL     1       6.103   6.186  17.580  0.00  0.00    +0.000 A 
ATOM     17  C   UNL     1       6.911   5.610  18.549  0.00  0.00    +0.000 A 
ATOM     18  C   UNL     1       8.052   6.287  18.942  0.00  0.00    +0.000 A 
ATOM     19  N   UNL     1       8.426   7.469  18.413  0.00  0.00    +0.000 NA
ATOM     20  N   UNL     1       7.666   8.027  17.442  0.00  0.00    +0.000 NA
ATOM     21  C   UNL     1       6.533   7.397  17.048  0.00  0.00    +0.000 A 
ENDBRANCH  15  16
ENDBRANCH   6  15
TORSDOF 3
ENDMDL
MODEL 8
REMARK VINA RESULT:      -6.3      7.587      9.618
REMARK  Name = 
REMARK  5 active torsions:
REMARK  status: ('A' for Active; 'I' for Inactive)
REMARK    1  A    between atoms: C_1  and  C_2
REMARK    2  A    between atoms: C_4  and  O_5
REMARK    3  A    between atoms: C_7  and  S_8
REMARK    4  A    between atoms: S_8  and  C_9
REMARK    5  A    between atoms: C_15  and  C_16
REMARK                            x       y       z     vdW  Elec       q    Type
REMARK                         _______ _______ _______ _____ _____    ______ ____
ROOT
ATOM      1  C   UNL     1      -3.646  10.050  14.570  0.00  0.00    +0.000 C 
ATOM      2  C   UNL     1      -3.390  10.641  15.920  0.00  0.00    +0.000 A 
ATOM      3  N   UNL     1      -2.124  10.771  16.329  0.00  0.00    +0.000 NA
ATOM      4  C   UNL     1      -1.969  11.322  17.547  0.00  0.00    +0.000 A 
ATOM      5  C   UNL     1      -2.983  11.767  18.406  0.00  0.00    +0.000 A 
ATOM      6  C   UNL     1      -2.886  12.408  19.701  0.00  0.00    +0.000 A 
ATOM      7  C   UNL     1      -4.073  12.761  20.395  0.00  0.00    +0.000 A 
ATOM      8  C   UNL     1      -4.117  13.453  21.733  0.00  0.00    +0.000 C 
ATOM      9  C   UNL     1      -5.310  12.435  19.829  0.00  0.00    +0.000 A 
ATOM     10  C   UNL     1      -5.384  11.854  18.570  0.00  0.00    +0.000 A 
ATOM     11  C   UNL     1      -4.250  11.532  17.853  0.00  0.00    +0.000 A 
ATOM     12  N   UNL     1      -4.460  10.997  16.644  0.00  0.00    +0.000 NA
ENDROOT
BRANCH   4  13
ATOM     13  O   UNL     1      -0.655  11.363  17.884  0.00  0.00    +0.000 OA
ATOM     14  H   UNL     1      -0.340  10.557  17.436  0.00  0.00    +0.000 HD
ENDBRANCH   4  13
BRANCH   6  15
ATOM     15  S   UNL     1      -1.295  12.967  20.345  0.00  0.00    +0.000 S 
BRANCH  15  16
ATOM     16  C   UNL     1      -0.687  11.645  21.372  0.00  0.00    +0.000 A 
ATOM     17  C   UNL     1      -1.357  11.175  22.492  0.00  0.00    +0.000 A 
ATOM     18  C   UNL     1      -0.711  10.266  23.312  0.00  0.00    +0.000 A 
ATOM     19  N   UNL     1       0.529   9.801  23.062  0.00  0.00    +0.000 NA
ATOM     20  N   UNL     1       1.182  10.224  21.954  0.00  0.00    +0.000 NA
ATOM     21  C   UNL     1       0.583  11.128  21.141  0.00  0.00    +0.000 A 
ENDBRANCH  15  16
ENDBRANCH   6  15
TORSDOF 3
ENDMDL
MODEL 9
REMARK VINA RESULT:      -6.3      4.826      8.986
REMARK  Name = 
REMARK  5 active torsions:
REMARK  status: ('A' for Active; 'I' for Inactive)
REMARK    1  A    between atoms: C_1  and  C_2
REMARK    2  A    between atoms: C_4  and  O_5
REMARK    3  A    between atoms: C_7  and  S_8
REMARK    4  A    between atoms: S_8  and  C_9
REMARK    5  A    between atoms: C_15  and  C_16
REMARK                            x       y       z     vdW  Elec       q    Type
REMARK                         _______ _______ _______ _____ _____    ______ ____
ROOT
ATOM      1  C   UNL     1       2.863   7.362  18.021  0.00  0.00    +0.000 C 
ATOM      2  C   UNL     1       2.075   8.412  18.737  0.00  0.00    +0.000 A 
ATOM      3  N   UNL     1       1.831   9.565  18.106  0.00  0.00    +0.000 NA
ATOM      4  C   UNL     1       1.106  10.458  18.807  0.00  0.00    +0.000 A 
ATOM      5  C   UNL     1       0.591  10.298  20.100  0.00  0.00    +0.000 A 
ATOM      6  C   UNL     1      -0.231  11.192  20.889  0.00  0.00    +0.000 A 
ATOM      7  C   UNL     1      -0.624  10.807  22.197  0.00  0.00    +0.000 A 
ATOM      8  C   UNL     1      -1.496  11.627  23.114  0.00  0.00    +0.000 C 
ATOM      9  C   UNL     1      -0.163   9.589  22.710  0.00  0.00    +0.000 A 
ATOM     10  C   UNL     1       0.593   8.729  21.927  0.00  0.00    +0.000 A 
ATOM     11  C   UNL     1       0.961   9.056  20.638  0.00  0.00    +0.000 A 
ATOM     12  N   UNL     1       1.671   8.130  19.983  0.00  0.00    +0.000 NA
ENDROOT
BRANCH   4  13
ATOM     13  O   UNL     1       0.956  11.605  18.097  0.00  0.00    +0.000 OA
ATOM     14  H   UNL     1       1.757  12.085  18.378  0.00  0.00    +0.000 HD
ENDBRANCH   4  13
BRANCH   6  15
ATOM     15  S   UNL     1      -0.949  12.680  20.160  0.00  0.00    +0.000 S 
BRANCH  15  16
ATOM     16  C   UNL     1      -2.515  12.185  19.472  0.00  0.00    +0.000 A 
ATOM     17  C   UNL     1      -2.644  11.511  18.266  0.00  0.00    +0.000 A 
ATOM     18  C   UNL     1      -3.913  11.330  17.745  0.00  0.00    +0.000 A 
ATOM     19  N   UNL     1      -5.031  11.761  18.363  0.00  0.00    +0.000 NA
ATOM     20  N   UNL     1      -4.924  12.390  19.557  0.00  0.00    +0.000 NA
ATOM     21  C   UNL     1      -3.693  12.597  20.085  0.00  0.00    +0.000 A 
ENDBRANCH  15  16
ENDBRANCH   6  15
TORSDOF 3
ENDMDL
