MODEL 1
REMARK VINA RESULT:      -8.8      0.000      0.000
REMARK  Name = 
REMARK  7 active torsions:
REMARK  status: ('A' for Active; 'I' for Inactive)
REMARK    1  A    between atoms: C_2  and  C_3
REMARK    2  A    between atoms: C_3  and  C_4
REMARK    3  A    between atoms: N_13  and  C_14
REMARK    4  A    between atoms: C_17  and  C_18
REMARK    5  A    between atoms: C_18  and  C_19
REMARK    6  A    between atoms: C_19  and  N_20
REMARK    7  A    between atoms: N_23  and  C_24
REMARK                            x       y       z     vdW  Elec       q    Type
REMARK                         _______ _______ _______ _____ _____    ______ ____
ROOT
ATOM      1  C   UNL     1       2.162   7.173  18.945  0.00  0.00    +0.000 C 
ATOM      2  C   UNL     1       1.850   7.718  20.340  0.00  0.00    +0.000 C 
ATOM      3  C   UNL     1       0.845   8.861  20.314  0.00  0.00    +0.000 C 
ATOM      4  C   UNL     1       1.280   9.992  19.375  0.00  0.00    +0.000 C 
ATOM      5  C   UNL     1       1.528   9.433  17.962  0.00  0.00    +0.000 C 
ATOM      6  C   UNL     1       2.544   8.289  17.967  0.00  0.00    +0.000 C 
ENDROOT
BRANCH   1   9
ATOM      7  O   UNL     1       1.889   4.374  19.430  0.00  0.00    +0.000 OA
ATOM      8  C   UNL     1       3.008   4.856  19.278  0.00  0.00    +0.000 C 
ATOM      9  N   UNL     1       3.240   6.195  19.055  0.00  0.00    +0.000 N 
ATOM     10  H   UNL     1       4.151   6.459  18.699  0.00  0.00    +0.000 HD
BRANCH   8  11
ATOM     11  C   UNL     1       4.273   4.019  19.341  0.00  0.00    +0.000 C 
BRANCH  11  12
ATOM     12  C   UNL     1       5.245   4.298  18.219  0.00  0.00    +0.000 A 
ATOM     13  C   UNL     1       6.465   4.962  18.486  0.00  0.00    +0.000 A 
ATOM     14  C   UNL     1       7.350   5.290  17.452  0.00  0.00    +0.000 A 
ATOM     15  C   UNL     1       6.986   4.956  16.168  0.00  0.00    +0.000 A 
ATOM     16  C   UNL     1       5.805   4.308  15.896  0.00  0.00    +0.000 A 
ATOM     17  C   UNL     1       4.917   3.961  16.895  0.00  0.00    +0.000 A 
ATOM     18  O   UNL     1       5.631   4.082  14.566  0.00  0.00    +0.000 OA
ATOM     19  C   UNL     1       6.810   4.717  14.029  0.00  0.00    +0.000 C 
ATOM     20  O   UNL     1       7.703   5.222  15.043  0.00  0.00    +0.000 OA
ENDBRANCH  11  12
ENDBRANCH   8  11
ENDBRANCH   1   9
BRANCH   4  21
ATOM     21  C   UNL     1       0.229  11.124  19.335  0.00  0.00    +0.000 C 
BRANCH  21  22
ATOM     22  C   UNL     1      -0.752  11.147  20.529  0.00  0.00    +0.000 C 
BRANCH  22  23
ATOM     23  N   UNL     1      -0.173  11.701  21.761  0.00  0.00    +0.000 NA
ATOM     24  C   UNL     1      -0.044  13.170  21.729  0.00  0.00    +0.000 C 
ATOM     25  C   UNL     1      -1.386  13.928  21.707  0.00  0.00    +0.000 C 
ATOM     26  N   UNL     1      -2.221  13.539  22.833  0.00  0.00    +0.000 N 
ATOM     27  C   UNL     1      -2.327  12.105  23.142  0.00  0.00    +0.000 C 
ATOM     28  C   UNL     1      -0.978  11.357  22.961  0.00  0.00    +0.000 C 
BRANCH  26  29
ATOM     29  C   UNL     1      -3.038  14.425  23.495  0.00  0.00    +0.000 A 
ATOM     30  N   UNL     1      -2.449  15.238  24.408  0.00  0.00    +0.000 NA
ATOM     31  C   UNL     1      -3.179  16.206  25.023  0.00  0.00    +0.000 A 
ATOM     32  C   UNL     1      -4.521  16.415  24.807  0.00  0.00    +0.000 A 
ATOM     33  C   UNL     1      -5.112  15.554  23.918  0.00  0.00    +0.000 A 
ATOM     34  C   UNL     1      -4.397  14.567  23.258  0.00  0.00    +0.000 A 
ATOM     35  C   UNL     1      -5.335  13.797  22.411  0.00  0.00    +0.000 C 
ATOM     36  C   UNL     1      -6.664  14.470  22.747  0.00  0.00    +0.000 C 
ATOM     37  O   UNL     1      -6.446  15.600  23.616  0.00  0.00    +0.000 OA
ENDBRANCH  26  29
ENDBRANCH  22  23
ENDBRANCH  21  22
ENDBRANCH   4  21
TORSDOF 7
ENDMDL
MODEL 2
REMARK VINA RESULT:      -8.6      3.385     11.964
REMARK  Name = 
REMARK  7 active torsions:
REMARK  status: ('A' for Active; 'I' for Inactive)
REMARK    1  A    between atoms: C_2  and  C_3
REMARK    2  A    between atoms: C_3  and  C_4
REMARK    3  A    between atoms: N_13  and  C_14
REMARK    4  A    between atoms: C_17  and  C_18
REMARK    5  A    between atoms: C_18  and  C_19
REMARK    6  A    between atoms: C_19  and  N_20
REMARK    7  A    between atoms: N_23  and  C_24
REMARK                            x       y       z     vdW  Elec       q    Type
REMARK                         _______ _______ _______ _____ _____    ______ ____
ROOT
ATOM      1  C   UNL     1       1.614   9.315  19.459  0.00  0.00    +0.000 C 
ATOM      2  C   UNL     1       0.773   8.649  20.549  0.00  0.00    +0.000 C 
ATOM      3  C   UNL     1       1.399   7.365  21.075  0.00  0.00    +0.000 C 
ATOM      4  C   UNL     1       1.711   6.372  19.949  0.00  0.00    +0.000 C 
ATOM      5  C   UNL     1       2.611   7.043  18.895  0.00  0.00    +0.000 C 
ATOM      6  C   UNL     1       1.992   8.331  18.347  0.00  0.00    +0.000 C 
ENDROOT
BRANCH   1   9
ATOM      7  O   UNL     1       1.499  11.962  20.519  0.00  0.00    +0.000 OA
ATOM      8  C   UNL     1       0.882  11.694  19.492  0.00  0.00    +0.000 C 
ATOM      9  N   UNL     1       0.865  10.443  18.914  0.00  0.00    +0.000 N 
ATOM     10  H   UNL     1       0.546  10.374  17.956  0.00  0.00    +0.000 HD
BRANCH   8  11
ATOM     11  C   UNL     1       0.046  12.720  18.749  0.00  0.00    +0.000 C 
BRANCH  11  12
ATOM     12  C   UNL     1      -1.443  12.542  18.932  0.00  0.00    +0.000 A 
ATOM     13  C   UNL     1      -2.082  13.052  20.087  0.00  0.00    +0.000 A 
ATOM     14  C   UNL     1      -3.447  12.840  20.310  0.00  0.00    +0.000 A 
ATOM     15  C   UNL     1      -4.142  12.109  19.375  0.00  0.00    +0.000 A 
ATOM     16  C   UNL     1      -3.534  11.610  18.247  0.00  0.00    +0.000 A 
ATOM     17  C   UNL     1      -2.192  11.812  17.994  0.00  0.00    +0.000 A 
ATOM     18  O   UNL     1      -4.393  10.908  17.462  0.00  0.00    +0.000 OA
ATOM     19  C   UNL     1      -5.597  10.971  18.255  0.00  0.00    +0.000 C 
ATOM     20  O   UNL     1      -5.461  11.781  19.441  0.00  0.00    +0.000 OA
ENDBRANCH  11  12
ENDBRANCH   8  11
ENDBRANCH   1   9
BRANCH   4  21
ATOM     21  C   UNL     1       2.380   5.093  20.499  0.00  0.00    +0.000 C 
BRANCH  21  22
ATOM     22  C   UNL     1       1.540   3.804  20.356  0.00  0.00    +0.000 C 
BRANCH  22  23
ATOM     23  N   UNL     1       2.289   2.666  19.804  0.00  0.00    +0.000 NA
ATOM     24  C   UNL     1       2.157   2.544  18.340  0.00  0.00    +0.000 C 
ATOM     25  C   UNL     1       2.806   3.693  17.544  0.00  0.00    +0.000 C 
ATOM     26  N   UNL     1       4.210   3.841  17.895  0.00  0.00    +0.000 N 
ATOM     27  C   UNL     1       4.566   3.800  19.321  0.00  0.00    +0.000 C 
ATOM     28  C   UNL     1       3.740   2.748  20.110  0.00  0.00    +0.000 C 
BRANCH  26  29
ATOM     29  C   UNL     1       5.174   4.187  16.977  0.00  0.00    +0.000 A 
ATOM     30  N   UNL     1       5.254   3.427  15.856  0.00  0.00    +0.000 NA
ATOM     31  C   UNL     1       6.115   3.775  14.863  0.00  0.00    +0.000 A 
ATOM     32  C   UNL     1       6.961   4.858  14.919  0.00  0.00    +0.000 A 
ATOM     33  C   UNL     1       6.903   5.587  16.078  0.00  0.00    +0.000 A 
ATOM     34  C   UNL     1       6.026   5.274  17.105  0.00  0.00    +0.000 A 
ATOM     35  C   UNL     1       6.247   6.226  18.216  0.00  0.00    +0.000 C 
ATOM     36  C   UNL     1       7.401   7.063  17.669  0.00  0.00    +0.000 C 
ATOM     37  O   UNL     1       7.702   6.673  16.314  0.00  0.00    +0.000 OA
ENDBRANCH  26  29
ENDBRANCH  22  23
ENDBRANCH  21  22
ENDBRANCH   4  21
TORSDOF 7
ENDMDL
MODEL 3
REMARK VINA RESULT:      -8.6      3.586      4.804
REMARK  Name = 
REMARK  7 active torsions:
REMARK  status: ('A' for Active; 'I' for Inactive)
REMARK    1  A    between atoms: C_2  and  C_3
REMARK    2  A    between atoms: C_3  and  C_4
REMARK    3  A    between atoms: N_13  and  C_14
REMARK    4  A    between atoms: C_17  and  C_18
REMARK    5  A    between atoms: C_18  and  C_19
REMARK    6  A    between atoms: C_19  and  N_20
REMARK    7  A    between atoms: N_23  and  C_24
REMARK                            x       y       z     vdW  Elec       q    Type
REMARK                         _______ _______ _______ _____ _____    ______ ____
ROOT
ATOM      1  C   UNL     1       2.159   6.061  18.980  0.00  0.00    +0.000 C 
ATOM      2  C   UNL     1       1.846   5.921  20.470  0.00  0.00    +0.000 C 
ATOM      3  C   UNL     1       0.932   7.025  20.986  0.00  0.00    +0.000 C 
ATOM      4  C   UNL     1       1.484   8.421  20.677  0.00  0.00    +0.000 C 
ATOM      5  C   UNL     1       1.732   8.563  19.164  0.00  0.00    +0.000 C 
ATOM      6  C   UNL     1       2.657   7.467  18.629  0.00  0.00    +0.000 C 
ENDROOT
BRANCH   1   9
ATOM      7  O   UNL     1       1.766   3.804  17.279  0.00  0.00    +0.000 OA
ATOM      8  C   UNL     1       2.872   4.005  17.772  0.00  0.00    +0.000 C 
ATOM      9  N   UNL     1       3.154   5.057  18.615  0.00  0.00    +0.000 N 
ATOM     10  H   UNL     1       4.128   5.286  18.770  0.00  0.00    +0.000 HD
BRANCH   8  11
ATOM     11  C   UNL     1       4.059   3.093  17.517  0.00  0.00    +0.000 C 
BRANCH  11  12
ATOM     12  C   UNL     1       5.167   3.742  16.720  0.00  0.00    +0.000 A 
ATOM     13  C   UNL     1       6.080   4.615  17.357  0.00  0.00    +0.000 A 
ATOM     14  C   UNL     1       7.073   5.278  16.626  0.00  0.00    +0.000 A 
ATOM     15  C   UNL     1       7.120   5.063  15.269  0.00  0.00    +0.000 A 
ATOM     16  C   UNL     1       6.241   4.214  14.639  0.00  0.00    +0.000 A 
ATOM     17  C   UNL     1       5.259   3.537  15.334  0.00  0.00    +0.000 A 
ATOM     18  O   UNL     1       6.450   4.152  13.297  0.00  0.00    +0.000 OA
ATOM     19  C   UNL     1       7.524   5.105  13.147  0.00  0.00    +0.000 C 
ATOM     20  O   UNL     1       7.993   5.642  14.400  0.00  0.00    +0.000 OA
ENDBRANCH  11  12
ENDBRANCH   8  11
ENDBRANCH   1   9
BRANCH   4  21
ATOM     21  C   UNL     1       0.525   9.526  21.175  0.00  0.00    +0.000 C 
BRANCH  21  22
ATOM     22  C   UNL     1      -0.187  10.325  20.060  0.00  0.00    +0.000 C 
BRANCH  22  23
ATOM     23  N   UNL     1      -0.691  11.634  20.497  0.00  0.00    +0.000 NA
ATOM     24  C   UNL     1       0.320  12.432  21.215  0.00  0.00    +0.000 C 
ATOM     25  C   UNL     1       1.508  12.887  20.346  0.00  0.00    +0.000 C 
ATOM     26  N   UNL     1       1.046  13.625  19.180  0.00  0.00    +0.000 N 
ATOM     27  C   UNL     1      -0.091  13.074  18.429  0.00  0.00    +0.000 C 
ATOM     28  C   UNL     1      -1.173  12.457  19.358  0.00  0.00    +0.000 C 
BRANCH  26  29
ATOM     29  C   UNL     1       1.730  14.699  18.660  0.00  0.00    +0.000 A 
ATOM     30  N   UNL     1       2.921  14.438  18.065  0.00  0.00    +0.000 NA
ATOM     31  C   UNL     1       3.599  15.437  17.441  0.00  0.00    +0.000 A 
ATOM     32  C   UNL     1       3.173  16.744  17.389  0.00  0.00    +0.000 A 
ATOM     33  C   UNL     1       1.993  17.001  18.037  0.00  0.00    +0.000 A 
ATOM     34  C   UNL     1       1.264  16.005  18.668  0.00  0.00    +0.000 A 
ATOM     35  C   UNL     1       0.075  16.622  19.297  0.00  0.00    +0.000 C 
ATOM     36  C   UNL     1       0.291  18.097  18.964  0.00  0.00    +0.000 C 
ATOM     37  O   UNL     1       1.446  18.253  18.114  0.00  0.00    +0.000 OA
ENDBRANCH  26  29
ENDBRANCH  22  23
ENDBRANCH  21  22
ENDBRANCH   4  21
TORSDOF 7
ENDMDL
MODEL 4
REMARK VINA RESULT:      -8.4      1.234      2.183
REMARK  Name = 
REMARK  7 active torsions:
REMARK  status: ('A' for Active; 'I' for Inactive)
REMARK    1  A    between atoms: C_2  and  C_3
REMARK    2  A    between atoms: C_3  and  C_4
REMARK    3  A    between atoms: N_13  and  C_14
REMARK    4  A    between atoms: C_17  and  C_18
REMARK    5  A    between atoms: C_18  and  C_19
REMARK    6  A    between atoms: C_19  and  N_20
REMARK    7  A    between atoms: N_23  and  C_24
REMARK                            x       y       z     vdW  Elec       q    Type
REMARK                         _______ _______ _______ _____ _____    ______ ____
ROOT
ATOM      1  C   UNL     1       2.470   7.694  19.160  0.00  0.00    +0.000 C 
ATOM      2  C   UNL     1       2.044   8.548  17.965  0.00  0.00    +0.000 C 
ATOM      3  C   UNL     1       1.479   9.900  18.378  0.00  0.00    +0.000 C 
ATOM      4  C   UNL     1       0.329   9.762  19.383  0.00  0.00    +0.000 C 
ATOM      5  C   UNL     1       0.798   8.954  20.607  0.00  0.00    +0.000 C 
ATOM      6  C   UNL     1       1.360   7.587  20.211  0.00  0.00    +0.000 C 
ENDROOT
BRANCH   1   9
ATOM      7  O   UNL     1       2.831   5.340  20.732  0.00  0.00    +0.000 OA
ATOM      8  C   UNL     1       2.988   5.286  19.516  0.00  0.00    +0.000 C 
ATOM      9  N   UNL     1       2.851   6.370  18.678  0.00  0.00    +0.000 N 
ATOM     10  H   UNL     1       2.753   6.187  17.687  0.00  0.00    +0.000 HD
BRANCH   8  11
ATOM     11  C   UNL     1       3.375   4.005  18.798  0.00  0.00    +0.000 C 
BRANCH  11  12
ATOM     12  C   UNL     1       4.565   4.156  17.880  0.00  0.00    +0.000 A 
ATOM     13  C   UNL     1       5.838   4.463  18.414  0.00  0.00    +0.000 A 
ATOM     14  C   UNL     1       6.940   4.673  17.578  0.00  0.00    +0.000 A 
ATOM     15  C   UNL     1       6.740   4.583  16.220  0.00  0.00    +0.000 A 
ATOM     16  C   UNL     1       5.509   4.282  15.689  0.00  0.00    +0.000 A 
ATOM     17  C   UNL     1       4.405   4.058  16.488  0.00  0.00    +0.000 A 
ATOM     18  O   UNL     1       5.523   4.253  14.329  0.00  0.00    +0.000 OA
ATOM     19  C   UNL     1       6.891   4.631  14.066  0.00  0.00    +0.000 C 
ATOM     20  O   UNL     1       7.684   4.784  15.261  0.00  0.00    +0.000 OA
ENDBRANCH  11  12
ENDBRANCH   8  11
ENDBRANCH   1   9
BRANCH   4  21
ATOM     21  C   UNL     1      -0.204  11.145  19.817  0.00  0.00    +0.000 C 
BRANCH  21  22
ATOM     22  C   UNL     1      -0.670  11.233  21.288  0.00  0.00    +0.000 C 
BRANCH  22  23
ATOM     23  N   UNL     1      -0.926  12.605  21.749  0.00  0.00    +0.000 NA
ATOM     24  C   UNL     1      -1.822  13.358  20.852  0.00  0.00    +0.000 C 
ATOM     25  C   UNL     1      -3.268  12.826  20.801  0.00  0.00    +0.000 C 
ATOM     26  N   UNL     1      -3.849  12.772  22.134  0.00  0.00    +0.000 N 
ATOM     27  C   UNL     1      -3.024  12.216  23.217  0.00  0.00    +0.000 C 
ATOM     28  C   UNL     1      -1.533  12.635  23.104  0.00  0.00    +0.000 C 
BRANCH  26  29
ATOM     29  C   UNL     1      -5.173  13.050  22.381  0.00  0.00    +0.000 A 
ATOM     30  N   UNL     1      -6.076  12.104  22.020  0.00  0.00    +0.000 NA
ATOM     31  C   UNL     1      -7.389  12.270  22.327  0.00  0.00    +0.000 A 
ATOM     32  C   UNL     1      -7.898  13.374  22.972  0.00  0.00    +0.000 A 
ATOM     33  C   UNL     1      -6.980  14.342  23.286  0.00  0.00    +0.000 A 
ATOM     34  C   UNL     1      -5.630  14.201  23.006  0.00  0.00    +0.000 A 
ATOM     35  C   UNL     1      -4.931  15.433  23.434  0.00  0.00    +0.000 C 
ATOM     36  C   UNL     1      -6.099  16.281  23.935  0.00  0.00    +0.000 C 
ATOM     37  O   UNL     1      -7.322  15.519  23.896  0.00  0.00    +0.000 OA
ENDBRANCH  26  29
ENDBRANCH  22  23
ENDBRANCH  21  22
ENDBRANCH   4  21
TORSDOF 7
ENDMDL
MODEL 5
REMARK VINA RESULT:      -8.3      4.085      5.767
REMARK  Name = 
REMARK  7 active torsions:
REMARK  status: ('A' for Active; 'I' for Inactive)
REMARK    1  A    between atoms: C_2  and  C_3
REMARK    2  A    between atoms: C_3  and  C_4
REMARK    3  A    between atoms: N_13  and  C_14
REMARK    4  A    between atoms: C_17  and  C_18
REMARK    5  A    between atoms: C_18  and  C_19
REMARK    6  A    between atoms: C_19  and  N_20
REMARK    7  A    between atoms: N_23  and  C_24
REMARK                            x       y       z     vdW  Elec       q    Type
REMARK                         _______ _______ _______ _____ _____    ______ ____
ROOT
ATOM      1  C   UNL     1       2.071   6.813  19.198  0.00  0.00    +0.000 C 
ATOM      2  C   UNL     1       1.867   7.298  20.635  0.00  0.00    +0.000 C 
ATOM      3  C   UNL     1       0.861   8.436  20.735  0.00  0.00    +0.000 C 
ATOM      4  C   UNL     1       1.221   9.608  19.813  0.00  0.00    +0.000 C 
ATOM      5  C   UNL     1       1.359   9.109  18.363  0.00  0.00    +0.000 C 
ATOM      6  C   UNL     1       2.375   7.971  18.242  0.00  0.00    +0.000 C 
ENDROOT
BRANCH   1   9
ATOM      7  O   UNL     1       1.893   4.072  18.425  0.00  0.00    +0.000 OA
ATOM      8  C   UNL     1       2.975   4.532  18.780  0.00  0.00    +0.000 C 
ATOM      9  N   UNL     1       3.156   5.836  19.184  0.00  0.00    +0.000 N 
ATOM     10  H   UNL     1       4.104   6.189  19.218  0.00  0.00    +0.000 HD
BRANCH   8  11
ATOM     11  C   UNL     1       4.242   3.696  18.830  0.00  0.00    +0.000 C 
BRANCH  11  12
ATOM     12  C   UNL     1       5.253   4.059  17.769  0.00  0.00    +0.000 A 
ATOM     13  C   UNL     1       6.497   4.624  18.138  0.00  0.00    +0.000 A 
ATOM     14  C   UNL     1       7.422   5.029  17.169  0.00  0.00    +0.000 A 
ATOM     15  C   UNL     1       7.075   4.870  15.847  0.00  0.00    +0.000 A 
ATOM     16  C   UNL     1       5.872   4.319  15.476  0.00  0.00    +0.000 A 
ATOM     17  C   UNL     1       4.944   3.900  16.408  0.00  0.00    +0.000 A 
ATOM     18  O   UNL     1       5.721   4.264  14.125  0.00  0.00    +0.000 OA
ATOM     19  C   UNL     1       6.943   4.899  13.692  0.00  0.00    +0.000 C 
ATOM     20  O   UNL     1       7.833   5.233  14.777  0.00  0.00    +0.000 OA
ENDBRANCH  11  12
ENDBRANCH   8  11
ENDBRANCH   1   9
BRANCH   4  21
ATOM     21  C   UNL     1       0.169  10.735  19.902  0.00  0.00    +0.000 C 
BRANCH  21  22
ATOM     22  C   UNL     1       0.448  11.961  19.002  0.00  0.00    +0.000 C 
BRANCH  22  23
ATOM     23  N   UNL     1       0.314  13.249  19.697  0.00  0.00    +0.000 NA
ATOM     24  C   UNL     1       1.272  13.410  20.807  0.00  0.00    +0.000 C 
ATOM     25  C   UNL     1       2.746  13.503  20.367  0.00  0.00    +0.000 C 
ATOM     26  N   UNL     1       2.934  14.577  19.404  0.00  0.00    +0.000 N 
ATOM     27  C   UNL     1       1.957  14.694  18.312  0.00  0.00    +0.000 C 
ATOM     28  C   UNL     1       0.505  14.402  18.780  0.00  0.00    +0.000 C 
BRANCH  26  29
ATOM     29  C   UNL     1       4.065  15.358  19.373  0.00  0.00    +0.000 A 
ATOM     30  N   UNL     1       5.115  14.891  18.651  0.00  0.00    +0.000 NA
ATOM     31  C   UNL     1       6.225  15.660  18.494  0.00  0.00    +0.000 A 
ATOM     32  C   UNL     1       6.385  16.906  19.053  0.00  0.00    +0.000 A 
ATOM     33  C   UNL     1       5.337  17.343  19.819  0.00  0.00    +0.000 A 
ATOM     34  C   UNL     1       4.181  16.596  19.987  0.00  0.00    +0.000 A 
ATOM     35  C   UNL     1       3.275  17.333  20.896  0.00  0.00    +0.000 C 
ATOM     36  C   UNL     1       4.123  18.556  21.239  0.00  0.00    +0.000 C 
ATOM     37  O   UNL     1       5.347  18.544  20.477  0.00  0.00    +0.000 OA
ENDBRANCH  26  29
ENDBRANCH  22  23
ENDBRANCH  21  22
ENDBRANCH   4  21
TORSDOF 7
ENDMDL
MODEL 6
REMARK VINA RESULT:      -8.2      1.785      2.615
REMARK  Name = 
REMARK  7 active torsions:
REMARK  status: ('A' for Active; 'I' for Inactive)
REMARK    1  A    between atoms: C_2  and  C_3
REMARK    2  A    between atoms: C_3  and  C_4
REMARK    3  A    between atoms: N_13  and  C_14
REMARK    4  A    between atoms: C_17  and  C_18
REMARK    5  A    between atoms: C_18  and  C_19
REMARK    6  A    between atoms: C_19  and  N_20
REMARK    7  A    between atoms: N_23  and  C_24
REMARK                            x       y       z     vdW  Elec       q    Type
REMARK                         _______ _______ _______ _____ _____    ______ ____
ROOT
ATOM      1  C   UNL     1       1.842   7.382  18.589  0.00  0.00    +0.000 C 
ATOM      2  C   UNL     1       1.876   7.743  20.075  0.00  0.00    +0.000 C 
ATOM      3  C   UNL     1       0.876   8.832  20.440  0.00  0.00    +0.000 C 
ATOM      4  C   UNL     1       1.045  10.085  19.573  0.00  0.00    +0.000 C 
ATOM      5  C   UNL     1       0.944   9.709  18.084  0.00  0.00    +0.000 C 
ATOM      6  C   UNL     1       1.950   8.623  17.696  0.00  0.00    +0.000 C 
ENDROOT
BRANCH   1   9
ATOM      7  O   UNL     1       1.594   4.676  17.720  0.00  0.00    +0.000 OA
ATOM      8  C   UNL     1       2.711   5.161  17.878  0.00  0.00    +0.000 C 
ATOM      9  N   UNL     1       2.930   6.451  18.308  0.00  0.00    +0.000 N 
ATOM     10  H   UNL     1       3.856   6.839  18.173  0.00  0.00    +0.000 HD
BRANCH   8  11
ATOM     11  C   UNL     1       3.986   4.374  17.633  0.00  0.00    +0.000 C 
BRANCH  11  12
ATOM     12  C   UNL     1       5.248   5.150  17.932  0.00  0.00    +0.000 A 
ATOM     13  C   UNL     1       6.055   4.791  19.037  0.00  0.00    +0.000 A 
ATOM     14  C   UNL     1       7.191   5.536  19.373  0.00  0.00    +0.000 A 
ATOM     15  C   UNL     1       7.488   6.635  18.600  0.00  0.00    +0.000 A 
ATOM     16  C   UNL     1       6.713   6.991  17.522  0.00  0.00    +0.000 A 
ATOM     17  C   UNL     1       5.594   6.270  17.159  0.00  0.00    +0.000 A 
ATOM     18  O   UNL     1       7.171   8.112  16.902  0.00  0.00    +0.000 OA
ATOM     19  C   UNL     1       8.288   8.452  17.751  0.00  0.00    +0.000 C 
ATOM     20  O   UNL     1       8.530   7.487  18.795  0.00  0.00    +0.000 OA
ENDBRANCH  11  12
ENDBRANCH   8  11
ENDBRANCH   1   9
BRANCH   4  21
ATOM     21  C   UNL     1      -0.002  11.162  19.933  0.00  0.00    +0.000 C 
BRANCH  21  22
ATOM     22  C   UNL     1      -0.385  11.227  21.429  0.00  0.00    +0.000 C 
BRANCH  22  23
ATOM     23  N   UNL     1      -0.670  12.586  21.911  0.00  0.00    +0.000 NA
ATOM     24  C   UNL     1      -1.495  13.370  20.972  0.00  0.00    +0.000 C 
ATOM     25  C   UNL     1      -2.934  12.847  20.799  0.00  0.00    +0.000 C 
ATOM     26  N   UNL     1      -3.612  12.757  22.083  0.00  0.00    +0.000 N 
ATOM     27  C   UNL     1      -2.872  12.165  23.207  0.00  0.00    +0.000 C 
ATOM     28  C   UNL     1      -1.376  12.580  23.217  0.00  0.00    +0.000 C 
BRANCH  26  29
ATOM     29  C   UNL     1      -4.950  13.035  22.239  0.00  0.00    +0.000 A 
ATOM     30  N   UNL     1      -5.827  12.150  21.701  0.00  0.00    +0.000 NA
ATOM     31  C   UNL     1      -7.161  12.310  21.906  0.00  0.00    +0.000 A 
ATOM     32  C   UNL     1      -7.714  13.350  22.617  0.00  0.00    +0.000 A 
ATOM     33  C   UNL     1      -6.818  14.262  23.112  0.00  0.00    +0.000 A 
ATOM     34  C   UNL     1      -5.450  14.123  22.939  0.00  0.00    +0.000 A 
ATOM     35  C   UNL     1      -4.779  15.289  23.557  0.00  0.00    +0.000 C 
ATOM     36  C   UNL     1      -5.978  16.103  24.040  0.00  0.00    +0.000 C 
ATOM     37  O   UNL     1      -7.201  15.375  23.811  0.00  0.00    +0.000 OA
ENDBRANCH  26  29
ENDBRANCH  22  23
ENDBRANCH  21  22
ENDBRANCH   4  21
TORSDOF 7
ENDMDL
MODEL 7
REMARK VINA RESULT:      -8.2      4.030      5.933
REMARK  Name = 
REMARK  7 active torsions:
REMARK  status: ('A' for Active; 'I' for Inactive)
REMARK    1  A    between atoms: C_2  and  C_3
REMARK    2  A    between atoms: C_3  and  C_4
REMARK    3  A    between atoms: N_13  and  C_14
REMARK    4  A    between atoms: C_17  and  C_18
REMARK    5  A    between atoms: C_18  and  C_19
REMARK    6  A    between atoms: C_19  and  N_20
REMARK    7  A    between atoms: N_23  and  C_24
REMARK                            x       y       z     vdW  Elec       q    Type
REMARK                         _______ _______ _______ _____ _____    ______ ____
ROOT
ATOM      1  C   UNL     1       1.788   7.518  19.526  0.00  0.00    +0.000 C 
ATOM      2  C   UNL     1       1.513   8.164  20.885  0.00  0.00    +0.000 C 
ATOM      3  C   UNL     1       0.437   9.239  20.820  0.00  0.00    +0.000 C 
ATOM      4  C   UNL     1       0.752  10.307  19.766  0.00  0.00    +0.000 C 
ATOM      5  C   UNL     1       0.962   9.642  18.393  0.00  0.00    +0.000 C 
ATOM      6  C   UNL     1       2.048   8.565  18.438  0.00  0.00    +0.000 C 
ENDROOT
BRANCH   1   9
ATOM      7  O   UNL     1       1.884   4.759  18.803  0.00  0.00    +0.000 OA
ATOM      8  C   UNL     1       2.885   5.299  19.267  0.00  0.00    +0.000 C 
ATOM      9  N   UNL     1       2.930   6.619  19.658  0.00  0.00    +0.000 N 
ATOM     10  H   UNL     1       3.843   7.037  19.790  0.00  0.00    +0.000 HD
BRANCH   8  11
ATOM     11  C   UNL     1       4.191   4.554  19.480  0.00  0.00    +0.000 C 
BRANCH  11  12
ATOM     12  C   UNL     1       5.179   4.720  18.350  0.00  0.00    +0.000 A 
ATOM     13  C   UNL     1       6.375   5.446  18.555  0.00  0.00    +0.000 A 
ATOM     14  C   UNL     1       7.273   5.669  17.505  0.00  0.00    +0.000 A 
ATOM     15  C   UNL     1       6.946   5.169  16.266  0.00  0.00    +0.000 A 
ATOM     16  C   UNL     1       5.788   4.459  16.055  0.00  0.00    +0.000 A 
ATOM     17  C   UNL     1       4.889   4.213  17.072  0.00  0.00    +0.000 A 
ATOM     18  O   UNL     1       5.649   4.067  14.760  0.00  0.00    +0.000 OA
ATOM     19  C   UNL     1       6.823   4.664  14.170  0.00  0.00    +0.000 C 
ATOM     20  O   UNL     1       7.680   5.314  15.129  0.00  0.00    +0.000 OA
ENDBRANCH  11  12
ENDBRANCH   8  11
ENDBRANCH   1   9
BRANCH   4  21
ATOM     21  C   UNL     1      -0.370  11.367  19.689  0.00  0.00    +0.000 C 
BRANCH  21  22
ATOM     22  C   UNL     1       0.004  12.755  20.256  0.00  0.00    +0.000 C 
BRANCH  22  23
ATOM     23  N   UNL     1       0.240  13.774  19.224  0.00  0.00    +0.000 NA
ATOM     24  C   UNL     1       0.491  15.116  19.783  0.00  0.00    +0.000 C 
ATOM     25  C   UNL     1       1.806  15.239  20.577  0.00  0.00    +0.000 C 
ATOM     26  N   UNL     1       2.943  14.831  19.766  0.00  0.00    +0.000 N 
ATOM     27  C   UNL     1       2.812  13.596  18.979  0.00  0.00    +0.000 C 
ATOM     28  C   UNL     1       1.398  13.435  18.358  0.00  0.00    +0.000 C 
BRANCH  26  29
ATOM     29  C   UNL     1       4.171  15.444  19.845  0.00  0.00    +0.000 A 
ATOM     30  N   UNL     1       4.473  16.339  18.871  0.00  0.00    +0.000 NA
ATOM     31  C   UNL     1       5.626  17.056  18.944  0.00  0.00    +0.000 A 
ATOM     32  C   UNL     1       6.557  16.919  19.947  0.00  0.00    +0.000 A 
ATOM     33  C   UNL     1       6.261  15.977  20.897  0.00  0.00    +0.000 A 
ATOM     34  C   UNL     1       5.087  15.240  20.866  0.00  0.00    +0.000 A 
ATOM     35  C   UNL     1       5.099  14.293  22.003  0.00  0.00    +0.000 C 
ATOM     36  C   UNL     1       6.466  14.582  22.620  0.00  0.00    +0.000 C 
ATOM     37  O   UNL     1       7.095  15.689  21.943  0.00  0.00    +0.000 OA
ENDBRANCH  26  29
ENDBRANCH  22  23
ENDBRANCH  21  22
ENDBRANCH   4  21
TORSDOF 7
ENDMDL
MODEL 8
REMARK VINA RESULT:      -8.2      1.368      1.743
REMARK  Name = 
REMARK  7 active torsions:
REMARK  status: ('A' for Active; 'I' for Inactive)
REMARK    1  A    between atoms: C_2  and  C_3
REMARK    2  A    between atoms: C_3  and  C_4
REMARK    3  A    between atoms: N_13  and  C_14
REMARK    4  A    between atoms: C_17  and  C_18
REMARK    5  A    between atoms: C_18  and  C_19
REMARK    6  A    between atoms: C_19  and  N_20
REMARK    7  A    between atoms: N_23  and  C_24
REMARK                            x       y       z     vdW  Elec       q    Type
REMARK                         _______ _______ _______ _____ _____    ______ ____
ROOT
ATOM      1  C   UNL     1       2.186   7.055  19.133  0.00  0.00    +0.000 C 
ATOM      2  C   UNL     1       1.931   7.569  20.551  0.00  0.00    +0.000 C 
ATOM      3  C   UNL     1       0.901   8.689  20.594  0.00  0.00    +0.000 C 
ATOM      4  C   UNL     1       1.266   9.845  19.656  0.00  0.00    +0.000 C 
ATOM      5  C   UNL     1       1.456   9.316  18.223  0.00  0.00    +0.000 C 
ATOM      6  C   UNL     1       2.496   8.195  18.158  0.00  0.00    +0.000 C 
ENDROOT
BRANCH   1   9
ATOM      7  O   UNL     1       1.991   4.233  19.511  0.00  0.00    +0.000 OA
ATOM      8  C   UNL     1       3.094   4.747  19.348  0.00  0.00    +0.000 C 
ATOM      9  N   UNL     1       3.289   6.099  19.173  0.00  0.00    +0.000 N 
ATOM     10  H   UNL     1       4.183   6.399  18.803  0.00  0.00    +0.000 HD
BRANCH   8  11
ATOM     11  C   UNL     1       4.380   3.939  19.341  0.00  0.00    +0.000 C 
BRANCH  11  12
ATOM     12  C   UNL     1       5.310   4.283  18.202  0.00  0.00    +0.000 A 
ATOM     13  C   UNL     1       6.471   5.055  18.444  0.00  0.00    +0.000 A 
ATOM     14  C   UNL     1       7.312   5.442  17.394  0.00  0.00    +0.000 A 
ATOM     15  C   UNL     1       6.963   5.058  16.120  0.00  0.00    +0.000 A 
ATOM     16  C   UNL     1       5.840   4.305  15.873  0.00  0.00    +0.000 A 
ATOM     17  C   UNL     1       4.998   3.898  16.888  0.00  0.00    +0.000 A 
ATOM     18  O   UNL     1       5.671   4.044  14.549  0.00  0.00    +0.000 OA
ATOM     19  C   UNL     1       6.784   4.770  13.987  0.00  0.00    +0.000 C 
ATOM     20  O   UNL     1       7.642   5.367  14.981  0.00  0.00    +0.000 OA
ENDBRANCH  11  12
ENDBRANCH   8  11
ENDBRANCH   1   9
BRANCH   4  21
ATOM     21  C   UNL     1       0.189  10.953  19.687  0.00  0.00    +0.000 C 
BRANCH  21  22
ATOM     22  C   UNL     1       0.697  12.345  20.127  0.00  0.00    +0.000 C 
BRANCH  22  23
ATOM     23  N   UNL     1       0.446  12.648  21.542  0.00  0.00    +0.000 NA
ATOM     24  C   UNL     1      -0.241  13.938  21.744  0.00  0.00    +0.000 C 
ATOM     25  C   UNL     1      -1.685  13.982  21.207  0.00  0.00    +0.000 C 
ATOM     26  N   UNL     1      -2.485  12.910  21.782  0.00  0.00    +0.000 N 
ATOM     27  C   UNL     1      -1.889  11.568  21.840  0.00  0.00    +0.000 C 
ATOM     28  C   UNL     1      -0.379  11.603  22.201  0.00  0.00    +0.000 C 
BRANCH  26  29
ATOM     29  C   UNL     1      -3.814  13.064  22.102  0.00  0.00    +0.000 A 
ATOM     30  N   UNL     1      -4.101  13.393  23.387  0.00  0.00    +0.000 NA
ATOM     31  C   UNL     1      -5.384  13.659  23.746  0.00  0.00    +0.000 A 
ATOM     32  C   UNL     1      -6.456  13.592  22.888  0.00  0.00    +0.000 A 
ATOM     33  C   UNL     1      -6.156  13.211  21.606  0.00  0.00    +0.000 A 
ATOM     34  C   UNL     1      -4.858  12.949  21.197  0.00  0.00    +0.000 A 
ATOM     35  C   UNL     1      -4.890  12.529  19.778  0.00  0.00    +0.000 C 
ATOM     36  C   UNL     1      -6.390  12.548  19.493  0.00  0.00    +0.000 C 
ATOM     37  O   UNL     1      -7.108  13.059  20.634  0.00  0.00    +0.000 OA
ENDBRANCH  26  29
ENDBRANCH  22  23
ENDBRANCH  21  22
ENDBRANCH   4  21
TORSDOF 7
ENDMDL
MODEL 9
REMARK VINA RESULT:      -8.1      3.796     11.972
REMARK  Name = 
REMARK  7 active torsions:
REMARK  status: ('A' for Active; 'I' for Inactive)
REMARK    1  A    between atoms: C_2  and  C_3
REMARK    2  A    between atoms: C_3  and  C_4
REMARK    3  A    between atoms: N_13  and  C_14
REMARK    4  A    between atoms: C_17  and  C_18
REMARK    5  A    between atoms: C_18  and  C_19
REMARK    6  A    between atoms: C_19  and  N_20
REMARK    7  A    between atoms: N_23  and  C_24
REMARK                            x       y       z     vdW  Elec       q    Type
REMARK                         _______ _______ _______ _____ _____    ______ ____
ROOT
ATOM      1  C   UNL     1       1.595   8.696  20.197  0.00  0.00    +0.000 C 
ATOM      2  C   UNL     1       0.728   7.855  21.135  0.00  0.00    +0.000 C 
ATOM      3  C   UNL     1       1.330   6.488  21.428  0.00  0.00    +0.000 C 
ATOM      4  C   UNL     1       1.650   5.712  20.144  0.00  0.00    +0.000 C 
ATOM      5  C   UNL     1       2.575   6.550  19.243  0.00  0.00    +0.000 C 
ATOM      6  C   UNL     1       1.980   7.925  18.930  0.00  0.00    +0.000 C 
ENDROOT
BRANCH   1   9
ATOM      7  O   UNL     1       1.983  10.328  17.888  0.00  0.00    +0.000 OA
ATOM      8  C   UNL     1       1.119  10.632  18.706  0.00  0.00    +0.000 C 
ATOM      9  N   UNL     1       0.868   9.915  19.855  0.00  0.00    +0.000 N 
ATOM     10  H   UNL     1      -0.008  10.088  20.334  0.00  0.00    +0.000 HD
BRANCH   8  11
ATOM     11  C   UNL     1       0.235  11.856  18.545  0.00  0.00    +0.000 C 
BRANCH  11  12
ATOM     12  C   UNL     1      -1.226  11.531  18.342  0.00  0.00    +0.000 A 
ATOM     13  C   UNL     1      -1.615  10.610  17.340  0.00  0.00    +0.000 A 
ATOM     14  C   UNL     1      -2.965  10.344  17.089  0.00  0.00    +0.000 A 
ATOM     15  C   UNL     1      -3.901  11.018  17.840  0.00  0.00    +0.000 A 
ATOM     16  C   UNL     1      -3.536  11.912  18.818  0.00  0.00    +0.000 A 
ATOM     17  C   UNL     1      -2.212  12.187  19.097  0.00  0.00    +0.000 A 
ATOM     18  O   UNL     1      -4.610  12.476  19.432  0.00  0.00    +0.000 OA
ATOM     19  C   UNL     1      -5.692  11.879  18.687  0.00  0.00    +0.000 C 
ATOM     20  O   UNL     1      -5.251  10.908  17.715  0.00  0.00    +0.000 OA
ENDBRANCH  11  12
ENDBRANCH   8  11
ENDBRANCH   1   9
BRANCH   4  21
ATOM     21  C   UNL     1       2.295   4.344  20.462  0.00  0.00    +0.000 C 
BRANCH  21  22
ATOM     22  C   UNL     1       1.575   3.124  19.844  0.00  0.00    +0.000 C 
BRANCH  22  23
ATOM     23  N   UNL     1       2.489   2.102  19.314  0.00  0.00    +0.000 NA
ATOM     24  C   UNL     1       2.453   2.002  17.843  0.00  0.00    +0.000 C 
ATOM     25  C   UNL     1       2.994   3.242  17.106  0.00  0.00    +0.000 C 
ATOM     26  N   UNL     1       4.348   3.554  17.538  0.00  0.00    +0.000 N 
ATOM     27  C   UNL     1       4.629   3.523  18.981  0.00  0.00    +0.000 C 
ATOM     28  C   UNL     1       3.900   2.357  19.703  0.00  0.00    +0.000 C 
BRANCH  26  29
ATOM     29  C   UNL     1       5.309   4.041  16.683  0.00  0.00    +0.000 A 
ATOM     30  N   UNL     1       5.456   3.398  15.497  0.00  0.00    +0.000 NA
ATOM     31  C   UNL     1       6.314   3.887  14.564  0.00  0.00    +0.000 A 
ATOM     32  C   UNL     1       7.095   5.005  14.744  0.00  0.00    +0.000 A 
ATOM     33  C   UNL     1       6.971   5.615  15.965  0.00  0.00    +0.000 A 
ATOM     34  C   UNL     1       6.092   5.157  16.935  0.00  0.00    +0.000 A 
ATOM     35  C   UNL     1       6.234   6.009  18.136  0.00  0.00    +0.000 C 
ATOM     36  C   UNL     1       7.349   6.958  17.701  0.00  0.00    +0.000 C 
ATOM     37  O   UNL     1       7.700   6.717  16.323  0.00  0.00    +0.000 OA
ENDBRANCH  26  29
ENDBRANCH  22  23
ENDBRANCH  21  22
ENDBRANCH   4  21
TORSDOF 7
ENDMDL
