MODEL 1
REMARK VINA RESULT:      -8.9      0.000      0.000
REMARK  Name = 
REMARK  5 active torsions:
REMARK  status: ('A' for Active; 'I' for Inactive)
REMARK    1  A    between atoms: C_1  and  C_2
REMARK    2  A    between atoms: C_2  and  C_3
REMARK    3  A    between atoms: C_5  and  C_6
REMARK    4  A    between atoms: C_10  and  C_11
REMARK    5  A    between atoms: C_17  and  N_18
REMARK                            x       y       z     vdW  Elec       q    Type
REMARK                         _______ _______ _______ _____ _____    ______ ____
ROOT
ATOM      1  C   UNL     1       1.777   8.496  19.539  0.00  0.00    +0.000 A 
ATOM      2  C   UNL     1       1.153   8.390  20.732  0.00  0.00    +0.000 A 
ATOM      3  C   UNL     1       0.808   9.651  21.346  0.00  0.00    +0.000 A 
ATOM      4  O   UNL     1       1.059   9.900  22.520  0.00  0.00    +0.000 OA
ATOM      5  N   UNL     1       0.303  10.506  20.422  0.00  0.00    +0.000 N 
ATOM      6  C   UNL     1      -1.048  10.795  20.392  0.00  0.00    +0.000 A 
ATOM      7  C   UNL     1      -1.562  11.579  19.421  0.00  0.00    +0.000 A 
ATOM      8  C   UNL     1      -0.549  12.333  18.668  0.00  0.00    +0.000 A 
ATOM      9  C   UNL     1       0.730  11.917  18.575  0.00  0.00    +0.000 A 
ATOM     10  C   UNL     1       1.044  10.634  19.262  0.00  0.00    +0.000 A 
ATOM     11  N   UNL     1       1.873   9.709  18.850  0.00  0.00    +0.000 NA
ENDROOT
BRANCH   1  19
ATOM     12  C   UNL     1       4.362   4.857  17.075  0.00  0.00    +0.000 A 
ATOM     13  N   UNL     1       4.403   3.572  17.308  0.00  0.00    +0.000 NA
ATOM     14  C   UNL     1       3.604   3.049  18.322  0.00  0.00    +0.000 A 
ATOM     15  C   UNL     1       3.708   1.564  18.525  0.00  0.00    +0.000 C 
ATOM     16  C   UNL     1       2.784   3.811  19.045  0.00  0.00    +0.000 A 
ATOM     17  N   UNL     1       2.741   5.169  18.815  0.00  0.00    +0.000 N 
ATOM     18  N   UNL     1       1.977   6.083  19.442  0.00  0.00    +0.000 NA
ATOM     19  C   UNL     1       2.342   7.276  18.977  0.00  0.00    +0.000 A 
ATOM     20  C   UNL     1       3.311   7.123  17.932  0.00  0.00    +0.000 A 
ATOM     21  C   UNL     1       3.526   5.755  17.853  0.00  0.00    +0.000 A 
BRANCH  12  23
ATOM     22  C   UNL     1       5.744   4.203  15.100  0.00  0.00    +0.000 C 
ATOM     23  C   UNL     1       5.229   5.360  15.933  0.00  0.00    +0.000 C 
ENDBRANCH  12  23
ENDBRANCH   1  19
BRANCH   7  24
ATOM     24  N   UNL     1      -2.931  11.722  19.148  0.00  0.00    +0.000 N 
ATOM     25  C   UNL     1      -3.481  11.506  17.776  0.00  0.00    +0.000 C 
ATOM     26  C   UNL     1      -5.013  11.260  17.735  0.00  0.00    +0.000 C 
ATOM     27  N   UNL     1      -5.719  12.300  18.479  0.00  0.00    +0.000 NA
ATOM     28  C   UNL     1      -7.167  12.181  18.540  0.00  0.00    +0.000 C 
ATOM     29  C   UNL     1      -7.511  13.118  19.698  0.00  0.00    +0.000 C 
ATOM     30  C   UNL     1      -6.236  13.222  20.543  0.00  0.00    +0.000 C 
ATOM     31  C   UNL     1      -5.267  12.258  19.875  0.00  0.00    +0.000 C 
ATOM     32  C   UNL     1      -3.782  12.631  19.977  0.00  0.00    +0.000 C 
ENDBRANCH   7  24
TORSDOF 3
ENDMDL
MODEL 2
REMARK VINA RESULT:      -8.8      0.827      1.910
REMARK  Name = 
REMARK  5 active torsions:
REMARK  status: ('A' for Active; 'I' for Inactive)
REMARK    1  A    between atoms: C_1  and  C_2
REMARK    2  A    between atoms: C_2  and  C_3
REMARK    3  A    between atoms: C_5  and  C_6
REMARK    4  A    between atoms: C_10  and  C_11
REMARK    5  A    between atoms: C_17  and  N_18
REMARK                            x       y       z     vdW  Elec       q    Type
REMARK                         _______ _______ _______ _____ _____    ______ ____
ROOT
ATOM      1  C   UNL     1       1.814   8.477  19.637  0.00  0.00    +0.000 A 
ATOM      2  C   UNL     1       1.111   8.383  20.786  0.00  0.00    +0.000 A 
ATOM      3  C   UNL     1       0.716   9.650  21.356  0.00  0.00    +0.000 A 
ATOM      4  O   UNL     1       0.884   9.919  22.540  0.00  0.00    +0.000 OA
ATOM      5  N   UNL     1       0.268  10.487  20.387  0.00  0.00    +0.000 N 
ATOM      6  C   UNL     1      -1.081  10.763  20.261  0.00  0.00    +0.000 A 
ATOM      7  C   UNL     1      -1.535  11.527  19.246  0.00  0.00    +0.000 A 
ATOM      8  C   UNL     1      -0.479  12.279  18.551  0.00  0.00    +0.000 A 
ATOM      9  C   UNL     1       0.807  11.874  18.550  0.00  0.00    +0.000 A 
ATOM     10  C   UNL     1       1.083  10.604  19.278  0.00  0.00    +0.000 A 
ATOM     11  N   UNL     1       1.946   9.680  18.937  0.00  0.00    +0.000 NA
ENDROOT
BRANCH   1  19
ATOM     12  C   UNL     1       3.219   3.735  18.396  0.00  0.00    +0.000 A 
ATOM     13  N   UNL     1       4.035   3.336  17.458  0.00  0.00    +0.000 NA
ATOM     14  C   UNL     1       4.695   4.293  16.691  0.00  0.00    +0.000 A 
ATOM     15  C   UNL     1       5.616   3.751  15.634  0.00  0.00    +0.000 C 
ATOM     16  C   UNL     1       4.538   5.600  16.897  0.00  0.00    +0.000 A 
ATOM     17  N   UNL     1       3.671   6.033  17.876  0.00  0.00    +0.000 N 
ATOM     18  N   UNL     1       3.394   7.304  18.222  0.00  0.00    +0.000 NA
ATOM     19  C   UNL     1       2.425   7.254  19.133  0.00  0.00    +0.000 A 
ATOM     20  C   UNL     1       2.132   5.890  19.467  0.00  0.00    +0.000 A 
ATOM     21  C   UNL     1       2.964   5.143  18.648  0.00  0.00    +0.000 A 
BRANCH  12  23
ATOM     22  C   UNL     1       1.149   2.380  18.731  0.00  0.00    +0.000 C 
ATOM     23  C   UNL     1       2.559   2.643  19.222  0.00  0.00    +0.000 C 
ENDBRANCH  12  23
ENDBRANCH   1  19
BRANCH   7  24
ATOM     24  N   UNL     1      -2.883  11.654  18.879  0.00  0.00    +0.000 N 
ATOM     25  C   UNL     1      -3.321  11.524  17.457  0.00  0.00    +0.000 C 
ATOM     26  C   UNL     1      -4.838  11.241  17.280  0.00  0.00    +0.000 C 
ATOM     27  N   UNL     1      -5.630  12.206  18.039  0.00  0.00    +0.000 NA
ATOM     28  C   UNL     1      -7.074  12.044  17.981  0.00  0.00    +0.000 C 
ATOM     29  C   UNL     1      -7.534  12.885  19.172  0.00  0.00    +0.000 C 
ATOM     30  C   UNL     1      -6.330  12.961  20.118  0.00  0.00    +0.000 C 
ATOM     31  C   UNL     1      -5.283  12.073  19.460  0.00  0.00    +0.000 C 
ATOM     32  C   UNL     1      -3.822  12.477  19.702  0.00  0.00    +0.000 C 
ENDBRANCH   7  24
TORSDOF 3
ENDMDL
MODEL 3
REMARK VINA RESULT:      -8.8      2.156      3.581
REMARK  Name = 
REMARK  5 active torsions:
REMARK  status: ('A' for Active; 'I' for Inactive)
REMARK    1  A    between atoms: C_1  and  C_2
REMARK    2  A    between atoms: C_2  and  C_3
REMARK    3  A    between atoms: C_5  and  C_6
REMARK    4  A    between atoms: C_10  and  C_11
REMARK    5  A    between atoms: C_17  and  N_18
REMARK                            x       y       z     vdW  Elec       q    Type
REMARK                         _______ _______ _______ _____ _____    ______ ____
ROOT
ATOM      1  C   UNL     1       0.789  10.096  18.507  0.00  0.00    +0.000 A 
ATOM      2  C   UNL     1       1.236  11.212  19.123  0.00  0.00    +0.000 A 
ATOM      3  C   UNL     1       0.520  12.418  18.781  0.00  0.00    +0.000 A 
ATOM      4  O   UNL     1       1.092  13.455  18.464  0.00  0.00    +0.000 OA
ATOM      5  N   UNL     1      -0.816  12.183  18.750  0.00  0.00    +0.000 N 
ATOM      6  C   UNL     1      -1.639  12.654  19.757  0.00  0.00    +0.000 A 
ATOM      7  C   UNL     1      -2.953  12.349  19.770  0.00  0.00    +0.000 A 
ATOM      8  C   UNL     1      -3.450  11.807  18.497  0.00  0.00    +0.000 A 
ATOM      9  C   UNL     1      -2.636  11.192  17.614  0.00  0.00    +0.000 A 
ATOM     10  C   UNL     1      -1.209  11.075  18.025  0.00  0.00    +0.000 A 
ATOM     11  N   UNL     1      -0.407  10.070  17.783  0.00  0.00    +0.000 NA
ENDROOT
BRANCH   1  19
ATOM     12  C   UNL     1       2.941   5.619  19.657  0.00  0.00    +0.000 A 
ATOM     13  N   UNL     1       3.873   4.964  19.018  0.00  0.00    +0.000 NA
ATOM     14  C   UNL     1       4.445   5.543  17.889  0.00  0.00    +0.000 A 
ATOM     15  C   UNL     1       5.510   4.725  17.213  0.00  0.00    +0.000 C 
ATOM     16  C   UNL     1       4.090   6.750  17.451  0.00  0.00    +0.000 A 
ATOM     17  N   UNL     1       3.100   7.446  18.110  0.00  0.00    +0.000 N 
ATOM     18  N   UNL     1       2.620   8.668  17.814  0.00  0.00    +0.000 NA
ATOM     19  C   UNL     1       1.603   8.895  18.642  0.00  0.00    +0.000 A 
ATOM     20  C   UNL     1       1.482   7.819  19.582  0.00  0.00    +0.000 A 
ATOM     21  C   UNL     1       2.471   6.920  19.212  0.00  0.00    +0.000 A 
BRANCH  12  23
ATOM     22  C   UNL     1       1.165   4.113  20.560  0.00  0.00    +0.000 C 
ATOM     23  C   UNL     1       2.382   4.950  20.902  0.00  0.00    +0.000 C 
ENDBRANCH  12  23
ENDBRANCH   1  19
BRANCH   7  24
ATOM     24  N   UNL     1      -3.811  12.551  20.861  0.00  0.00    +0.000 N 
ATOM     25  C   UNL     1      -3.309  12.517  22.268  0.00  0.00    +0.000 C 
ATOM     26  C   UNL     1      -4.255  13.189  23.299  0.00  0.00    +0.000 C 
ATOM     27  N   UNL     1      -5.614  12.669  23.163  0.00  0.00    +0.000 NA
ATOM     28  C   UNL     1      -6.613  13.230  24.057  0.00  0.00    +0.000 C 
ATOM     29  C   UNL     1      -7.916  12.816  23.374  0.00  0.00    +0.000 C 
ATOM     30  C   UNL     1      -7.558  12.582  21.902  0.00  0.00    +0.000 C 
ATOM     31  C   UNL     1      -6.091  12.975  21.808  0.00  0.00    +0.000 C 
ATOM     32  C   UNL     1      -5.266  12.219  20.757  0.00  0.00    +0.000 C 
ENDBRANCH   7  24
TORSDOF 3
ENDMDL
MODEL 4
REMARK VINA RESULT:      -8.5      1.141      2.220
REMARK  Name = 
REMARK  5 active torsions:
REMARK  status: ('A' for Active; 'I' for Inactive)
REMARK    1  A    between atoms: C_1  and  C_2
REMARK    2  A    between atoms: C_2  and  C_3
REMARK    3  A    between atoms: C_5  and  C_6
REMARK    4  A    between atoms: C_10  and  C_11
REMARK    5  A    between atoms: C_17  and  N_18
REMARK                            x       y       z     vdW  Elec       q    Type
REMARK                         _______ _______ _______ _____ _____    ______ ____
ROOT
ATOM      1  C   UNL     1       1.221   8.693  20.490  0.00  0.00    +0.000 A 
ATOM      2  C   UNL     1       0.467   8.646  21.609  0.00  0.00    +0.000 A 
ATOM      3  C   UNL     1       0.111   9.936  22.151  0.00  0.00    +0.000 A 
ATOM      4  O   UNL     1       0.243  10.209  23.339  0.00  0.00    +0.000 OA
ATOM      5  N   UNL     1      -0.253  10.784  21.156  0.00  0.00    +0.000 N 
ATOM      6  C   UNL     1      -1.580  11.125  20.971  0.00  0.00    +0.000 A 
ATOM      7  C   UNL     1      -1.952  11.900  19.931  0.00  0.00    +0.000 A 
ATOM      8  C   UNL     1      -0.832  12.592  19.275  0.00  0.00    +0.000 A 
ATOM      9  C   UNL     1       0.432  12.123  19.333  0.00  0.00    +0.000 A 
ATOM     10  C   UNL     1       0.613  10.849  20.082  0.00  0.00    +0.000 A 
ATOM     11  N   UNL     1       1.443   9.880  19.786  0.00  0.00    +0.000 NA
ENDROOT
BRANCH   1  19
ATOM     12  C   UNL     1       2.488   3.871  19.417  0.00  0.00    +0.000 A 
ATOM     13  N   UNL     1       3.269   3.414  18.475  0.00  0.00    +0.000 NA
ATOM     14  C   UNL     1       3.929   4.322  17.652  0.00  0.00    +0.000 A 
ATOM     15  C   UNL     1       4.810   3.715  16.595  0.00  0.00    +0.000 C 
ATOM     16  C   UNL     1       3.807   5.640  17.805  0.00  0.00    +0.000 A 
ATOM     17  N   UNL     1       2.976   6.135  18.788  0.00  0.00    +0.000 N 
ATOM     18  N   UNL     1       2.737   7.425  19.086  0.00  0.00    +0.000 NA
ATOM     19  C   UNL     1       1.791   7.435  20.024  0.00  0.00    +0.000 A 
ATOM     20  C   UNL     1       1.478   6.094  20.423  0.00  0.00    +0.000 A 
ATOM     21  C   UNL     1       2.271   5.294  19.614  0.00  0.00    +0.000 A 
BRANCH  12  23
ATOM     22  C   UNL     1       2.475   2.803  21.674  0.00  0.00    +0.000 C 
ATOM     23  C   UNL     1       1.826   2.831  20.305  0.00  0.00    +0.000 C 
ENDBRANCH  12  23
ENDBRANCH   1  19
BRANCH   7  24
ATOM     24  N   UNL     1      -3.275  12.089  19.506  0.00  0.00    +0.000 N 
ATOM     25  C   UNL     1      -3.696  11.791  18.104  0.00  0.00    +0.000 C 
ATOM     26  C   UNL     1      -5.228  11.619  17.920  0.00  0.00    +0.000 C 
ATOM     27  N   UNL     1      -5.944  12.751  18.506  0.00  0.00    +0.000 NA
ATOM     28  C   UNL     1      -7.394  12.709  18.424  0.00  0.00    +0.000 C 
ATOM     29  C   UNL     1      -7.799  13.752  19.465  0.00  0.00    +0.000 C 
ATOM     30  C   UNL     1      -6.612  13.860  20.429  0.00  0.00    +0.000 C 
ATOM     31  C   UNL     1      -5.638  12.798  19.941  0.00  0.00    +0.000 C 
ATOM     32  C   UNL     1      -4.151  13.103  20.171  0.00  0.00    +0.000 C 
ENDBRANCH   7  24
TORSDOF 3
ENDMDL
MODEL 5
REMARK VINA RESULT:      -8.4      1.886      3.016
REMARK  Name = 
REMARK  5 active torsions:
REMARK  status: ('A' for Active; 'I' for Inactive)
REMARK    1  A    between atoms: C_1  and  C_2
REMARK    2  A    between atoms: C_2  and  C_3
REMARK    3  A    between atoms: C_5  and  C_6
REMARK    4  A    between atoms: C_10  and  C_11
REMARK    5  A    between atoms: C_17  and  N_18
REMARK                            x       y       z     vdW  Elec       q    Type
REMARK                         _______ _______ _______ _____ _____    ______ ____
ROOT
ATOM      1  C   UNL     1       1.020   9.763  19.671  0.00  0.00    +0.000 A 
ATOM      2  C   UNL     1       1.139  10.394  20.858  0.00  0.00    +0.000 A 
ATOM      3  C   UNL     1       0.763  11.788  20.840  0.00  0.00    +0.000 A 
ATOM      4  O   UNL     1       1.466  12.666  21.328  0.00  0.00    +0.000 OA
ATOM      5  N   UNL     1      -0.375  11.963  20.122  0.00  0.00    +0.000 N 
ATOM      6  C   UNL     1      -1.575  12.229  20.755  0.00  0.00    +0.000 A 
ATOM      7  C   UNL     1      -2.720  12.319  20.047  0.00  0.00    +0.000 A 
ATOM      8  C   UNL     1      -2.514  12.455  18.597  0.00  0.00    +0.000 A 
ATOM      9  C   UNL     1      -1.393  12.016  17.989  0.00  0.00    +0.000 A 
ATOM     10  C   UNL     1      -0.391  11.364  18.877  0.00  0.00    +0.000 A 
ATOM     11  N   UNL     1       0.371  10.342  18.577  0.00  0.00    +0.000 NA
ENDROOT
BRANCH   1  19
ATOM     12  C   UNL     1       2.458   4.895  20.162  0.00  0.00    +0.000 A 
ATOM     13  N   UNL     1       3.055   4.120  19.296  0.00  0.00    +0.000 NA
ATOM     14  C   UNL     1       3.434   4.655  18.067  0.00  0.00    +0.000 A 
ATOM     15  C   UNL     1       4.116   3.698  17.129  0.00  0.00    +0.000 C 
ATOM     16  C   UNL     1       3.228   5.934  17.754  0.00  0.00    +0.000 A 
ATOM     17  N   UNL     1       2.590   6.758  18.655  0.00  0.00    +0.000 N 
ATOM     18  N   UNL     1       2.304   8.065  18.511  0.00  0.00    +0.000 NA
ATOM     19  C   UNL     1       1.588   8.424  19.574  0.00  0.00    +0.000 A 
ATOM     20  C   UNL     1       1.492   7.330  20.497  0.00  0.00    +0.000 A 
ATOM     21  C   UNL     1       2.160   6.288  19.872  0.00  0.00    +0.000 A 
BRANCH  12  23
ATOM     22  C   UNL     1       1.478   2.896  21.293  0.00  0.00    +0.000 C 
ATOM     23  C   UNL     1       2.103   4.262  21.497  0.00  0.00    +0.000 C 
ENDBRANCH  12  23
ENDBRANCH   1  19
BRANCH   7  24
ATOM     24  N   UNL     1      -4.008  12.326  20.604  0.00  0.00    +0.000 N 
ATOM     25  C   UNL     1      -5.227  12.173  19.756  0.00  0.00    +0.000 C 
ATOM     26  C   UNL     1      -6.501  11.755  20.539  0.00  0.00    +0.000 C 
ATOM     27  N   UNL     1      -6.708  12.634  21.688  0.00  0.00    +0.000 NA
ATOM     28  C   UNL     1      -7.859  12.342  22.526  0.00  0.00    +0.000 C 
ATOM     29  C   UNL     1      -7.529  13.123  23.798  0.00  0.00    +0.000 C 
ATOM     30  C   UNL     1      -6.006  13.297  23.796  0.00  0.00    +0.000 C 
ATOM     31  C   UNL     1      -5.543  12.517  22.574  0.00  0.00    +0.000 C 
ATOM     32  C   UNL     1      -4.279  13.050  21.885  0.00  0.00    +0.000 C 
ENDBRANCH   7  24
TORSDOF 3
ENDMDL
MODEL 6
REMARK VINA RESULT:      -8.3      1.397      2.659
REMARK  Name = 
REMARK  5 active torsions:
REMARK  status: ('A' for Active; 'I' for Inactive)
REMARK    1  A    between atoms: C_1  and  C_2
REMARK    2  A    between atoms: C_2  and  C_3
REMARK    3  A    between atoms: C_5  and  C_6
REMARK    4  A    between atoms: C_10  and  C_11
REMARK    5  A    between atoms: C_17  and  N_18
REMARK                            x       y       z     vdW  Elec       q    Type
REMARK                         _______ _______ _______ _____ _____    ______ ____
ROOT
ATOM      1  C   UNL     1       1.194   8.709  20.867  0.00  0.00    +0.000 A 
ATOM      2  C   UNL     1       0.425   8.589  21.970  0.00  0.00    +0.000 A 
ATOM      3  C   UNL     1       0.127   9.836  22.635  0.00  0.00    +0.000 A 
ATOM      4  O   UNL     1       0.257   9.983  23.845  0.00  0.00    +0.000 OA
ATOM      5  N   UNL     1      -0.184  10.795  21.727  0.00  0.00    +0.000 N 
ATOM      6  C   UNL     1      -1.490  11.219  21.567  0.00  0.00    +0.000 A 
ATOM      7  C   UNL     1      -1.811  12.110  20.607  0.00  0.00    +0.000 A 
ATOM      8  C   UNL     1      -0.651  12.807  20.031  0.00  0.00    +0.000 A 
ATOM      9  C   UNL     1       0.587  12.272  20.051  0.00  0.00    +0.000 A 
ATOM     10  C   UNL     1       0.698  10.922  20.671  0.00  0.00    +0.000 A 
ATOM     11  N   UNL     1       1.482   9.947  20.286  0.00  0.00    +0.000 NA
ENDROOT
BRANCH   1  19
ATOM     12  C   UNL     1       2.285   3.952  19.390  0.00  0.00    +0.000 A 
ATOM     13  N   UNL     1       3.001   3.547  18.375  0.00  0.00    +0.000 NA
ATOM     14  C   UNL     1       3.633   4.498  17.579  0.00  0.00    +0.000 A 
ATOM     15  C   UNL     1       4.438   3.950  16.433  0.00  0.00    +0.000 C 
ATOM     16  C   UNL     1       3.551   5.805  17.830  0.00  0.00    +0.000 A 
ATOM     17  N   UNL     1       2.789   6.244  18.891  0.00  0.00    +0.000 N 
ATOM     18  N   UNL     1       2.597   7.514  19.292  0.00  0.00    +0.000 NA
ATOM     19  C   UNL     1       1.707   7.477  20.282  0.00  0.00    +0.000 A 
ATOM     20  C   UNL     1       1.386   6.117  20.605  0.00  0.00    +0.000 A 
ATOM     21  C   UNL     1       2.113   5.361  19.698  0.00  0.00    +0.000 A 
BRANCH  12  23
ATOM     22  C   UNL     1       2.343   2.763  21.585  0.00  0.00    +0.000 C 
ATOM     23  C   UNL     1       1.650   2.864  20.241  0.00  0.00    +0.000 C 
ENDBRANCH  12  23
ENDBRANCH   1  19
BRANCH   7  24
ATOM     24  N   UNL     1      -3.118  12.407  20.193  0.00  0.00    +0.000 N 
ATOM     25  C   UNL     1      -4.165  12.844  21.165  0.00  0.00    +0.000 C 
ATOM     26  C   UNL     1      -5.385  13.551  20.514  0.00  0.00    +0.000 C 
ATOM     27  N   UNL     1      -5.919  12.745  19.418  0.00  0.00    +0.000 NA
ATOM     28  C   UNL     1      -7.055  13.300  18.702  0.00  0.00    +0.000 C 
ATOM     29  C   UNL     1      -7.063  12.463  17.424  0.00  0.00    +0.000 C 
ATOM     30  C   UNL     1      -5.632  11.933  17.265  0.00  0.00    +0.000 C 
ATOM     31  C   UNL     1      -4.866  12.583  18.408  0.00  0.00    +0.000 C 
ATOM     32  C   UNL     1      -3.693  11.767  18.970  0.00  0.00    +0.000 C 
ENDBRANCH   7  24
TORSDOF 3
ENDMDL
MODEL 7
REMARK VINA RESULT:      -8.1      0.721      1.340
REMARK  Name = 
REMARK  5 active torsions:
REMARK  status: ('A' for Active; 'I' for Inactive)
REMARK    1  A    between atoms: C_1  and  C_2
REMARK    2  A    between atoms: C_2  and  C_3
REMARK    3  A    between atoms: C_5  and  C_6
REMARK    4  A    between atoms: C_10  and  C_11
REMARK    5  A    between atoms: C_17  and  N_18
REMARK                            x       y       z     vdW  Elec       q    Type
REMARK                         _______ _______ _______ _____ _____    ______ ____
ROOT
ATOM      1  C   UNL     1       1.742   8.602  20.015  0.00  0.00    +0.000 A 
ATOM      2  C   UNL     1       1.106   8.441  21.195  0.00  0.00    +0.000 A 
ATOM      3  C   UNL     1       0.849   9.666  21.914  0.00  0.00    +0.000 A 
ATOM      4  O   UNL     1       1.111   9.798  23.104  0.00  0.00    +0.000 OA
ATOM      5  N   UNL     1       0.411  10.631  21.066  0.00  0.00    +0.000 N 
ATOM      6  C   UNL     1      -0.916  11.017  21.061  0.00  0.00    +0.000 A 
ATOM      7  C   UNL     1      -1.368  11.915  20.161  0.00  0.00    +0.000 A 
ATOM      8  C   UNL     1      -0.300  12.655  19.473  0.00  0.00    +0.000 A 
ATOM      9  C   UNL     1       0.947  12.158  19.343  0.00  0.00    +0.000 A 
ATOM     10  C   UNL     1       1.164  10.802  19.920  0.00  0.00    +0.000 A 
ATOM     11  N   UNL     1       1.927   9.858  19.430  0.00  0.00    +0.000 NA
ENDROOT
BRANCH   1  19
ATOM     12  C   UNL     1       4.040   5.013  17.215  0.00  0.00    +0.000 A 
ATOM     13  N   UNL     1       4.021   3.715  17.361  0.00  0.00    +0.000 NA
ATOM     14  C   UNL     1       3.231   3.165  18.368  0.00  0.00    +0.000 A 
ATOM     15  C   UNL     1       3.264   1.665  18.468  0.00  0.00    +0.000 C 
ATOM     16  C   UNL     1       2.479   3.916  19.172  0.00  0.00    +0.000 A 
ATOM     17  N   UNL     1       2.500   5.287  19.035  0.00  0.00    +0.000 N 
ATOM     18  N   UNL     1       1.809   6.193  19.750  0.00  0.00    +0.000 NA
ATOM     19  C   UNL     1       2.220   7.395  19.352  0.00  0.00    +0.000 A 
ATOM     20  C   UNL     1       3.142   7.265  18.261  0.00  0.00    +0.000 A 
ATOM     21  C   UNL     1       3.281   5.897  18.083  0.00  0.00    +0.000 A 
BRANCH  12  23
ATOM     22  C   UNL     1       5.496   4.410  15.278  0.00  0.00    +0.000 C 
ATOM     23  C   UNL     1       4.892   5.548  16.076  0.00  0.00    +0.000 C 
ENDBRANCH  12  23
ENDBRANCH   1  19
BRANCH   7  24
ATOM     24  N   UNL     1      -2.721  12.178  19.903  0.00  0.00    +0.000 N 
ATOM     25  C   UNL     1      -3.646  12.647  20.979  0.00  0.00    +0.000 C 
ATOM     26  C   UNL     1      -4.948  13.311  20.456  0.00  0.00    +0.000 C 
ATOM     27  N   UNL     1      -5.602  12.451  19.472  0.00  0.00    +0.000 NA
ATOM     28  C   UNL     1      -6.828  12.962  18.881  0.00  0.00    +0.000 C 
ATOM     29  C   UNL     1      -6.982  12.067  17.651  0.00  0.00    +0.000 C 
ATOM     30  C   UNL     1      -5.574  11.547  17.337  0.00  0.00    +0.000 C 
ATOM     31  C   UNL     1      -4.681  12.255  18.345  0.00  0.00    +0.000 C 
ATOM     32  C   UNL     1      -3.435  11.478  18.790  0.00  0.00    +0.000 C 
ENDBRANCH   7  24
TORSDOF 3
ENDMDL
MODEL 8
REMARK VINA RESULT:      -8.1      1.889      2.470
REMARK  Name = 
REMARK  5 active torsions:
REMARK  status: ('A' for Active; 'I' for Inactive)
REMARK    1  A    between atoms: C_1  and  C_2
REMARK    2  A    between atoms: C_2  and  C_3
REMARK    3  A    between atoms: C_5  and  C_6
REMARK    4  A    between atoms: C_10  and  C_11
REMARK    5  A    between atoms: C_17  and  N_18
REMARK                            x       y       z     vdW  Elec       q    Type
REMARK                         _______ _______ _______ _____ _____    ______ ____
ROOT
ATOM      1  C   UNL     1       1.001   9.663  19.751  0.00  0.00    +0.000 A 
ATOM      2  C   UNL     1       1.164  10.288  20.937  0.00  0.00    +0.000 A 
ATOM      3  C   UNL     1       0.850  11.698  20.924  0.00  0.00    +0.000 A 
ATOM      4  O   UNL     1       1.598  12.543  21.402  0.00  0.00    +0.000 OA
ATOM      5  N   UNL     1      -0.289  11.923  20.221  0.00  0.00    +0.000 N 
ATOM      6  C   UNL     1      -1.468  12.242  20.870  0.00  0.00    +0.000 A 
ATOM      7  C   UNL     1      -2.617  12.383  20.178  0.00  0.00    +0.000 A 
ATOM      8  C   UNL     1      -2.425  12.511  18.726  0.00  0.00    +0.000 A 
ATOM      9  C   UNL     1      -1.333  12.023  18.103  0.00  0.00    +0.000 A 
ATOM     10  C   UNL     1      -0.348  11.326  18.977  0.00  0.00    +0.000 A 
ATOM     11  N   UNL     1       0.363  10.272  18.666  0.00  0.00    +0.000 NA
ENDROOT
BRANCH   1  19
ATOM     12  C   UNL     1       3.330   5.267  18.633  0.00  0.00    +0.000 A 
ATOM     13  N   UNL     1       3.392   4.166  19.332  0.00  0.00    +0.000 NA
ATOM     14  C   UNL     1       2.695   4.095  20.536  0.00  0.00    +0.000 A 
ATOM     15  C   UNL     1       2.817   2.794  21.278  0.00  0.00    +0.000 C 
ATOM     16  C   UNL     1       1.950   5.105  20.986  0.00  0.00    +0.000 A 
ATOM     17  N   UNL     1       1.886   6.275  20.262  0.00  0.00    +0.000 N 
ATOM     18  N   UNL     1       1.187   7.386  20.560  0.00  0.00    +0.000 NA
ATOM     19  C   UNL     1       1.507   8.301  19.647  0.00  0.00    +0.000 A 
ATOM     20  C   UNL     1       2.370   7.727  18.655  0.00  0.00    +0.000 A 
ATOM     21  C   UNL     1       2.575   6.424  19.083  0.00  0.00    +0.000 A 
BRANCH  12  23
ATOM     22  C   UNL     1       5.400   6.005  17.447  0.00  0.00    +0.000 C 
ATOM     23  C   UNL     1       4.082   5.268  17.313  0.00  0.00    +0.000 C 
ENDBRANCH  12  23
ENDBRANCH   1  19
BRANCH   7  24
ATOM     24  N   UNL     1      -3.895  12.447  20.753  0.00  0.00    +0.000 N 
ATOM     25  C   UNL     1      -5.132  12.349  19.921  0.00  0.00    +0.000 C 
ATOM     26  C   UNL     1      -6.412  11.987  20.722  0.00  0.00    +0.000 C 
ATOM     27  N   UNL     1      -6.564  12.874  21.873  0.00  0.00    +0.000 NA
ATOM     28  C   UNL     1      -7.715  12.633  22.727  0.00  0.00    +0.000 C 
ATOM     29  C   UNL     1      -7.334  13.398  23.994  0.00  0.00    +0.000 C 
ATOM     30  C   UNL     1      -5.805  13.505  23.971  0.00  0.00    +0.000 C 
ATOM     31  C   UNL     1      -5.393  12.706  22.744  0.00  0.00    +0.000 C 
ATOM     32  C   UNL     1      -4.117  13.182  22.037  0.00  0.00    +0.000 C 
ENDBRANCH   7  24
TORSDOF 3
ENDMDL
MODEL 9
REMARK VINA RESULT:      -8.0      2.003      3.342
REMARK  Name = 
REMARK  5 active torsions:
REMARK  status: ('A' for Active; 'I' for Inactive)
REMARK    1  A    between atoms: C_1  and  C_2
REMARK    2  A    between atoms: C_2  and  C_3
REMARK    3  A    between atoms: C_5  and  C_6
REMARK    4  A    between atoms: C_10  and  C_11
REMARK    5  A    between atoms: C_17  and  N_18
REMARK                            x       y       z     vdW  Elec       q    Type
REMARK                         _______ _______ _______ _____ _____    ______ ____
ROOT
ATOM      1  C   UNL     1       0.685   9.944  18.641  0.00  0.00    +0.000 A 
ATOM      2  C   UNL     1       0.948  10.976  19.472  0.00  0.00    +0.000 A 
ATOM      3  C   UNL     1       0.293  12.214  19.122  0.00  0.00    +0.000 A 
ATOM      4  O   UNL     1       0.892  13.283  19.072  0.00  0.00    +0.000 OA
ATOM      5  N   UNL     1      -0.994  11.984  18.758  0.00  0.00    +0.000 N 
ATOM      6  C   UNL     1      -2.037  12.326  19.599  0.00  0.00    +0.000 A 
ATOM      7  C   UNL     1      -3.310  12.020  19.273  0.00  0.00    +0.000 A 
ATOM      8  C   UNL     1      -3.488  11.639  17.864  0.00  0.00    +0.000 A 
ATOM      9  C   UNL     1      -2.478  11.139  17.125  0.00  0.00    +0.000 A 
ATOM     10  C   UNL     1      -1.179  10.974  17.834  0.00  0.00    +0.000 A 
ATOM     11  N   UNL     1      -0.313  10.006  17.664  0.00  0.00    +0.000 NA
ENDROOT
BRANCH   1  19
ATOM     12  C   UNL     1       2.774   5.476  19.933  0.00  0.00    +0.000 A 
ATOM     13  N   UNL     1       3.696   4.787  19.314  0.00  0.00    +0.000 NA
ATOM     14  C   UNL     1       4.274   5.321  18.166  0.00  0.00    +0.000 A 
ATOM     15  C   UNL     1       5.326   4.466  17.516  0.00  0.00    +0.000 C 
ATOM     16  C   UNL     1       3.936   6.518  17.690  0.00  0.00    +0.000 A 
ATOM     17  N   UNL     1       2.957   7.250  18.327  0.00  0.00    +0.000 N 
ATOM     18  N   UNL     1       2.494   8.468  17.992  0.00  0.00    +0.000 NA
ATOM     19  C   UNL     1       1.482   8.736  18.814  0.00  0.00    +0.000 A 
ATOM     20  C   UNL     1       1.348   7.693  19.789  0.00  0.00    +0.000 A 
ATOM     21  C   UNL     1       2.322   6.768  19.447  0.00  0.00    +0.000 A 
BRANCH  12  23
ATOM     22  C   UNL     1       1.471   3.570  20.884  0.00  0.00    +0.000 C 
ATOM     23  C   UNL     1       2.208   4.856  21.200  0.00  0.00    +0.000 C 
ENDBRANCH  12  23
ENDBRANCH   1  19
BRANCH   7  24
ATOM     24  N   UNL     1      -4.399  12.085  20.155  0.00  0.00    +0.000 N 
ATOM     25  C   UNL     1      -5.797  11.840  19.689  0.00  0.00    +0.000 C 
ATOM     26  C   UNL     1      -6.800  11.506  20.826  0.00  0.00    +0.000 C 
ATOM     27  N   UNL     1      -6.716  12.502  21.892  0.00  0.00    +0.000 NA
ATOM     28  C   UNL     1      -7.589  12.299  23.036  0.00  0.00    +0.000 C 
ATOM     29  C   UNL     1      -6.953  13.212  24.084  0.00  0.00    +0.000 C 
ATOM     30  C   UNL     1      -5.493  13.388  23.651  0.00  0.00    +0.000 C 
ATOM     31  C   UNL     1      -5.353  12.483  22.437  0.00  0.00    +0.000 C 
ATOM     32  C   UNL     1      -4.338  12.941  21.380  0.00  0.00    +0.000 C 
ENDBRANCH   7  24
TORSDOF 3
ENDMDL
