MODEL 1
REMARK VINA RESULT:      -9.6      0.000      0.000
REMARK  Name = 
REMARK  4 active torsions:
REMARK  status: ('A' for Active; 'I' for Inactive)
REMARK    1  A    between atoms: C_1  and  C_2
REMARK    2  A    between atoms: C_8  and  C_9
REMARK    3  A    between atoms: C_14  and  N_15
REMARK    4  A    between atoms: C_16  and  C_18
REMARK                            x       y       z     vdW  Elec       q    Type
REMARK                         _______ _______ _______ _____ _____    ______ ____
ROOT
ATOM      1  C   UNL     1       2.774   6.841  18.733  0.00  0.00    +0.000 A 
ATOM      2  C   UNL     1       2.385   6.573  20.055  0.00  0.00    +0.000 A 
ATOM      3  C   UNL     1       1.545   7.433  20.775  0.00  0.00    +0.000 A 
ATOM      4  C   UNL     1       1.127   8.650  20.227  0.00  0.00    +0.000 A 
ATOM      5  C   UNL     1       0.311   9.546  20.935  0.00  0.00    +0.000 A 
ATOM      6  C   UNL     1       0.010  10.783  20.377  0.00  0.00    +0.000 A 
ATOM      7  N   UNL     1       0.442  11.131  19.153  0.00  0.00    +0.000 NA
ATOM      8  C   UNL     1       1.196  10.245  18.465  0.00  0.00    +0.000 A 
ATOM      9  C   UNL     1       1.568   8.989  18.941  0.00  0.00    +0.000 A 
ATOM     10  C   UNL     1       2.355   8.078  18.201  0.00  0.00    +0.000 A 
ENDROOT
BRANCH   1  18
ATOM     11  C   UNL     1       1.840   4.015  17.816  0.00  0.00    +0.000 C 
ATOM     12  C   UNL     1       3.198   4.601  17.514  0.00  0.00    +0.000 A 
ATOM     13  C   UNL     1       4.072   3.782  16.762  0.00  0.00    +0.000 A 
ATOM     14  C   UNL     1       5.328   4.233  16.373  0.00  0.00    +0.000 A 
ATOM     15  C   UNL     1       5.729   5.498  16.754  0.00  0.00    +0.000 A 
ATOM     16  F   UNL     1       6.930   5.953  16.370  0.00  0.00    +0.000 F 
ATOM     17  C   UNL     1       4.904   6.310  17.529  0.00  0.00    +0.000 A 
ATOM     18  C   UNL     1       3.614   5.897  17.933  0.00  0.00    +0.000 A 
ENDBRANCH   1  18
BRANCH   6  19
ATOM     19  N   UNL     1      -0.760  11.669  21.146  0.00  0.00    +0.000 N 
ATOM     20  C   UNL     1      -0.866  11.611  22.524  0.00  0.00    +0.000 C 
ATOM     21  O   UNL     1      -0.361  10.783  23.273  0.00  0.00    +0.000 OA
ATOM     22  H   UNL     1      -1.363  12.301  20.645  0.00  0.00    +0.000 HD
BRANCH  20  23
ATOM     23  C   UNL     1      -1.740  12.648  23.147  0.00  0.00    +0.000 A 
ATOM     24  C   UNL     1      -3.065  12.292  23.455  0.00  0.00    +0.000 A 
ATOM     25  C   UNL     1      -3.918  13.210  24.067  0.00  0.00    +0.000 A 
ATOM     26  C   UNL     1      -3.446  14.480  24.376  0.00  0.00    +0.000 A 
ATOM     27  F   UNL     1      -4.259  15.358  24.973  0.00  0.00    +0.000 F 
ATOM     28  C   UNL     1      -2.135  14.847  24.084  0.00  0.00    +0.000 A 
ATOM     29  C   UNL     1      -1.275  13.931  23.470  0.00  0.00    +0.000 A 
ENDBRANCH  20  23
ENDBRANCH   6  19
TORSDOF 3
ENDMDL
MODEL 2
REMARK VINA RESULT:      -9.5      1.075      1.618
REMARK  Name = 
REMARK  4 active torsions:
REMARK  status: ('A' for Active; 'I' for Inactive)
REMARK    1  A    between atoms: C_1  and  C_2
REMARK    2  A    between atoms: C_8  and  C_9
REMARK    3  A    between atoms: C_14  and  N_15
REMARK    4  A    between atoms: C_16  and  C_18
REMARK                            x       y       z     vdW  Elec       q    Type
REMARK                         _______ _______ _______ _____ _____    ______ ____
ROOT
ATOM      1  C   UNL     1       2.583   7.374  18.443  0.00  0.00    +0.000 A 
ATOM      2  C   UNL     1       1.982   8.387  17.679  0.00  0.00    +0.000 A 
ATOM      3  C   UNL     1       1.195   9.391  18.257  0.00  0.00    +0.000 A 
ATOM      4  C   UNL     1       0.903   9.372  19.626  0.00  0.00    +0.000 A 
ATOM      5  C   UNL     1       0.093  10.347  20.228  0.00  0.00    +0.000 A 
ATOM      6  C   UNL     1      -0.243  10.220  21.571  0.00  0.00    +0.000 A 
ATOM      7  N   UNL     1       0.225   9.212  22.326  0.00  0.00    +0.000 NA
ATOM      8  C   UNL     1       1.035   8.300  21.743  0.00  0.00    +0.000 A 
ATOM      9  C   UNL     1       1.416   8.326  20.403  0.00  0.00    +0.000 A 
ATOM     10  C   UNL     1       2.268   7.363  19.818  0.00  0.00    +0.000 A 
ENDROOT
BRANCH   1  18
ATOM     11  C   UNL     1       1.758   4.410  17.960  0.00  0.00    +0.000 C 
ATOM     12  C   UNL     1       3.114   4.979  17.625  0.00  0.00    +0.000 A 
ATOM     13  C   UNL     1       4.041   4.076  17.054  0.00  0.00    +0.000 A 
ATOM     14  C   UNL     1       5.303   4.496  16.651  0.00  0.00    +0.000 A 
ATOM     15  C   UNL     1       5.658   5.817  16.837  0.00  0.00    +0.000 A 
ATOM     16  F   UNL     1       6.865   6.239  16.436  0.00  0.00    +0.000 F 
ATOM     17  C   UNL     1       4.779   6.719  17.433  0.00  0.00    +0.000 A 
ATOM     18  C   UNL     1       3.481   6.338  17.844  0.00  0.00    +0.000 A 
ENDBRANCH   1  18
BRANCH   6  19
ATOM     19  N   UNL     1      -1.104  11.186  22.116  0.00  0.00    +0.000 N 
ATOM     20  C   UNL     1      -0.755  12.508  22.325  0.00  0.00    +0.000 C 
ATOM     21  O   UNL     1       0.333  13.030  22.119  0.00  0.00    +0.000 OA
ATOM     22  H   UNL     1      -1.981  10.856  22.487  0.00  0.00    +0.000 HD
BRANCH  20  23
ATOM     23  C   UNL     1      -1.821  13.368  22.919  0.00  0.00    +0.000 A 
ATOM     24  C   UNL     1      -3.157  13.081  22.589  0.00  0.00    +0.000 A 
ATOM     25  C   UNL     1      -4.197  13.830  23.140  0.00  0.00    +0.000 A 
ATOM     26  C   UNL     1      -3.902  14.860  24.024  0.00  0.00    +0.000 A 
ATOM     27  F   UNL     1      -4.896  15.573  24.562  0.00  0.00    +0.000 F 
ATOM     28  C   UNL     1      -2.584  15.153  24.369  0.00  0.00    +0.000 A 
ATOM     29  C   UNL     1      -1.538  14.406  23.819  0.00  0.00    +0.000 A 
ENDBRANCH  20  23
ENDBRANCH   6  19
TORSDOF 3
ENDMDL
MODEL 3
REMARK VINA RESULT:      -9.4      1.654      2.309
REMARK  Name = 
REMARK  4 active torsions:
REMARK  status: ('A' for Active; 'I' for Inactive)
REMARK    1  A    between atoms: C_1  and  C_2
REMARK    2  A    between atoms: C_8  and  C_9
REMARK    3  A    between atoms: C_14  and  N_15
REMARK    4  A    between atoms: C_16  and  C_18
REMARK                            x       y       z     vdW  Elec       q    Type
REMARK                         _______ _______ _______ _____ _____    ______ ____
ROOT
ATOM      1  C   UNL     1       4.062   6.313  18.041  0.00  0.00    +0.000 A 
ATOM      2  C   UNL     1       3.523   5.847  19.251  0.00  0.00    +0.000 A 
ATOM      3  C   UNL     1       2.464   6.500  19.896  0.00  0.00    +0.000 A 
ATOM      4  C   UNL     1       1.956   7.704  19.399  0.00  0.00    +0.000 A 
ATOM      5  C   UNL     1       0.917   8.397  20.040  0.00  0.00    +0.000 A 
ATOM      6  C   UNL     1       0.521   9.637  19.554  0.00  0.00    +0.000 A 
ATOM      7  N   UNL     1       1.076  10.177  18.456  0.00  0.00    +0.000 NA
ATOM      8  C   UNL     1       2.049   9.483  17.824  0.00  0.00    +0.000 A 
ATOM      9  C   UNL     1       2.530   8.243  18.240  0.00  0.00    +0.000 A 
ATOM     10  C   UNL     1       3.547   7.535  17.560  0.00  0.00    +0.000 A 
ENDROOT
BRANCH   1  18
ATOM     11  C   UNL     1       6.840   5.618  19.265  0.00  0.00    +0.000 C 
ATOM     12  C   UNL     1       6.420   5.270  17.858  0.00  0.00    +0.000 A 
ATOM     13  C   UNL     1       7.379   4.581  17.078  0.00  0.00    +0.000 A 
ATOM     14  C   UNL     1       7.089   4.156  15.787  0.00  0.00    +0.000 A 
ATOM     15  C   UNL     1       5.846   4.437  15.257  0.00  0.00    +0.000 A 
ATOM     16  F   UNL     1       5.546   4.017  14.020  0.00  0.00    +0.000 F 
ATOM     17  C   UNL     1       4.897   5.149  15.988  0.00  0.00    +0.000 A 
ATOM     18  C   UNL     1       5.145   5.587  17.309  0.00  0.00    +0.000 A 
ENDBRANCH   1  18
BRANCH   6  19
ATOM     19  N   UNL     1      -0.480  10.320  20.263  0.00  0.00    +0.000 N 
ATOM     20  C   UNL     1      -0.234  11.330  21.175  0.00  0.00    +0.000 C 
ATOM     21  O   UNL     1       0.856  11.754  21.537  0.00  0.00    +0.000 OA
ATOM     22  H   UNL     1      -1.418   9.959  20.186  0.00  0.00    +0.000 HD
BRANCH  20  23
ATOM     23  C   UNL     1      -1.444  11.922  21.821  0.00  0.00    +0.000 A 
ATOM     24  C   UNL     1      -2.230  12.803  21.059  0.00  0.00    +0.000 A 
ATOM     25  C   UNL     1      -3.389  13.360  21.599  0.00  0.00    +0.000 A 
ATOM     26  C   UNL     1      -3.764  13.033  22.896  0.00  0.00    +0.000 A 
ATOM     27  F   UNL     1      -4.880  13.557  23.412  0.00  0.00    +0.000 F 
ATOM     28  C   UNL     1      -3.001  12.156  23.662  0.00  0.00    +0.000 A 
ATOM     29  C   UNL     1      -1.837  11.594  23.126  0.00  0.00    +0.000 A 
ENDBRANCH  20  23
ENDBRANCH   6  19
TORSDOF 3
ENDMDL
MODEL 4
REMARK VINA RESULT:      -9.4      0.804      1.203
REMARK  Name = 
REMARK  4 active torsions:
REMARK  status: ('A' for Active; 'I' for Inactive)
REMARK    1  A    between atoms: C_1  and  C_2
REMARK    2  A    between atoms: C_8  and  C_9
REMARK    3  A    between atoms: C_14  and  N_15
REMARK    4  A    between atoms: C_16  and  C_18
REMARK                            x       y       z     vdW  Elec       q    Type
REMARK                         _______ _______ _______ _____ _____    ______ ____
ROOT
ATOM      1  C   UNL     1       3.206   6.532  18.530  0.00  0.00    +0.000 A 
ATOM      2  C   UNL     1       2.828   6.166  19.832  0.00  0.00    +0.000 A 
ATOM      3  C   UNL     1       1.918   6.920  20.585  0.00  0.00    +0.000 A 
ATOM      4  C   UNL     1       1.411   8.128  20.094  0.00  0.00    +0.000 A 
ATOM      5  C   UNL     1       0.522   8.920  20.837  0.00  0.00    +0.000 A 
ATOM      6  C   UNL     1       0.130  10.157  20.340  0.00  0.00    +0.000 A 
ATOM      7  N   UNL     1       0.543  10.601  19.141  0.00  0.00    +0.000 NA
ATOM      8  C   UNL     1       1.369   9.812  18.417  0.00  0.00    +0.000 A 
ATOM      9  C   UNL     1       1.835   8.566  18.833  0.00  0.00    +0.000 A 
ATOM     10  C   UNL     1       2.695   7.758  18.056  0.00  0.00    +0.000 A 
ENDROOT
BRANCH   1  18
ATOM     11  C   UNL     1       2.494   3.702  17.441  0.00  0.00    +0.000 C 
ATOM     12  C   UNL     1       3.808   4.401  17.195  0.00  0.00    +0.000 A 
ATOM     13  C   UNL     1       4.750   3.692  16.413  0.00  0.00    +0.000 A 
ATOM     14  C   UNL     1       5.974   4.255  16.071  0.00  0.00    +0.000 A 
ATOM     15  C   UNL     1       6.276   5.522  16.528  0.00  0.00    +0.000 A 
ATOM     16  F   UNL     1       7.445   6.083  16.190  0.00  0.00    +0.000 F 
ATOM     17  C   UNL     1       5.384   6.226  17.333  0.00  0.00    +0.000 A 
ATOM     18  C   UNL     1       4.123   5.698  17.693  0.00  0.00    +0.000 A 
ENDBRANCH   1  18
BRANCH   6  19
ATOM     19  N   UNL     1      -0.712  10.940  21.144  0.00  0.00    +0.000 N 
ATOM     20  C   UNL     1      -0.313  12.095  21.792  0.00  0.00    +0.000 C 
ATOM     21  O   UNL     1       0.808  12.588  21.808  0.00  0.00    +0.000 OA
ATOM     22  H   UNL     1      -1.622  10.561  21.355  0.00  0.00    +0.000 HD
BRANCH  20  23
ATOM     23  C   UNL     1      -1.367  12.776  22.601  0.00  0.00    +0.000 A 
ATOM     24  C   UNL     1      -1.235  14.158  22.824  0.00  0.00    +0.000 A 
ATOM     25  C   UNL     1      -2.206  14.852  23.545  0.00  0.00    +0.000 A 
ATOM     26  C   UNL     1      -3.310  14.168  24.037  0.00  0.00    +0.000 A 
ATOM     27  F   UNL     1      -4.248  14.833  24.719  0.00  0.00    +0.000 F 
ATOM     28  C   UNL     1      -3.461  12.800  23.819  0.00  0.00    +0.000 A 
ATOM     29  C   UNL     1      -2.490  12.099  23.098  0.00  0.00    +0.000 A 
ENDBRANCH  20  23
ENDBRANCH   6  19
TORSDOF 3
ENDMDL
MODEL 5
REMARK VINA RESULT:      -9.3      1.800     10.472
REMARK  Name = 
REMARK  4 active torsions:
REMARK  status: ('A' for Active; 'I' for Inactive)
REMARK    1  A    between atoms: C_1  and  C_2
REMARK    2  A    between atoms: C_8  and  C_9
REMARK    3  A    between atoms: C_14  and  N_15
REMARK    4  A    between atoms: C_16  and  C_18
REMARK                            x       y       z     vdW  Elec       q    Type
REMARK                         _______ _______ _______ _____ _____    ______ ____
ROOT
ATOM      1  C   UNL     1      -1.115  11.395  22.426  0.00  0.00    +0.000 A 
ATOM      2  C   UNL     1      -0.500  10.300  23.054  0.00  0.00    +0.000 A 
ATOM      3  C   UNL     1       0.377   9.444  22.374  0.00  0.00    +0.000 A 
ATOM      4  C   UNL     1       0.608   9.600  21.003  0.00  0.00    +0.000 A 
ATOM      5  C   UNL     1       1.457   8.740  20.289  0.00  0.00    +0.000 A 
ATOM      6  C   UNL     1       1.571   8.883  18.911  0.00  0.00    +0.000 A 
ATOM      7  N   UNL     1       0.924   9.853  18.244  0.00  0.00    +0.000 NA
ATOM      8  C   UNL     1       0.139  10.699  18.948  0.00  0.00    +0.000 A 
ATOM      9  C   UNL     1      -0.057  10.630  20.326  0.00  0.00    +0.000 A 
ATOM     10  C   UNL     1      -0.880  11.529  21.041  0.00  0.00    +0.000 A 
ENDROOT
BRANCH   1  18
ATOM     11  C   UNL     1      -0.488  14.423  22.790  0.00  0.00    +0.000 C 
ATOM     12  C   UNL     1      -1.717  13.738  23.336  0.00  0.00    +0.000 A 
ATOM     13  C   UNL     1      -2.618  14.561  24.051  0.00  0.00    +0.000 A 
ATOM     14  C   UNL     1      -3.812  14.057  24.553  0.00  0.00    +0.000 A 
ATOM     15  C   UNL     1      -4.104  12.721  24.364  0.00  0.00    +0.000 A 
ATOM     16  F   UNL     1      -5.261  12.227  24.827  0.00  0.00    +0.000 F 
ATOM     17  C   UNL     1      -3.216  11.880  23.698  0.00  0.00    +0.000 A 
ATOM     18  C   UNL     1      -1.998  12.353  23.159  0.00  0.00    +0.000 A 
ENDBRANCH   1  18
BRANCH   6  19
ATOM     19  N   UNL     1       2.384   7.963  18.230  0.00  0.00    +0.000 N 
ATOM     20  C   UNL     1       2.625   6.671  18.662  0.00  0.00    +0.000 C 
ATOM     21  O   UNL     1       2.220   6.145  19.691  0.00  0.00    +0.000 OA
ATOM     22  H   UNL     1       2.917   8.316  17.451  0.00  0.00    +0.000 HD
BRANCH  20  23
ATOM     23  C   UNL     1       3.524   5.858  17.790  0.00  0.00    +0.000 A 
ATOM     24  C   UNL     1       3.343   4.464  17.778  0.00  0.00    +0.000 A 
ATOM     25  C   UNL     1       4.132   3.658  16.958  0.00  0.00    +0.000 A 
ATOM     26  C   UNL     1       5.096   4.244  16.148  0.00  0.00    +0.000 A 
ATOM     27  F   UNL     1       5.846   3.475  15.352  0.00  0.00    +0.000 F 
ATOM     28  C   UNL     1       5.284   5.625  16.142  0.00  0.00    +0.000 A 
ATOM     29  C   UNL     1       4.496   6.438  16.962  0.00  0.00    +0.000 A 
ENDBRANCH  20  23
ENDBRANCH   6  19
TORSDOF 3
ENDMDL
MODEL 6
REMARK VINA RESULT:      -9.3      1.642      2.429
REMARK  Name = 
REMARK  4 active torsions:
REMARK  status: ('A' for Active; 'I' for Inactive)
REMARK    1  A    between atoms: C_1  and  C_2
REMARK    2  A    between atoms: C_8  and  C_9
REMARK    3  A    between atoms: C_14  and  N_15
REMARK    4  A    between atoms: C_16  and  C_18
REMARK                            x       y       z     vdW  Elec       q    Type
REMARK                         _______ _______ _______ _____ _____    ______ ____
ROOT
ATOM      1  C   UNL     1       2.308   7.132  18.502  0.00  0.00    +0.000 A 
ATOM      2  C   UNL     1       1.901   8.191  17.675  0.00  0.00    +0.000 A 
ATOM      3  C   UNL     1       1.406   9.395  18.193  0.00  0.00    +0.000 A 
ATOM      4  C   UNL     1       1.215   9.557  19.570  0.00  0.00    +0.000 A 
ATOM      5  C   UNL     1       0.693  10.740  20.116  0.00  0.00    +0.000 A 
ATOM      6  C   UNL     1       0.432  10.805  21.479  0.00  0.00    +0.000 A 
ATOM      7  N   UNL     1       0.709   9.781  22.303  0.00  0.00    +0.000 NA
ATOM      8  C   UNL     1       1.248   8.661  21.771  0.00  0.00    +0.000 A 
ATOM      9  C   UNL     1       1.529   8.487  20.417  0.00  0.00    +0.000 A 
ATOM     10  C   UNL     1       2.096   7.307  19.886  0.00  0.00    +0.000 A 
ENDROOT
BRANCH   1  18
ATOM     11  C   UNL     1       5.166   6.923  17.284  0.00  0.00    +0.000 C 
ATOM     12  C   UNL     1       4.205   5.766  17.398  0.00  0.00    +0.000 A 
ATOM     13  C   UNL     1       4.671   4.523  16.910  0.00  0.00    +0.000 A 
ATOM     14  C   UNL     1       3.898   3.372  17.011  0.00  0.00    +0.000 A 
ATOM     15  C   UNL     1       2.643   3.459  17.580  0.00  0.00    +0.000 A 
ATOM     16  F   UNL     1       1.896   2.353  17.700  0.00  0.00    +0.000 F 
ATOM     17  C   UNL     1       2.144   4.678  18.032  0.00  0.00    +0.000 A 
ATOM     18  C   UNL     1       2.901   5.870  17.962  0.00  0.00    +0.000 A 
ENDBRANCH   1  18
BRANCH   6  19
ATOM     19  N   UNL     1      -0.146  11.986  21.971  0.00  0.00    +0.000 N 
ATOM     20  C   UNL     1      -1.206  12.021  22.860  0.00  0.00    +0.000 C 
ATOM     21  O   UNL     1      -1.823  11.066  23.316  0.00  0.00    +0.000 OA
ATOM     22  H   UNL     1       0.156  12.850  21.550  0.00  0.00    +0.000 HD
BRANCH  20  23
ATOM     23  C   UNL     1      -1.670  13.384  23.254  0.00  0.00    +0.000 A 
ATOM     24  C   UNL     1      -2.998  13.522  23.696  0.00  0.00    +0.000 A 
ATOM     25  C   UNL     1      -3.477  14.766  24.108  0.00  0.00    +0.000 A 
ATOM     26  C   UNL     1      -2.630  15.867  24.083  0.00  0.00    +0.000 A 
ATOM     27  F   UNL     1      -3.084  17.057  24.488  0.00  0.00    +0.000 F 
ATOM     28  C   UNL     1      -1.310  15.746  23.655  0.00  0.00    +0.000 A 
ATOM     29  C   UNL     1      -0.824  14.502  23.241  0.00  0.00    +0.000 A 
ENDBRANCH  20  23
ENDBRANCH   6  19
TORSDOF 3
ENDMDL
MODEL 7
REMARK VINA RESULT:      -9.2      0.944      1.744
REMARK  Name = 
REMARK  4 active torsions:
REMARK  status: ('A' for Active; 'I' for Inactive)
REMARK    1  A    between atoms: C_1  and  C_2
REMARK    2  A    between atoms: C_8  and  C_9
REMARK    3  A    between atoms: C_14  and  N_15
REMARK    4  A    between atoms: C_16  and  C_18
REMARK                            x       y       z     vdW  Elec       q    Type
REMARK                         _______ _______ _______ _____ _____    ______ ____
ROOT
ATOM      1  C   UNL     1       3.018   7.091  18.159  0.00  0.00    +0.000 A 
ATOM      2  C   UNL     1       2.639   8.186  17.367  0.00  0.00    +0.000 A 
ATOM      3  C   UNL     1       1.855   9.234  17.868  0.00  0.00    +0.000 A 
ATOM      4  C   UNL     1       1.341   9.184  19.168  0.00  0.00    +0.000 A 
ATOM      5  C   UNL     1       0.527  10.203  19.688  0.00  0.00    +0.000 A 
ATOM      6  C   UNL     1      -0.035  10.052  20.949  0.00  0.00    +0.000 A 
ATOM      7  N   UNL     1       0.215   8.973  21.711  0.00  0.00    +0.000 NA
ATOM      8  C   UNL     1       1.031   8.016  21.215  0.00  0.00    +0.000 A 
ATOM      9  C   UNL     1       1.629   8.063  19.957  0.00  0.00    +0.000 A 
ATOM     10  C   UNL     1       2.481   7.051  19.463  0.00  0.00    +0.000 A 
ENDROOT
BRANCH   1  18
ATOM     11  C   UNL     1       2.074   4.181  17.575  0.00  0.00    +0.000 C 
ATOM     12  C   UNL     1       3.490   4.668  17.390  0.00  0.00    +0.000 A 
ATOM     13  C   UNL     1       4.418   3.711  16.917  0.00  0.00    +0.000 A 
ATOM     14  C   UNL     1       5.739   4.054  16.653  0.00  0.00    +0.000 A 
ATOM     15  C   UNL     1       6.149   5.352  16.882  0.00  0.00    +0.000 A 
ATOM     16  F   UNL     1       7.414   5.700  16.615  0.00  0.00    +0.000 F 
ATOM     17  C   UNL     1       5.266   6.305  17.386  0.00  0.00    +0.000 A 
ATOM     18  C   UNL     1       3.911   6.003  17.654  0.00  0.00    +0.000 A 
ENDBRANCH   1  18
BRANCH   6  19
ATOM     19  N   UNL     1      -0.889  11.069  21.403  0.00  0.00    +0.000 N 
ATOM     20  C   UNL     1      -1.185  11.298  22.735  0.00  0.00    +0.000 C 
ATOM     21  O   UNL     1      -0.801  10.653  23.702  0.00  0.00    +0.000 OA
ATOM     22  H   UNL     1      -1.408  11.574  20.702  0.00  0.00    +0.000 HD
BRANCH  20  23
ATOM     23  C   UNL     1      -2.121  12.431  23.000  0.00  0.00    +0.000 A 
ATOM     24  C   UNL     1      -1.798  13.689  22.464  0.00  0.00    +0.000 A 
ATOM     25  C   UNL     1      -2.652  14.776  22.652  0.00  0.00    +0.000 A 
ATOM     26  C   UNL     1      -3.829  14.604  23.369  0.00  0.00    +0.000 A 
ATOM     27  F   UNL     1      -4.654  15.641  23.541  0.00  0.00    +0.000 F 
ATOM     28  C   UNL     1      -4.169  13.362  23.900  0.00  0.00    +0.000 A 
ATOM     29  C   UNL     1      -3.316  12.269  23.716  0.00  0.00    +0.000 A 
ENDBRANCH  20  23
ENDBRANCH   6  19
TORSDOF 3
ENDMDL
MODEL 8
REMARK VINA RESULT:      -9.2      1.508      2.342
REMARK  Name = 
REMARK  4 active torsions:
REMARK  status: ('A' for Active; 'I' for Inactive)
REMARK    1  A    between atoms: C_1  and  C_2
REMARK    2  A    between atoms: C_8  and  C_9
REMARK    3  A    between atoms: C_14  and  N_15
REMARK    4  A    between atoms: C_16  and  C_18
REMARK                            x       y       z     vdW  Elec       q    Type
REMARK                         _______ _______ _______ _____ _____    ______ ____
ROOT
ATOM      1  C   UNL     1       1.939   7.991  19.050  0.00  0.00    +0.000 A 
ATOM      2  C   UNL     1       1.211   8.925  18.297  0.00  0.00    +0.000 A 
ATOM      3  C   UNL     1       0.477   9.958  18.896  0.00  0.00    +0.000 A 
ATOM      4  C   UNL     1       0.371  10.046  20.289  0.00  0.00    +0.000 A 
ATOM      5  C   UNL     1      -0.381  11.051  20.917  0.00  0.00    +0.000 A 
ATOM      6  C   UNL     1      -0.531  11.028  22.298  0.00  0.00    +0.000 A 
ATOM      7  N   UNL     1       0.063  10.094  23.060  0.00  0.00    +0.000 NA
ATOM      8  C   UNL     1       0.816   9.154  22.447  0.00  0.00    +0.000 A 
ATOM      9  C   UNL     1       1.015   9.077  21.069  0.00  0.00    +0.000 A 
ATOM     10  C   UNL     1       1.810   8.086  20.452  0.00  0.00    +0.000 A 
ENDROOT
BRANCH   1  18
ATOM     11  C   UNL     1       1.578   4.940  19.562  0.00  0.00    +0.000 C 
ATOM     12  C   UNL     1       2.626   5.530  18.652  0.00  0.00    +0.000 A 
ATOM     13  C   UNL     1       3.478   4.604  18.006  0.00  0.00    +0.000 A 
ATOM     14  C   UNL     1       4.445   5.023  17.100  0.00  0.00    +0.000 A 
ATOM     15  C   UNL     1       4.584   6.374  16.850  0.00  0.00    +0.000 A 
ATOM     16  F   UNL     1       5.500   6.790  15.965  0.00  0.00    +0.000 F 
ATOM     17  C   UNL     1       3.785   7.310  17.502  0.00  0.00    +0.000 A 
ATOM     18  C   UNL     1       2.780   6.927  18.419  0.00  0.00    +0.000 A 
ENDBRANCH   1  18
BRANCH   6  19
ATOM     19  N   UNL     1      -1.341  12.018  22.877  0.00  0.00    +0.000 N 
ATOM     20  C   UNL     1      -0.960  13.338  23.036  0.00  0.00    +0.000 C 
ATOM     21  O   UNL     1       0.120  13.838  22.749  0.00  0.00    +0.000 OA
ATOM     22  H   UNL     1      -2.197  11.710  23.310  0.00  0.00    +0.000 HD
BRANCH  20  23
ATOM     23  C   UNL     1      -1.973  14.227  23.679  0.00  0.00    +0.000 A 
ATOM     24  C   UNL     1      -1.518  15.167  24.621  0.00  0.00    +0.000 A 
ATOM     25  C   UNL     1      -2.415  16.045  25.230  0.00  0.00    +0.000 A 
ATOM     26  C   UNL     1      -3.761  15.988  24.894  0.00  0.00    +0.000 A 
ATOM     27  F   UNL     1      -4.621  16.836  25.467  0.00  0.00    +0.000 F 
ATOM     28  C   UNL     1      -4.228  15.069  23.957  0.00  0.00    +0.000 A 
ATOM     29  C   UNL     1      -3.334  14.185  23.344  0.00  0.00    +0.000 A 
ENDBRANCH  20  23
ENDBRANCH   6  19
TORSDOF 3
ENDMDL
MODEL 9
REMARK VINA RESULT:      -9.2      2.054     10.652
REMARK  Name = 
REMARK  4 active torsions:
REMARK  status: ('A' for Active; 'I' for Inactive)
REMARK    1  A    between atoms: C_1  and  C_2
REMARK    2  A    between atoms: C_8  and  C_9
REMARK    3  A    between atoms: C_14  and  N_15
REMARK    4  A    between atoms: C_16  and  C_18
REMARK                            x       y       z     vdW  Elec       q    Type
REMARK                         _______ _______ _______ _____ _____    ______ ____
ROOT
ATOM      1  C   UNL     1      -1.166  11.799  21.984  0.00  0.00    +0.000 A 
ATOM      2  C   UNL     1      -1.038  12.151  20.631  0.00  0.00    +0.000 A 
ATOM      3  C   UNL     1      -0.341  11.353  19.714  0.00  0.00    +0.000 A 
ATOM      4  C   UNL     1       0.337  10.204  20.136  0.00  0.00    +0.000 A 
ATOM      5  C   UNL     1       1.069   9.402  19.246  0.00  0.00    +0.000 A 
ATOM      6  C   UNL     1       1.803   8.330  19.740  0.00  0.00    +0.000 A 
ATOM      7  N   UNL     1       1.796   8.009  21.045  0.00  0.00    +0.000 NA
ATOM      8  C   UNL     1       1.057   8.765  21.885  0.00  0.00    +0.000 A 
ATOM      9  C   UNL     1       0.302   9.871  21.496  0.00  0.00    +0.000 A 
ATOM     10  C   UNL     1      -0.466  10.645  22.394  0.00  0.00    +0.000 A 
ENDROOT
BRANCH   1  18
ATOM     11  C   UNL     1      -0.427  14.688  22.882  0.00  0.00    +0.000 C 
ATOM     12  C   UNL     1      -1.632  13.927  23.376  0.00  0.00    +0.000 A 
ATOM     13  C   UNL     1      -2.455  14.605  24.305  0.00  0.00    +0.000 A 
ATOM     14  C   UNL     1      -3.624  14.030  24.789  0.00  0.00    +0.000 A 
ATOM     15  C   UNL     1      -3.967  12.761  24.366  0.00  0.00    +0.000 A 
ATOM     16  F   UNL     1      -5.101  12.202  24.811  0.00  0.00    +0.000 F 
ATOM     17  C   UNL     1      -3.154  12.055  23.484  0.00  0.00    +0.000 A 
ATOM     18  C   UNL     1      -1.965  12.607  22.955  0.00  0.00    +0.000 A 
ENDBRANCH   1  18
BRANCH   6  19
ATOM     19  N   UNL     1       2.567   7.593  18.822  0.00  0.00    +0.000 N 
ATOM     20  C   UNL     1       2.642   6.211  18.807  0.00  0.00    +0.000 C 
ATOM     21  O   UNL     1       2.110   5.431  19.586  0.00  0.00    +0.000 OA
ATOM     22  H   UNL     1       3.190   8.114  18.225  0.00  0.00    +0.000 HD
BRANCH  20  23
ATOM     23  C   UNL     1       3.516   5.626  17.748  0.00  0.00    +0.000 A 
ATOM     24  C   UNL     1       4.360   6.498  17.037  0.00  0.00    +0.000 A 
ATOM     25  C   UNL     1       5.223   6.003  16.059  0.00  0.00    +0.000 A 
ATOM     26  C   UNL     1       5.246   4.639  15.796  0.00  0.00    +0.000 A 
ATOM     27  F   UNL     1       6.080   4.161  14.867  0.00  0.00    +0.000 F 
ATOM     28  C   UNL     1       4.422   3.760  16.495  0.00  0.00    +0.000 A 
ATOM     29  C   UNL     1       3.555   4.251  17.477  0.00  0.00    +0.000 A 
ENDBRANCH  20  23
ENDBRANCH   6  19
TORSDOF 3
ENDMDL
