MODEL 1
REMARK VINA RESULT:      -6.7      0.000      0.000
REMARK  Name = 
REMARK  8 active torsions:
REMARK  status: ('A' for Active; 'I' for Inactive)
REMARK    1  A    between atoms: C_1  and  C_2
REMARK    2  A    between atoms: C_2  and  N_3
REMARK    3  A    between atoms: C_4  and  C_5
REMARK    4  A    between atoms: C_5  and  N_6
REMARK    5  A    between atoms: N_6  and  C_7
REMARK    6  A    between atoms: C_16  and  S_17
REMARK    7  A    between atoms: S_17  and  C_18
REMARK    8  A    between atoms: C_18  and  C_19
REMARK                            x       y       z     vdW  Elec       q    Type
REMARK                         _______ _______ _______ _____ _____    ______ ____
ROOT
ATOM      1  N   UNL     1       2.832   4.371  18.370  0.00  0.00    +0.000 N 
ATOM      2  C   UNL     1       3.206   3.715  17.207  0.00  0.00    +0.000 A 
ATOM      3  N   UNL     1       2.394   2.686  17.044  0.00  0.00    +0.000 NA
ATOM      4  N   UNL     1       1.509   2.640  18.100  0.00  0.00    +0.000 NA
ATOM      5  C   UNL     1       1.783   3.653  18.893  0.00  0.00    +0.000 A 
ENDROOT
BRANCH   1   7
ATOM      6  C   UNL     1       2.929   6.842  18.217  0.00  0.00    +0.000 C 
ATOM      7  C   UNL     1       3.437   5.580  18.895  0.00  0.00    +0.000 C 
ENDBRANCH   1   7
BRANCH   2   8
ATOM      8  C   UNL     1       4.384   4.066  16.321  0.00  0.00    +0.000 C 
BRANCH   8   9
ATOM      9  N   UNL     1       5.703   3.962  16.944  0.00  0.00    +0.000 N 
ATOM     10  H   UNL     1       6.164   3.065  16.864  0.00  0.00    +0.000 HD
BRANCH   9  11
ATOM     11  C   UNL     1       6.478   5.029  17.366  0.00  0.00    +0.000 A 
ATOM     12  C   UNL     1       6.594   6.250  16.683  0.00  0.00    +0.000 A 
ATOM     13  C   UNL     1       7.377   7.299  17.192  0.00  0.00    +0.000 A 
ATOM     14  C   UNL     1       8.038   7.148  18.400  0.00  0.00    +0.000 A 
ATOM     15  F   UNL     1       8.788   8.149  18.883  0.00  0.00    +0.000 F 
ATOM     16  C   UNL     1       7.922   5.969  19.119  0.00  0.00    +0.000 A 
ATOM     17  C   UNL     1       7.142   4.926  18.607  0.00  0.00    +0.000 A 
ENDBRANCH   9  11
ENDBRANCH   8   9
ENDBRANCH   2   8
BRANCH   5  18
ATOM     18  S   UNL     1       0.932   4.065  20.344  0.00  0.00    +0.000 S 
BRANCH  18  19
ATOM     19  C   UNL     1       1.608   2.906  21.588  0.00  0.00    +0.000 C 
BRANCH  19  20
ATOM     20  C   UNL     1       3.007   2.526  21.272  0.00  0.00    +0.000 C 
ATOM     21  N   UNL     1       4.115   2.245  21.025  0.00  0.00    +0.000 NA
ENDBRANCH  19  20
ENDBRANCH  18  19
ENDBRANCH   5  18
TORSDOF 7
ENDMDL
MODEL 2
REMARK VINA RESULT:      -6.6      0.111      1.080
REMARK  Name = 
REMARK  8 active torsions:
REMARK  status: ('A' for Active; 'I' for Inactive)
REMARK    1  A    between atoms: C_1  and  C_2
REMARK    2  A    between atoms: C_2  and  N_3
REMARK    3  A    between atoms: C_4  and  C_5
REMARK    4  A    between atoms: C_5  and  N_6
REMARK    5  A    between atoms: N_6  and  C_7
REMARK    6  A    between atoms: C_16  and  S_17
REMARK    7  A    between atoms: S_17  and  C_18
REMARK    8  A    between atoms: C_18  and  C_19
REMARK                            x       y       z     vdW  Elec       q    Type
REMARK                         _______ _______ _______ _____ _____    ______ ____
ROOT
ATOM      1  N   UNL     1       2.848   4.464  18.328  0.00  0.00    +0.000 N 
ATOM      2  C   UNL     1       3.241   3.797  17.178  0.00  0.00    +0.000 A 
ATOM      3  N   UNL     1       2.447   2.751  17.026  0.00  0.00    +0.000 NA
ATOM      4  N   UNL     1       1.558   2.707  18.079  0.00  0.00    +0.000 NA
ATOM      5  C   UNL     1       1.809   3.738  18.856  0.00  0.00    +0.000 A 
ENDROOT
BRANCH   1   7
ATOM      6  C   UNL     1       2.782   6.941  18.259  0.00  0.00    +0.000 C 
ATOM      7  C   UNL     1       3.430   5.693  18.836  0.00  0.00    +0.000 C 
ENDBRANCH   1   7
BRANCH   2   8
ATOM      8  C   UNL     1       4.418   4.154  16.293  0.00  0.00    +0.000 C 
BRANCH   8   9
ATOM      9  N   UNL     1       5.740   3.995  16.897  0.00  0.00    +0.000 N 
ATOM     10  H   UNL     1       6.219   3.126  16.701  0.00  0.00    +0.000 HD
BRANCH   9  11
ATOM     11  C   UNL     1       6.494   5.014  17.455  0.00  0.00    +0.000 A 
ATOM     12  C   UNL     1       7.183   4.919  18.676  0.00  0.00    +0.000 A 
ATOM     13  C   UNL     1       7.953   5.988  19.163  0.00  0.00    +0.000 A 
ATOM     14  C   UNL     1       8.062   7.156  18.427  0.00  0.00    +0.000 A 
ATOM     15  F   UNL     1       8.796   8.176  18.895  0.00  0.00    +0.000 F 
ATOM     16  C   UNL     1       7.424   7.275  17.203  0.00  0.00    +0.000 A 
ATOM     17  C   UNL     1       6.655   6.209  16.723  0.00  0.00    +0.000 A 
ENDBRANCH   9  11
ENDBRANCH   8   9
ENDBRANCH   2   8
BRANCH   5  18
ATOM     18  S   UNL     1       0.942   4.158  20.296  0.00  0.00    +0.000 S 
BRANCH  18  19
ATOM     19  C   UNL     1       1.456   2.882  21.501  0.00  0.00    +0.000 C 
BRANCH  19  20
ATOM     20  C   UNL     1       2.894   2.544  21.354  0.00  0.00    +0.000 C 
ATOM     21  N   UNL     1       4.022   2.265  21.223  0.00  0.00    +0.000 NA
ENDBRANCH  19  20
ENDBRANCH  18  19
ENDBRANCH   5  18
TORSDOF 7
ENDMDL
MODEL 3
REMARK VINA RESULT:      -6.3      3.779      6.509
REMARK  Name = 
REMARK  8 active torsions:
REMARK  status: ('A' for Active; 'I' for Inactive)
REMARK    1  A    between atoms: C_1  and  C_2
REMARK    2  A    between atoms: C_2  and  N_3
REMARK    3  A    between atoms: C_4  and  C_5
REMARK    4  A    between atoms: C_5  and  N_6
REMARK    5  A    between atoms: N_6  and  C_7
REMARK    6  A    between atoms: C_16  and  S_17
REMARK    7  A    between atoms: S_17  and  C_18
REMARK    8  A    between atoms: C_18  and  C_19
REMARK                            x       y       z     vdW  Elec       q    Type
REMARK                         _______ _______ _______ _____ _____    ______ ____
ROOT
ATOM      1  N   UNL     1       5.723   5.059  16.773  0.00  0.00    +0.000 N 
ATOM      2  C   UNL     1       6.529   4.740  17.856  0.00  0.00    +0.000 A 
ATOM      3  N   UNL     1       7.738   4.471  17.395  0.00  0.00    +0.000 NA
ATOM      4  N   UNL     1       7.728   4.581  16.020  0.00  0.00    +0.000 NA
ATOM      5  C   UNL     1       6.513   4.930  15.657  0.00  0.00    +0.000 A 
ENDROOT
BRANCH   1   7
ATOM      6  C   UNL     1       4.142   6.860  17.404  0.00  0.00    +0.000 C 
ATOM      7  C   UNL     1       4.330   5.461  16.842  0.00  0.00    +0.000 C 
ENDBRANCH   1   7
BRANCH   2   8
ATOM      8  C   UNL     1       6.087   4.640  19.302  0.00  0.00    +0.000 C 
BRANCH   8   9
ATOM      9  N   UNL     1       5.378   3.415  19.668  0.00  0.00    +0.000 N 
ATOM     10  H   UNL     1       5.867   2.786  20.291  0.00  0.00    +0.000 HD
BRANCH   9  11
ATOM     11  C   UNL     1       4.026   3.184  19.479  0.00  0.00    +0.000 A 
ATOM     12  C   UNL     1       2.999   3.973  20.021  0.00  0.00    +0.000 A 
ATOM     13  C   UNL     1       1.648   3.692  19.759  0.00  0.00    +0.000 A 
ATOM     14  C   UNL     1       1.307   2.632  18.935  0.00  0.00    +0.000 A 
ATOM     15  F   UNL     1       0.017   2.363  18.688  0.00  0.00    +0.000 F 
ATOM     16  C   UNL     1       2.294   1.850  18.355  0.00  0.00    +0.000 A 
ATOM     17  C   UNL     1       3.639   2.132  18.622  0.00  0.00    +0.000 A 
ENDBRANCH   9  11
ENDBRANCH   8   9
ENDBRANCH   2   8
BRANCH   5  18
ATOM     18  S   UNL     1       5.988   5.236  14.035  0.00  0.00    +0.000 S 
BRANCH  18  19
ATOM     19  C   UNL     1       6.331   3.665  13.164  0.00  0.00    +0.000 C 
BRANCH  19  20
ATOM     20  C   UNL     1       5.260   3.339  12.190  0.00  0.00    +0.000 C 
ATOM     21  N   UNL     1       4.429   3.069  11.413  0.00  0.00    +0.000 NA
ENDBRANCH  19  20
ENDBRANCH  18  19
ENDBRANCH   5  18
TORSDOF 7
ENDMDL
MODEL 4
REMARK VINA RESULT:      -6.3      3.210      5.812
REMARK  Name = 
REMARK  8 active torsions:
REMARK  status: ('A' for Active; 'I' for Inactive)
REMARK    1  A    between atoms: C_1  and  C_2
REMARK    2  A    between atoms: C_2  and  N_3
REMARK    3  A    between atoms: C_4  and  C_5
REMARK    4  A    between atoms: C_5  and  N_6
REMARK    5  A    between atoms: N_6  and  C_7
REMARK    6  A    between atoms: C_16  and  S_17
REMARK    7  A    between atoms: S_17  and  C_18
REMARK    8  A    between atoms: C_18  and  C_19
REMARK                            x       y       z     vdW  Elec       q    Type
REMARK                         _______ _______ _______ _____ _____    ______ ____
ROOT
ATOM      1  N   UNL     1       5.321   5.582  17.277  0.00  0.00    +0.000 N 
ATOM      2  C   UNL     1       5.217   4.414  16.538  0.00  0.00    +0.000 A 
ATOM      3  N   UNL     1       6.236   4.374  15.697  0.00  0.00    +0.000 NA
ATOM      4  N   UNL     1       6.992   5.516  15.856  0.00  0.00    +0.000 NA
ATOM      5  C   UNL     1       6.433   6.236  16.803  0.00  0.00    +0.000 A 
ENDROOT
BRANCH   1   7
ATOM      6  C   UNL     1       3.313   6.911  17.862  0.00  0.00    +0.000 C 
ATOM      7  C   UNL     1       4.427   5.995  18.342  0.00  0.00    +0.000 C 
ENDBRANCH   1   7
BRANCH   2   8
ATOM      8  C   UNL     1       4.093   3.400  16.620  0.00  0.00    +0.000 C 
BRANCH   8   9
ATOM      9  N   UNL     1       4.115   2.518  17.786  0.00  0.00    +0.000 N 
ATOM     10  H   UNL     1       4.954   1.967  17.913  0.00  0.00    +0.000 HD
BRANCH   9  11
ATOM     11  C   UNL     1       3.241   2.583  18.858  0.00  0.00    +0.000 A 
ATOM     12  C   UNL     1       1.842   2.642  18.743  0.00  0.00    +0.000 A 
ATOM     13  C   UNL     1       1.018   2.676  19.880  0.00  0.00    +0.000 A 
ATOM     14  C   UNL     1       1.580   2.630  21.146  0.00  0.00    +0.000 A 
ATOM     15  F   UNL     1       0.793   2.665  22.230  0.00  0.00    +0.000 F 
ATOM     16  C   UNL     1       2.954   2.539  21.299  0.00  0.00    +0.000 A 
ATOM     17  C   UNL     1       3.772   2.509  20.163  0.00  0.00    +0.000 A 
ENDBRANCH   9  11
ENDBRANCH   8   9
ENDBRANCH   2   8
BRANCH   5  18
ATOM     18  S   UNL     1       7.020   7.749  17.408  0.00  0.00    +0.000 S 
BRANCH  18  19
ATOM     19  C   UNL     1       8.345   7.266  18.572  0.00  0.00    +0.000 C 
BRANCH  19  20
ATOM     20  C   UNL     1       7.924   6.135  19.435  0.00  0.00    +0.000 C 
ATOM     21  N   UNL     1       7.596   5.254  20.131  0.00  0.00    +0.000 NA
ENDBRANCH  19  20
ENDBRANCH  18  19
ENDBRANCH   5  18
TORSDOF 7
ENDMDL
MODEL 5
REMARK VINA RESULT:      -6.2      3.358      6.022
REMARK  Name = 
REMARK  8 active torsions:
REMARK  status: ('A' for Active; 'I' for Inactive)
REMARK    1  A    between atoms: C_1  and  C_2
REMARK    2  A    between atoms: C_2  and  N_3
REMARK    3  A    between atoms: C_4  and  C_5
REMARK    4  A    between atoms: C_5  and  N_6
REMARK    5  A    between atoms: N_6  and  C_7
REMARK    6  A    between atoms: C_16  and  S_17
REMARK    7  A    between atoms: S_17  and  C_18
REMARK    8  A    between atoms: C_18  and  C_19
REMARK                            x       y       z     vdW  Elec       q    Type
REMARK                         _______ _______ _______ _____ _____    ______ ____
ROOT
ATOM      1  N   UNL     1       5.826   5.311  16.639  0.00  0.00    +0.000 N 
ATOM      2  C   UNL     1       4.515   4.943  16.904  0.00  0.00    +0.000 A 
ATOM      3  N   UNL     1       3.906   5.982  17.447  0.00  0.00    +0.000 NA
ATOM      4  N   UNL     1       4.808   7.018  17.569  0.00  0.00    +0.000 NA
ATOM      5  C   UNL     1       5.958   6.603  17.085  0.00  0.00    +0.000 A 
ENDROOT
BRANCH   1   7
ATOM      6  C   UNL     1       6.764   4.526  14.484  0.00  0.00    +0.000 C 
ATOM      7  C   UNL     1       6.828   4.478  16.002  0.00  0.00    +0.000 C 
ENDBRANCH   1   7
BRANCH   2   8
ATOM      8  C   UNL     1       3.908   3.572  16.685  0.00  0.00    +0.000 C 
BRANCH   8   9
ATOM      9  N   UNL     1       4.059   2.625  17.788  0.00  0.00    +0.000 N 
ATOM     10  H   UNL     1       4.919   2.093  17.806  0.00  0.00    +0.000 HD
BRANCH   9  11
ATOM     11  C   UNL     1       3.284   2.600  18.936  0.00  0.00    +0.000 A 
ATOM     12  C   UNL     1       3.795   2.532  20.242  0.00  0.00    +0.000 A 
ATOM     13  C   UNL     1       2.944   2.542  21.359  0.00  0.00    +0.000 A 
ATOM     14  C   UNL     1       1.573   2.640  21.186  0.00  0.00    +0.000 A 
ATOM     15  F   UNL     1       0.762   2.646  22.254  0.00  0.00    +0.000 F 
ATOM     16  C   UNL     1       1.033   2.741  19.914  0.00  0.00    +0.000 A 
ATOM     17  C   UNL     1       1.884   2.728  18.803  0.00  0.00    +0.000 A 
ENDBRANCH   9  11
ENDBRANCH   8   9
ENDBRANCH   2   8
BRANCH   5  18
ATOM     18  S   UNL     1       7.408   7.543  16.970  0.00  0.00    +0.000 S 
BRANCH  18  19
ATOM     19  C   UNL     1       8.213   7.300  18.594  0.00  0.00    +0.000 C 
BRANCH  19  20
ATOM     20  C   UNL     1       7.685   6.099  19.288  0.00  0.00    +0.000 C 
ATOM     21  N   UNL     1       7.280   5.157  19.849  0.00  0.00    +0.000 NA
ENDBRANCH  19  20
ENDBRANCH  18  19
ENDBRANCH   5  18
TORSDOF 7
ENDMDL
MODEL 6
REMARK VINA RESULT:      -6.1      3.252      4.380
REMARK  Name = 
REMARK  8 active torsions:
REMARK  status: ('A' for Active; 'I' for Inactive)
REMARK    1  A    between atoms: C_1  and  C_2
REMARK    2  A    between atoms: C_2  and  N_3
REMARK    3  A    between atoms: C_4  and  C_5
REMARK    4  A    between atoms: C_5  and  N_6
REMARK    5  A    between atoms: N_6  and  C_7
REMARK    6  A    between atoms: C_16  and  S_17
REMARK    7  A    between atoms: S_17  and  C_18
REMARK    8  A    between atoms: C_18  and  C_19
REMARK                            x       y       z     vdW  Elec       q    Type
REMARK                         _______ _______ _______ _____ _____    ______ ____
ROOT
ATOM      1  N   UNL     1       4.562   5.563  18.140  0.00  0.00    +0.000 N 
ATOM      2  C   UNL     1       5.902   5.554  17.784  0.00  0.00    +0.000 A 
ATOM      3  N   UNL     1       6.539   4.760  18.627  0.00  0.00    +0.000 NA
ATOM      4  N   UNL     1       5.639   4.270  19.550  0.00  0.00    +0.000 NA
ATOM      5  C   UNL     1       4.456   4.761  19.251  0.00  0.00    +0.000 A 
ENDROOT
BRANCH   1   7
ATOM      6  C   UNL     1       3.153   7.601  18.102  0.00  0.00    +0.000 C 
ATOM      7  C   UNL     1       3.505   6.275  17.447  0.00  0.00    +0.000 C 
ENDBRANCH   1   7
BRANCH   2   8
ATOM      8  C   UNL     1       6.540   6.369  16.678  0.00  0.00    +0.000 C 
BRANCH   8   9
ATOM      9  N   UNL     1       7.385   5.625  15.744  0.00  0.00    +0.000 N 
ATOM     10  H   UNL     1       8.320   5.408  16.064  0.00  0.00    +0.000 HD
BRANCH   9  11
ATOM     11  C   UNL     1       6.939   4.958  14.615  0.00  0.00    +0.000 A 
ATOM     12  C   UNL     1       7.617   4.932  13.386  0.00  0.00    +0.000 A 
ATOM     13  C   UNL     1       7.115   4.207  12.292  0.00  0.00    +0.000 A 
ATOM     14  C   UNL     1       5.941   3.483  12.420  0.00  0.00    +0.000 A 
ATOM     15  F   UNL     1       5.462   2.794  11.374  0.00  0.00    +0.000 F 
ATOM     16  C   UNL     1       5.261   3.458  13.627  0.00  0.00    +0.000 A 
ATOM     17  C   UNL     1       5.763   4.185  14.713  0.00  0.00    +0.000 A 
ENDBRANCH   9  11
ENDBRANCH   8   9
ENDBRANCH   2   8
BRANCH   5  18
ATOM     18  S   UNL     1       2.976   4.420  20.084  0.00  0.00    +0.000 S 
BRANCH  18  19
ATOM     19  C   UNL     1       2.123   3.232  18.986  0.00  0.00    +0.000 C 
BRANCH  19  20
ATOM     20  C   UNL     1       3.023   2.123  18.583  0.00  0.00    +0.000 C 
ATOM     21  N   UNL     1       3.716   1.237  18.265  0.00  0.00    +0.000 NA
ENDBRANCH  19  20
ENDBRANCH  18  19
ENDBRANCH   5  18
TORSDOF 7
ENDMDL
MODEL 7
REMARK VINA RESULT:      -6.0      3.709      6.590
REMARK  Name = 
REMARK  8 active torsions:
REMARK  status: ('A' for Active; 'I' for Inactive)
REMARK    1  A    between atoms: C_1  and  C_2
REMARK    2  A    between atoms: C_2  and  N_3
REMARK    3  A    between atoms: C_4  and  C_5
REMARK    4  A    between atoms: C_5  and  N_6
REMARK    5  A    between atoms: N_6  and  C_7
REMARK    6  A    between atoms: C_16  and  S_17
REMARK    7  A    between atoms: S_17  and  C_18
REMARK    8  A    between atoms: C_18  and  C_19
REMARK                            x       y       z     vdW  Elec       q    Type
REMARK                         _______ _______ _______ _____ _____    ______ ____
ROOT
ATOM      1  N   UNL     1       5.088   5.249  17.051  0.00  0.00    +0.000 N 
ATOM      2  C   UNL     1       4.305   6.386  17.181  0.00  0.00    +0.000 A 
ATOM      3  N   UNL     1       4.520   7.148  16.123  0.00  0.00    +0.000 NA
ATOM      4  N   UNL     1       5.455   6.539  15.314  0.00  0.00    +0.000 NA
ATOM      5  C   UNL     1       5.793   5.402  15.882  0.00  0.00    +0.000 A 
ENDROOT
BRANCH   1   7
ATOM      6  C   UNL     1       4.218   2.984  17.552  0.00  0.00    +0.000 C 
ATOM      7  C   UNL     1       5.120   4.131  17.975  0.00  0.00    +0.000 C 
ENDBRANCH   1   7
BRANCH   2   8
ATOM      8  C   UNL     1       3.421   6.734  18.361  0.00  0.00    +0.000 C 
BRANCH   8   9
ATOM      9  N   UNL     1       2.163   5.995  18.455  0.00  0.00    +0.000 N 
ATOM     10  H   UNL     1       1.527   6.095  17.675  0.00  0.00    +0.000 HD
BRANCH   9  11
ATOM     11  C   UNL     1       1.898   4.973  19.351  0.00  0.00    +0.000 A 
ATOM     12  C   UNL     1       1.122   3.840  19.061  0.00  0.00    +0.000 A 
ATOM     13  C   UNL     1       0.923   2.829  20.016  0.00  0.00    +0.000 A 
ATOM     14  C   UNL     1       1.513   2.927  21.265  0.00  0.00    +0.000 A 
ATOM     15  F   UNL     1       1.320   1.963  22.175  0.00  0.00    +0.000 F 
ATOM     16  C   UNL     1       2.313   4.015  21.577  0.00  0.00    +0.000 A 
ATOM     17  C   UNL     1       2.507   5.022  20.624  0.00  0.00    +0.000 A 
ENDBRANCH   9  11
ENDBRANCH   8   9
ENDBRANCH   2   8
BRANCH   5  18
ATOM     18  S   UNL     1       6.909   4.241  15.244  0.00  0.00    +0.000 S 
BRANCH  18  19
ATOM     19  C   UNL     1       6.990   4.649  13.463  0.00  0.00    +0.000 C 
BRANCH  19  20
ATOM     20  C   UNL     1       6.271   3.643  12.642  0.00  0.00    +0.000 C 
ATOM     21  N   UNL     1       5.689   2.858  12.000  0.00  0.00    +0.000 NA
ENDBRANCH  19  20
ENDBRANCH  18  19
ENDBRANCH   5  18
TORSDOF 7
ENDMDL
MODEL 8
REMARK VINA RESULT:      -5.9      3.304      4.726
REMARK  Name = 
REMARK  8 active torsions:
REMARK  status: ('A' for Active; 'I' for Inactive)
REMARK    1  A    between atoms: C_1  and  C_2
REMARK    2  A    between atoms: C_2  and  N_3
REMARK    3  A    between atoms: C_4  and  C_5
REMARK    4  A    between atoms: C_5  and  N_6
REMARK    5  A    between atoms: N_6  and  C_7
REMARK    6  A    between atoms: C_16  and  S_17
REMARK    7  A    between atoms: S_17  and  C_18
REMARK    8  A    between atoms: C_18  and  C_19
REMARK                            x       y       z     vdW  Elec       q    Type
REMARK                         _______ _______ _______ _____ _____    ______ ____
ROOT
ATOM      1  N   UNL     1       2.518   5.690  19.797  0.00  0.00    +0.000 N 
ATOM      2  C   UNL     1       3.162   5.347  18.618  0.00  0.00    +0.000 A 
ATOM      3  N   UNL     1       3.266   6.439  17.881  0.00  0.00    +0.000 NA
ATOM      4  N   UNL     1       2.673   7.489  18.549  0.00  0.00    +0.000 NA
ATOM      5  C   UNL     1       2.223   7.028  19.696  0.00  0.00    +0.000 A 
ENDROOT
BRANCH   1   7
ATOM      6  C   UNL     1       1.083   3.849  20.628  0.00  0.00    +0.000 C 
ATOM      7  C   UNL     1       2.241   4.795  20.905  0.00  0.00    +0.000 C 
ENDBRANCH   1   7
BRANCH   2   8
ATOM      8  C   UNL     1       3.599   3.954  18.210  0.00  0.00    +0.000 C 
BRANCH   8   9
ATOM      9  N   UNL     1       5.029   3.785  17.954  0.00  0.00    +0.000 N 
ATOM     10  H   UNL     1       5.522   3.155  18.573  0.00  0.00    +0.000 HD
BRANCH   9  11
ATOM     11  C   UNL     1       5.688   4.170  16.799  0.00  0.00    +0.000 A 
ATOM     12  C   UNL     1       7.012   4.635  16.753  0.00  0.00    +0.000 A 
ATOM     13  C   UNL     1       7.623   4.979  15.536  0.00  0.00    +0.000 A 
ATOM     14  C   UNL     1       6.926   4.844  14.347  0.00  0.00    +0.000 A 
ATOM     15  F   UNL     1       7.509   5.175  13.187  0.00  0.00    +0.000 F 
ATOM     16  C   UNL     1       5.628   4.358  14.348  0.00  0.00    +0.000 A 
ATOM     17  C   UNL     1       5.022   4.019  15.563  0.00  0.00    +0.000 A 
ENDBRANCH   9  11
ENDBRANCH   8   9
ENDBRANCH   2   8
BRANCH   5  18
ATOM     18  S   UNL     1       1.429   7.959  20.922  0.00  0.00    +0.000 S 
BRANCH  18  19
ATOM     19  C   UNL     1       0.892   9.469  20.041  0.00  0.00    +0.000 C 
BRANCH  19  20
ATOM     20  C   UNL     1       0.674  10.598  20.980  0.00  0.00    +0.000 C 
ATOM     21  N   UNL     1       0.504  11.499  21.705  0.00  0.00    +0.000 NA
ENDBRANCH  19  20
ENDBRANCH  18  19
ENDBRANCH   5  18
TORSDOF 7
ENDMDL
MODEL 9
REMARK VINA RESULT:      -5.9      1.314      2.448
REMARK  Name = 
REMARK  8 active torsions:
REMARK  status: ('A' for Active; 'I' for Inactive)
REMARK    1  A    between atoms: C_1  and  C_2
REMARK    2  A    between atoms: C_2  and  N_3
REMARK    3  A    between atoms: C_4  and  C_5
REMARK    4  A    between atoms: C_5  and  N_6
REMARK    5  A    between atoms: N_6  and  C_7
REMARK    6  A    between atoms: C_16  and  S_17
REMARK    7  A    between atoms: S_17  and  C_18
REMARK    8  A    between atoms: C_18  and  C_19
REMARK                            x       y       z     vdW  Elec       q    Type
REMARK                         _______ _______ _______ _____ _____    ______ ____
ROOT
ATOM      1  N   UNL     1       3.239   3.566  18.702  0.00  0.00    +0.000 N 
ATOM      2  C   UNL     1       3.387   3.467  17.327  0.00  0.00    +0.000 A 
ATOM      3  N   UNL     1       2.195   3.625  16.779  0.00  0.00    +0.000 NA
ATOM      4  N   UNL     1       1.262   3.799  17.779  0.00  0.00    +0.000 NA
ATOM      5  C   UNL     1       1.897   3.757  18.929  0.00  0.00    +0.000 A 
ENDROOT
BRANCH   1   7
ATOM      6  C   UNL     1       4.551   2.084  20.193  0.00  0.00    +0.000 C 
ATOM      7  C   UNL     1       4.309   3.494  19.679  0.00  0.00    +0.000 C 
ENDBRANCH   1   7
BRANCH   2   8
ATOM      8  C   UNL     1       4.671   3.153  16.586  0.00  0.00    +0.000 C 
BRANCH   8   9
ATOM      9  N   UNL     1       5.417   4.308  16.088  0.00  0.00    +0.000 N 
ATOM     10  H   UNL     1       5.152   4.650  15.174  0.00  0.00    +0.000 HD
BRANCH   9  11
ATOM     11  C   UNL     1       6.229   5.129  16.852  0.00  0.00    +0.000 A 
ATOM     12  C   UNL     1       7.119   4.675  17.839  0.00  0.00    +0.000 A 
ATOM     13  C   UNL     1       7.934   5.570  18.553  0.00  0.00    +0.000 A 
ATOM     14  C   UNL     1       7.883   6.926  18.277  0.00  0.00    +0.000 A 
ATOM     15  F   UNL     1       8.659   7.778  18.961  0.00  0.00    +0.000 F 
ATOM     16  C   UNL     1       7.041   7.408  17.288  0.00  0.00    +0.000 A 
ATOM     17  C   UNL     1       6.229   6.514  16.580  0.00  0.00    +0.000 A 
ENDBRANCH   9  11
ENDBRANCH   8   9
ENDBRANCH   2   8
BRANCH   5  18
ATOM     18  S   UNL     1       1.181   3.963  20.493  0.00  0.00    +0.000 S 
BRANCH  18  19
ATOM     19  C   UNL     1       1.571   5.697  20.925  0.00  0.00    +0.000 C 
BRANCH  19  20
ATOM     20  C   UNL     1       2.161   6.424  19.774  0.00  0.00    +0.000 C 
ATOM     21  N   UNL     1       2.636   7.008  18.879  0.00  0.00    +0.000 NA
ENDBRANCH  19  20
ENDBRANCH  18  19
ENDBRANCH   5  18
TORSDOF 7
ENDMDL
