MODEL 1
REMARK VINA RESULT:      -7.7      0.000      0.000
REMARK  Name = 
REMARK  14 active torsions:
REMARK  status: ('A' for Active; 'I' for Inactive)
REMARK    1  A    between atoms: C_1  and  C_2
REMARK    2  A    between atoms: C_2  and  N_3
REMARK    3  A    between atoms: C_2  and  C_22
REMARK    4  A    between atoms: C_4  and  C_6
REMARK    5  A    between atoms: C_6  and  C_7
REMARK    6  A    between atoms: C_7  and  C_8
REMARK    7  A    between atoms: C_8  and  C_9
REMARK    8  A    between atoms: C_9  and  N_10
REMARK    9  A    between atoms: N_24  and  C_25
REMARK   10  A    between atoms: C_25  and  C_26
REMARK   11  A    between atoms: C_25  and  C_31
REMARK   12  A    between atoms: C_26  and  C_27
REMARK   13  A    between atoms: C_27  and  C_28
REMARK   14  A    between atoms: C_28  and  O_30
REMARK                            x       y       z     vdW  Elec       q    Type
REMARK                         _______ _______ _______ _____ _____    ______ ____
ROOT
ATOM      1  N   UNL     1       2.966   5.890  20.084  0.00  0.00    +0.000 N 
ATOM      2  C   UNL     1       2.504   6.485  18.935  0.00  0.00    +0.000 C 
ATOM      3  O   UNL     1       2.380   5.883  17.874  0.00  0.00    +0.000 OA
ATOM      4  H   UNL     1       3.059   6.410  20.946  0.00  0.00    +0.000 HD
ENDROOT
BRANCH   1   6
ATOM      5  C   UNL     1       2.171   3.611  19.608  0.00  0.00    +0.000 C 
ATOM      6  C   UNL     1       3.323   4.471  20.117  0.00  0.00    +0.000 C 
BRANCH   6   7
ATOM      7  C   UNL     1       4.566   4.229  19.235  0.00  0.00    +0.000 C 
ATOM      8  O   UNL     1       4.803   3.132  18.734  0.00  0.00    +0.000 OA
ATOM      9  N   UNL     1       5.418   5.311  19.105  0.00  0.00    +0.000 N 
ATOM     10  H   UNL     1       5.143   6.219  19.464  0.00  0.00    +0.000 HD
BRANCH   9  11
ATOM     11  C   UNL     1       6.666   5.228  18.337  0.00  0.00    +0.000 C 
BRANCH  11  12
ATOM     12  C   UNL     1       7.793   5.977  19.080  0.00  0.00    +0.000 C 
ATOM     13  N   UNL     1       8.296   5.367  20.194  0.00  0.00    +0.000 N 
ATOM     14  O   UNL     1       8.244   7.051  18.694  0.00  0.00    +0.000 OA
ATOM     15  H   UNL     1       8.091   4.401  20.433  0.00  0.00    +0.000 HD
ATOM     16  H   UNL     1       9.098   5.794  20.639  0.00  0.00    +0.000 HD
ENDBRANCH  11  12
BRANCH  11  17
ATOM     17  C   UNL     1       6.491   5.835  16.932  0.00  0.00    +0.000 C 
BRANCH  17  18
ATOM     18  C   UNL     1       7.040   4.960  15.807  0.00  0.00    +0.000 C 
BRANCH  18  19
ATOM     19  C   UNL     1       6.007   4.027  15.228  0.00  0.00    +0.000 C 
ATOM     20  O   UNL     1       5.376   4.268  14.213  0.00  0.00    +0.000 OA
BRANCH  19  21
ATOM     21  O   UNL     1       5.873   2.878  15.925  0.00  0.00    +0.000 OA
ATOM     22  H   UNL     1       6.638   2.274  15.850  0.00  0.00    +0.000 HD
ENDBRANCH  19  21
ENDBRANCH  18  19
ENDBRANCH  17  18
ENDBRANCH  11  17
ENDBRANCH   9  11
ENDBRANCH   6   7
ENDBRANCH   1   6
BRANCH   2  23
ATOM     23  C   UNL     1       2.198   7.962  19.055  0.00  0.00    +0.000 C 
BRANCH  23  24
ATOM     24  C   UNL     1       1.729   8.562  17.731  0.00  0.00    +0.000 C 
BRANCH  24  25
ATOM     25  C   UNL     1       0.663   9.649  17.921  0.00  0.00    +0.000 C 
BRANCH  25  26
ATOM     26  C   UNL     1       1.188  10.797  18.774  0.00  0.00    +0.000 C 
BRANCH  26  27
ATOM     27  N   UNL     1       0.177  11.220  19.739  0.00  0.00    +0.000 N 
ATOM     28  C   UNL     1      -0.663  12.346  19.619  0.00  0.00    +0.000 C 
ATOM     29  O   UNL     1      -0.703  13.107  18.669  0.00  0.00    +0.000 OA
ATOM     30  C   UNL     1      -1.468  12.483  20.845  0.00  0.00    +0.000 A 
ATOM     31  C   UNL     1      -2.425  13.454  21.085  0.00  0.00    +0.000 A 
ATOM     32  C   UNL     1      -3.078  13.440  22.322  0.00  0.00    +0.000 A 
ATOM     33  C   UNL     1      -2.766  12.466  23.289  0.00  0.00    +0.000 A 
ATOM     34  C   UNL     1      -1.801  11.487  23.034  0.00  0.00    +0.000 A 
ATOM     35  C   UNL     1      -1.172  11.523  21.803  0.00  0.00    +0.000 A 
ATOM     36  S   UNL     1       0.064  10.447  21.224  0.00  0.00    +0.000 S 
ATOM     37  O   UNL     1      -0.513   9.132  21.041  0.00  0.00    +0.000 OA
ATOM     38  O   UNL     1       1.270  10.689  21.979  0.00  0.00    +0.000 OA
ENDBRANCH  26  27
ENDBRANCH  25  26
ENDBRANCH  24  25
ENDBRANCH  23  24
ENDBRANCH   2  23
TORSDOF 13
ENDMDL
MODEL 2
REMARK VINA RESULT:      -7.7      2.021      2.472
REMARK  Name = 
REMARK  14 active torsions:
REMARK  status: ('A' for Active; 'I' for Inactive)
REMARK    1  A    between atoms: C_1  and  C_2
REMARK    2  A    between atoms: C_2  and  N_3
REMARK    3  A    between atoms: C_2  and  C_22
REMARK    4  A    between atoms: C_4  and  C_6
REMARK    5  A    between atoms: C_6  and  C_7
REMARK    6  A    between atoms: C_7  and  C_8
REMARK    7  A    between atoms: C_8  and  C_9
REMARK    8  A    between atoms: C_9  and  N_10
REMARK    9  A    between atoms: N_24  and  C_25
REMARK   10  A    between atoms: C_25  and  C_26
REMARK   11  A    between atoms: C_25  and  C_31
REMARK   12  A    between atoms: C_26  and  C_27
REMARK   13  A    between atoms: C_27  and  C_28
REMARK   14  A    between atoms: C_28  and  O_30
REMARK                            x       y       z     vdW  Elec       q    Type
REMARK                         _______ _______ _______ _____ _____    ______ ____
ROOT
ATOM      1  N   UNL     1       2.580   5.344  18.612  0.00  0.00    +0.000 N 
ATOM      2  C   UNL     1       2.305   6.085  19.736  0.00  0.00    +0.000 C 
ATOM      3  O   UNL     1       2.140   5.584  20.843  0.00  0.00    +0.000 OA
ATOM      4  H   UNL     1       2.711   5.783  17.711  0.00  0.00    +0.000 HD
ENDROOT
BRANCH   1   6
ATOM      5  C   UNL     1       1.406   3.203  18.311  0.00  0.00    +0.000 C 
ATOM      6  C   UNL     1       2.719   3.889  18.673  0.00  0.00    +0.000 C 
BRANCH   6   7
ATOM      7  C   UNL     1       3.818   3.432  17.692  0.00  0.00    +0.000 C 
ATOM      8  O   UNL     1       3.967   2.250  17.387  0.00  0.00    +0.000 OA
ATOM      9  N   UNL     1       4.657   4.433  17.235  0.00  0.00    +0.000 N 
ATOM     10  H   UNL     1       4.448   5.404  17.444  0.00  0.00    +0.000 HD
BRANCH   9  11
ATOM     11  C   UNL     1       5.780   4.153  16.333  0.00  0.00    +0.000 C 
BRANCH  11  12
ATOM     12  C   UNL     1       7.024   4.955  16.774  0.00  0.00    +0.000 C 
ATOM     13  N   UNL     1       7.842   4.353  17.687  0.00  0.00    +0.000 N 
ATOM     14  O   UNL     1       7.293   6.064  16.324  0.00  0.00    +0.000 OA
ATOM     15  H   UNL     1       7.763   3.370  17.934  0.00  0.00    +0.000 HD
ATOM     16  H   UNL     1       8.710   4.819  17.916  0.00  0.00    +0.000 HD
ENDBRANCH  11  12
BRANCH  11  17
ATOM     17  C   UNL     1       5.426   4.522  14.880  0.00  0.00    +0.000 C 
BRANCH  17  18
ATOM     18  C   UNL     1       6.448   4.039  13.852  0.00  0.00    +0.000 C 
BRANCH  18  19
ATOM     19  C   UNL     1       5.811   3.399  12.645  0.00  0.00    +0.000 C 
ATOM     20  O   UNL     1       4.666   3.622  12.289  0.00  0.00    +0.000 OA
BRANCH  19  21
ATOM     21  O   UNL     1       6.648   2.579  11.971  0.00  0.00    +0.000 OA
ATOM     22  H   UNL     1       6.210   2.047  11.277  0.00  0.00    +0.000 HD
ENDBRANCH  19  21
ENDBRANCH  18  19
ENDBRANCH  17  18
ENDBRANCH  11  17
ENDBRANCH   9  11
ENDBRANCH   6   7
ENDBRANCH   1   6
BRANCH   2  23
ATOM     23  C   UNL     1       2.170   7.575  19.506  0.00  0.00    +0.000 C 
BRANCH  23  24
ATOM     24  C   UNL     1       2.159   7.929  18.020  0.00  0.00    +0.000 C 
BRANCH  24  25
ATOM     25  C   UNL     1       1.434   9.250  17.733  0.00  0.00    +0.000 C 
BRANCH  25  26
ATOM     26  C   UNL     1       1.332  10.109  18.987  0.00  0.00    +0.000 C 
BRANCH  26  27
ATOM     27  N   UNL     1      -0.029  10.612  19.152  0.00  0.00    +0.000 N 
ATOM     28  C   UNL     1      -1.101  10.413  18.257  0.00  0.00    +0.000 C 
ATOM     29  O   UNL     1      -1.061   9.752  17.235  0.00  0.00    +0.000 OA
ATOM     30  C   UNL     1      -2.275  11.163  18.733  0.00  0.00    +0.000 A 
ATOM     31  C   UNL     1      -3.522  11.190  18.130  0.00  0.00    +0.000 A 
ATOM     32  C   UNL     1      -4.517  11.979  18.716  0.00  0.00    +0.000 A 
ATOM     33  C   UNL     1      -4.252  12.722  19.883  0.00  0.00    +0.000 A 
ATOM     34  C   UNL     1      -2.992  12.684  20.485  0.00  0.00    +0.000 A 
ATOM     35  C   UNL     1      -2.027  11.895  19.886  0.00  0.00    +0.000 A 
ATOM     36  S   UNL     1      -0.384  11.668  20.407  0.00  0.00    +0.000 S 
ATOM     37  O   UNL     1      -0.388  10.945  21.661  0.00  0.00    +0.000 OA
ATOM     38  O   UNL     1       0.334  12.905  20.204  0.00  0.00    +0.000 OA
ENDBRANCH  26  27
ENDBRANCH  25  26
ENDBRANCH  24  25
ENDBRANCH  23  24
ENDBRANCH   2  23
TORSDOF 13
ENDMDL
MODEL 3
REMARK VINA RESULT:      -7.7      5.847      8.547
REMARK  Name = 
REMARK  14 active torsions:
REMARK  status: ('A' for Active; 'I' for Inactive)
REMARK    1  A    between atoms: C_1  and  C_2
REMARK    2  A    between atoms: C_2  and  N_3
REMARK    3  A    between atoms: C_2  and  C_22
REMARK    4  A    between atoms: C_4  and  C_6
REMARK    5  A    between atoms: C_6  and  C_7
REMARK    6  A    between atoms: C_7  and  C_8
REMARK    7  A    between atoms: C_8  and  C_9
REMARK    8  A    between atoms: C_9  and  N_10
REMARK    9  A    between atoms: N_24  and  C_25
REMARK   10  A    between atoms: C_25  and  C_26
REMARK   11  A    between atoms: C_25  and  C_31
REMARK   12  A    between atoms: C_26  and  C_27
REMARK   13  A    between atoms: C_27  and  C_28
REMARK   14  A    between atoms: C_28  and  O_30
REMARK                            x       y       z     vdW  Elec       q    Type
REMARK                         _______ _______ _______ _____ _____    ______ ____
ROOT
ATOM      1  N   UNL     1       7.272   5.999  17.143  0.00  0.00    +0.000 N 
ATOM      2  C   UNL     1       7.028   7.306  17.490  0.00  0.00    +0.000 C 
ATOM      3  O   UNL     1       5.925   7.830  17.387  0.00  0.00    +0.000 OA
ATOM      4  H   UNL     1       8.193   5.592  17.237  0.00  0.00    +0.000 HD
ENDROOT
BRANCH   1   6
ATOM      5  C   UNL     1       6.769   4.048  15.731  0.00  0.00    +0.000 C 
ATOM      6  C   UNL     1       6.205   5.131  16.644  0.00  0.00    +0.000 C 
BRANCH   6   7
ATOM      7  C   UNL     1       5.480   4.467  17.833  0.00  0.00    +0.000 C 
ATOM      8  O   UNL     1       6.087   4.083  18.831  0.00  0.00    +0.000 OA
ATOM      9  N   UNL     1       4.119   4.280  17.667  0.00  0.00    +0.000 N 
ATOM     10  H   UNL     1       3.646   4.686  16.867  0.00  0.00    +0.000 HD
BRANCH   9  11
ATOM     11  C   UNL     1       3.297   3.620  18.688  0.00  0.00    +0.000 C 
BRANCH  11  12
ATOM     12  C   UNL     1       3.218   2.104  18.403  0.00  0.00    +0.000 C 
ATOM     13  N   UNL     1       2.238   1.699  17.542  0.00  0.00    +0.000 N 
ATOM     14  O   UNL     1       3.998   1.294  18.893  0.00  0.00    +0.000 OA
ATOM     15  H   UNL     1       1.704   2.348  16.969  0.00  0.00    +0.000 HD
ATOM     16  H   UNL     1       2.230   0.725  17.267  0.00  0.00    +0.000 HD
ENDBRANCH  11  12
BRANCH  11  17
ATOM     17  C   UNL     1       1.873   4.207  18.713  0.00  0.00    +0.000 C 
BRANCH  17  18
ATOM     18  C   UNL     1       1.128   3.969  20.026  0.00  0.00    +0.000 C 
BRANCH  18  19
ATOM     19  C   UNL     1       1.995   4.176  21.242  0.00  0.00    +0.000 C 
ATOM     20  O   UNL     1       2.244   3.297  22.049  0.00  0.00    +0.000 OA
BRANCH  19  21
ATOM     21  O   UNL     1       2.500   5.426  21.331  0.00  0.00    +0.000 OA
ATOM     22  H   UNL     1       2.091   6.067  20.715  0.00  0.00    +0.000 HD
ENDBRANCH  19  21
ENDBRANCH  18  19
ENDBRANCH  17  18
ENDBRANCH  11  17
ENDBRANCH   9  11
ENDBRANCH   6   7
ENDBRANCH   1   6
BRANCH   2  23
ATOM     23  C   UNL     1       8.238   8.080  17.968  0.00  0.00    +0.000 C 
BRANCH  23  24
ATOM     24  C   UNL     1       8.036   9.590  17.857  0.00  0.00    +0.000 C 
BRANCH  24  25
ATOM     25  C   UNL     1       9.252  10.386  18.348  0.00  0.00    +0.000 C 
BRANCH  25  26
ATOM     26  C   UNL     1       9.390  10.308  19.863  0.00  0.00    +0.000 C 
BRANCH  26  27
ATOM     27  N   UNL     1       9.706  11.623  20.415  0.00  0.00    +0.000 N 
ATOM     28  C   UNL     1       9.057  12.243  21.503  0.00  0.00    +0.000 C 
ATOM     29  O   UNL     1       8.168  11.752  22.175  0.00  0.00    +0.000 OA
ATOM     30  C   UNL     1       9.601  13.600  21.682  0.00  0.00    +0.000 A 
ATOM     31  C   UNL     1       9.229  14.501  22.666  0.00  0.00    +0.000 A 
ATOM     32  C   UNL     1       9.841  15.758  22.669  0.00  0.00    +0.000 A 
ATOM     33  C   UNL     1      10.804  16.091  21.697  0.00  0.00    +0.000 A 
ATOM     34  C   UNL     1      11.175  15.173  20.712  0.00  0.00    +0.000 A 
ATOM     35  C   UNL     1      10.555  13.937  20.733  0.00  0.00    +0.000 A 
ATOM     36  S   UNL     1      10.811  12.615  19.633  0.00  0.00    +0.000 S 
ATOM     37  O   UNL     1      12.148  12.098  19.829  0.00  0.00    +0.000 OA
ATOM     38  O   UNL     1      10.284  12.988  18.341  0.00  0.00    +0.000 OA
ENDBRANCH  26  27
ENDBRANCH  25  26
ENDBRANCH  24  25
ENDBRANCH  23  24
ENDBRANCH   2  23
TORSDOF 13
ENDMDL
MODEL 4
REMARK VINA RESULT:      -7.6      1.595      2.463
REMARK  Name = 
REMARK  14 active torsions:
REMARK  status: ('A' for Active; 'I' for Inactive)
REMARK    1  A    between atoms: C_1  and  C_2
REMARK    2  A    between atoms: C_2  and  N_3
REMARK    3  A    between atoms: C_2  and  C_22
REMARK    4  A    between atoms: C_4  and  C_6
REMARK    5  A    between atoms: C_6  and  C_7
REMARK    6  A    between atoms: C_7  and  C_8
REMARK    7  A    between atoms: C_8  and  C_9
REMARK    8  A    between atoms: C_9  and  N_10
REMARK    9  A    between atoms: N_24  and  C_25
REMARK   10  A    between atoms: C_25  and  C_26
REMARK   11  A    between atoms: C_25  and  C_31
REMARK   12  A    between atoms: C_26  and  C_27
REMARK   13  A    between atoms: C_27  and  C_28
REMARK   14  A    between atoms: C_28  and  O_30
REMARK                            x       y       z     vdW  Elec       q    Type
REMARK                         _______ _______ _______ _____ _____    ______ ____
ROOT
ATOM      1  N   UNL     1       2.135   5.118  18.837  0.00  0.00    +0.000 N 
ATOM      2  C   UNL     1       2.605   6.408  18.901  0.00  0.00    +0.000 C 
ATOM      3  O   UNL     1       3.591   6.729  19.555  0.00  0.00    +0.000 OA
ATOM      4  H   UNL     1       1.319   4.881  18.290  0.00  0.00    +0.000 HD
ENDROOT
BRANCH   1   6
ATOM      5  C   UNL     1       1.919   2.791  19.605  0.00  0.00    +0.000 C 
ATOM      6  C   UNL     1       2.810   4.026  19.540  0.00  0.00    +0.000 C 
BRANCH   6   7
ATOM      7  C   UNL     1       4.120   3.670  18.805  0.00  0.00    +0.000 C 
ATOM      8  O   UNL     1       4.961   2.924  19.302  0.00  0.00    +0.000 OA
ATOM      9  N   UNL     1       4.303   4.297  17.585  0.00  0.00    +0.000 N 
ATOM     10  H   UNL     1       3.550   4.838  17.175  0.00  0.00    +0.000 HD
BRANCH   9  11
ATOM     11  C   UNL     1       5.519   4.099  16.786  0.00  0.00    +0.000 C 
BRANCH  11  12
ATOM     12  C   UNL     1       6.687   4.905  17.395  0.00  0.00    +0.000 C 
ATOM     13  N   UNL     1       7.928   4.344  17.293  0.00  0.00    +0.000 N 
ATOM     14  O   UNL     1       6.534   6.001  17.923  0.00  0.00    +0.000 OA
ATOM     15  H   UNL     1       8.124   3.542  16.699  0.00  0.00    +0.000 HD
ATOM     16  H   UNL     1       8.718   4.898  17.599  0.00  0.00    +0.000 HD
ENDBRANCH  11  12
BRANCH  11  17
ATOM     17  C   UNL     1       5.298   4.544  15.328  0.00  0.00    +0.000 C 
BRANCH  17  18
ATOM     18  C   UNL     1       6.200   3.834  14.321  0.00  0.00    +0.000 C 
BRANCH  18  19
ATOM     19  C   UNL     1       7.202   4.755  13.674  0.00  0.00    +0.000 C 
ATOM     20  O   UNL     1       7.870   5.566  14.294  0.00  0.00    +0.000 OA
BRANCH  19  21
ATOM     21  O   UNL     1       7.317   4.571  12.341  0.00  0.00    +0.000 OA
ATOM     22  H   UNL     1       6.466   4.600  11.860  0.00  0.00    +0.000 HD
ENDBRANCH  19  21
ENDBRANCH  18  19
ENDBRANCH  17  18
ENDBRANCH  11  17
ENDBRANCH   9  11
ENDBRANCH   6   7
ENDBRANCH   1   6
BRANCH   2  23
ATOM     23  C   UNL     1       1.786   7.428  18.139  0.00  0.00    +0.000 C 
BRANCH  23  24
ATOM     24  C   UNL     1       2.612   8.651  17.745  0.00  0.00    +0.000 C 
BRANCH  24  25
ATOM     25  C   UNL     1       1.839   9.965  17.917  0.00  0.00    +0.000 C 
BRANCH  25  26
ATOM     26  C   UNL     1       0.338   9.717  18.007  0.00  0.00    +0.000 C 
BRANCH  26  27
ATOM     27  N   UNL     1      -0.242  10.492  19.101  0.00  0.00    +0.000 N 
ATOM     28  C   UNL     1      -0.135  10.195  20.475  0.00  0.00    +0.000 C 
ATOM     29  O   UNL     1       0.500   9.273  20.957  0.00  0.00    +0.000 OA
ATOM     30  C   UNL     1      -0.942  11.158  21.244  0.00  0.00    +0.000 A 
ATOM     31  C   UNL     1      -1.062  11.200  22.623  0.00  0.00    +0.000 A 
ATOM     32  C   UNL     1      -1.894  12.177  23.179  0.00  0.00    +0.000 A 
ATOM     33  C   UNL     1      -2.586  13.085  22.356  0.00  0.00    +0.000 A 
ATOM     34  C   UNL     1      -2.454  13.037  20.966  0.00  0.00    +0.000 A 
ATOM     35  C   UNL     1      -1.624  12.062  20.442  0.00  0.00    +0.000 A 
ATOM     36  S   UNL     1      -1.283  11.764  18.764  0.00  0.00    +0.000 S 
ATOM     37  O   UNL     1      -0.528  12.881  18.237  0.00  0.00    +0.000 OA
ATOM     38  O   UNL     1      -2.479  11.248  18.140  0.00  0.00    +0.000 OA
ENDBRANCH  26  27
ENDBRANCH  25  26
ENDBRANCH  24  25
ENDBRANCH  23  24
ENDBRANCH   2  23
TORSDOF 13
ENDMDL
MODEL 5
REMARK VINA RESULT:      -7.5      1.528      2.291
REMARK  Name = 
REMARK  14 active torsions:
REMARK  status: ('A' for Active; 'I' for Inactive)
REMARK    1  A    between atoms: C_1  and  C_2
REMARK    2  A    between atoms: C_2  and  N_3
REMARK    3  A    between atoms: C_2  and  C_22
REMARK    4  A    between atoms: C_4  and  C_6
REMARK    5  A    between atoms: C_6  and  C_7
REMARK    6  A    between atoms: C_7  and  C_8
REMARK    7  A    between atoms: C_8  and  C_9
REMARK    8  A    between atoms: C_9  and  N_10
REMARK    9  A    between atoms: N_24  and  C_25
REMARK   10  A    between atoms: C_25  and  C_26
REMARK   11  A    between atoms: C_25  and  C_31
REMARK   12  A    between atoms: C_26  and  C_27
REMARK   13  A    between atoms: C_27  and  C_28
REMARK   14  A    between atoms: C_28  and  O_30
REMARK                            x       y       z     vdW  Elec       q    Type
REMARK                         _______ _______ _______ _____ _____    ______ ____
ROOT
ATOM      1  N   UNL     1       2.762   4.122  20.500  0.00  0.00    +0.000 N 
ATOM      2  C   UNL     1       2.097   5.146  19.869  0.00  0.00    +0.000 C 
ATOM      3  O   UNL     1       1.991   5.222  18.650  0.00  0.00    +0.000 OA
ATOM      4  H   UNL     1       2.835   4.083  21.508  0.00  0.00    +0.000 HD
ENDROOT
BRANCH   1   6
ATOM      5  C   UNL     1       2.306   2.180  19.061  0.00  0.00    +0.000 C 
ATOM      6  C   UNL     1       3.373   3.029  19.743  0.00  0.00    +0.000 C 
BRANCH   6   7
ATOM      7  C   UNL     1       4.321   3.609  18.672  0.00  0.00    +0.000 C 
ATOM      8  O   UNL     1       4.359   3.161  17.528  0.00  0.00    +0.000 OA
ATOM      9  N   UNL     1       5.161   4.617  19.110  0.00  0.00    +0.000 N 
ATOM     10  H   UNL     1       5.039   5.013  20.036  0.00  0.00    +0.000 HD
BRANCH   9  11
ATOM     11  C   UNL     1       6.153   5.239  18.224  0.00  0.00    +0.000 C 
BRANCH  11  12
ATOM     12  C   UNL     1       7.312   5.826  19.060  0.00  0.00    +0.000 C 
ATOM     13  N   UNL     1       8.030   6.832  18.480  0.00  0.00    +0.000 N 
ATOM     14  O   UNL     1       7.574   5.439  20.194  0.00  0.00    +0.000 OA
ATOM     15  H   UNL     1       7.727   7.309  17.634  0.00  0.00    +0.000 HD
ATOM     16  H   UNL     1       8.730   7.294  19.046  0.00  0.00    +0.000 HD
ENDBRANCH  11  12
BRANCH  11  17
ATOM     17  C   UNL     1       5.515   6.361  17.383  0.00  0.00    +0.000 C 
BRANCH  17  18
ATOM     18  C   UNL     1       5.410   6.034  15.894  0.00  0.00    +0.000 C 
BRANCH  18  19
ATOM     19  C   UNL     1       6.532   5.156  15.403  0.00  0.00    +0.000 C 
ATOM     20  O   UNL     1       7.690   5.530  15.315  0.00  0.00    +0.000 OA
BRANCH  19  21
ATOM     21  O   UNL     1       6.137   3.900  15.102  0.00  0.00    +0.000 OA
ATOM     22  H   UNL     1       5.645   3.828  14.260  0.00  0.00    +0.000 HD
ENDBRANCH  19  21
ENDBRANCH  18  19
ENDBRANCH  17  18
ENDBRANCH  11  17
ENDBRANCH   9  11
ENDBRANCH   6   7
ENDBRANCH   1   6
BRANCH   2  23
ATOM     23  C   UNL     1       1.539   6.212  20.788  0.00  0.00    +0.000 C 
BRANCH  23  24
ATOM     24  C   UNL     1       1.907   7.620  20.325  0.00  0.00    +0.000 C 
BRANCH  24  25
ATOM     25  C   UNL     1       0.706   8.574  20.327  0.00  0.00    +0.000 C 
BRANCH  25  26
ATOM     26  C   UNL     1       1.143  10.014  20.566  0.00  0.00    +0.000 C 
BRANCH  26  27
ATOM     27  N   UNL     1       0.020  10.817  21.042  0.00  0.00    +0.000 N 
ATOM     28  C   UNL     1      -0.494  10.827  22.354  0.00  0.00    +0.000 C 
ATOM     29  O   UNL     1      -0.047  10.202  23.299  0.00  0.00    +0.000 OA
ATOM     30  C   UNL     1      -1.687  11.690  22.401  0.00  0.00    +0.000 A 
ATOM     31  C   UNL     1      -2.447  11.966  23.525  0.00  0.00    +0.000 A 
ATOM     32  C   UNL     1      -3.564  12.795  23.375  0.00  0.00    +0.000 A 
ATOM     33  C   UNL     1      -3.900  13.326  22.115  0.00  0.00    +0.000 A 
ATOM     34  C   UNL     1      -3.124  13.044  20.988  0.00  0.00    +0.000 A 
ATOM     35  C   UNL     1      -2.025  12.224  21.165  0.00  0.00    +0.000 A 
ATOM     36  S   UNL     1      -0.898  11.702  19.949  0.00  0.00    +0.000 S 
ATOM     37  O   UNL     1      -0.138  12.847  19.496  0.00  0.00    +0.000 OA
ATOM     38  O   UNL     1      -1.578  10.794  19.056  0.00  0.00    +0.000 OA
ENDBRANCH  26  27
ENDBRANCH  25  26
ENDBRANCH  24  25
ENDBRANCH  23  24
ENDBRANCH   2  23
TORSDOF 13
ENDMDL
MODEL 6
REMARK VINA RESULT:      -7.5      2.107      2.282
REMARK  Name = 
REMARK  14 active torsions:
REMARK  status: ('A' for Active; 'I' for Inactive)
REMARK    1  A    between atoms: C_1  and  C_2
REMARK    2  A    between atoms: C_2  and  N_3
REMARK    3  A    between atoms: C_2  and  C_22
REMARK    4  A    between atoms: C_4  and  C_6
REMARK    5  A    between atoms: C_6  and  C_7
REMARK    6  A    between atoms: C_7  and  C_8
REMARK    7  A    between atoms: C_8  and  C_9
REMARK    8  A    between atoms: C_9  and  N_10
REMARK    9  A    between atoms: N_24  and  C_25
REMARK   10  A    between atoms: C_25  and  C_26
REMARK   11  A    between atoms: C_25  and  C_31
REMARK   12  A    between atoms: C_26  and  C_27
REMARK   13  A    between atoms: C_27  and  C_28
REMARK   14  A    between atoms: C_28  and  O_30
REMARK                            x       y       z     vdW  Elec       q    Type
REMARK                         _______ _______ _______ _____ _____    ______ ____
ROOT
ATOM      1  N   UNL     1       2.946   5.740  19.071  0.00  0.00    +0.000 N 
ATOM      2  C   UNL     1       2.147   6.256  20.062  0.00  0.00    +0.000 C 
ATOM      3  O   UNL     1       1.564   5.557  20.883  0.00  0.00    +0.000 OA
ATOM      4  H   UNL     1       3.415   6.340  18.406  0.00  0.00    +0.000 HD
ENDROOT
BRANCH   1   6
ATOM      5  C   UNL     1       2.509   3.753  17.689  0.00  0.00    +0.000 C 
ATOM      6  C   UNL     1       3.173   4.300  18.948  0.00  0.00    +0.000 C 
BRANCH   6   7
ATOM      7  C   UNL     1       4.688   4.018  18.886  0.00  0.00    +0.000 C 
ATOM      8  O   UNL     1       5.220   3.165  19.593  0.00  0.00    +0.000 OA
ATOM      9  N   UNL     1       5.407   4.833  18.029  0.00  0.00    +0.000 N 
ATOM     10  H   UNL     1       4.920   5.466  17.404  0.00  0.00    +0.000 HD
BRANCH   9  11
ATOM     11  C   UNL     1       6.865   4.722  17.893  0.00  0.00    +0.000 C 
BRANCH  11  12
ATOM     12  C   UNL     1       7.557   5.828  18.718  0.00  0.00    +0.000 C 
ATOM     13  N   UNL     1       7.938   5.492  19.986  0.00  0.00    +0.000 N 
ATOM     14  O   UNL     1       7.784   6.947  18.270  0.00  0.00    +0.000 OA
ATOM     15  H   UNL     1       7.947   4.532  20.323  0.00  0.00    +0.000 HD
ATOM     16  H   UNL     1       8.479   6.170  20.507  0.00  0.00    +0.000 HD
ENDBRANCH  11  12
BRANCH  11  17
ATOM     17  C   UNL     1       7.291   4.844  16.418  0.00  0.00    +0.000 C 
BRANCH  17  18
ATOM     18  C   UNL     1       6.422   4.039  15.454  0.00  0.00    +0.000 C 
BRANCH  18  19
ATOM     19  C   UNL     1       6.737   4.315  14.006  0.00  0.00    +0.000 C 
ATOM     20  O   UNL     1       7.432   5.245  13.633  0.00  0.00    +0.000 OA
BRANCH  19  21
ATOM     21  O   UNL     1       6.203   3.407  13.160  0.00  0.00    +0.000 OA
ATOM     22  H   UNL     1       5.517   3.771  12.565  0.00  0.00    +0.000 HD
ENDBRANCH  19  21
ENDBRANCH  18  19
ENDBRANCH  17  18
ENDBRANCH  11  17
ENDBRANCH   9  11
ENDBRANCH   6   7
ENDBRANCH   1   6
BRANCH   2  23
ATOM     23  C   UNL     1       1.994   7.762  20.045  0.00  0.00    +0.000 C 
BRANCH  23  24
ATOM     24  C   UNL     1       1.225   8.277  21.260  0.00  0.00    +0.000 C 
BRANCH  24  25
ATOM     25  C   UNL     1       0.187   9.344  20.894  0.00  0.00    +0.000 C 
BRANCH  25  26
ATOM     26  C   UNL     1       0.830  10.513  20.158  0.00  0.00    +0.000 C 
BRANCH  26  27
ATOM     27  N   UNL     1       0.528  11.772  20.835  0.00  0.00    +0.000 N 
ATOM     28  C   UNL     1       1.292  12.955  20.765  0.00  0.00    +0.000 C 
ATOM     29  O   UNL     1       2.293  13.117  20.091  0.00  0.00    +0.000 OA
ATOM     30  C   UNL     1       0.708  13.962  21.667  0.00  0.00    +0.000 A 
ATOM     31  C   UNL     1       1.169  15.256  21.848  0.00  0.00    +0.000 A 
ATOM     32  C   UNL     1       0.498  16.068  22.767  0.00  0.00    +0.000 A 
ATOM     33  C   UNL     1      -0.611  15.580  23.484  0.00  0.00    +0.000 A 
ATOM     34  C   UNL     1      -1.070  14.274  23.291  0.00  0.00    +0.000 A 
ATOM     35  C   UNL     1      -0.389  13.493  22.375  0.00  0.00    +0.000 A 
ATOM     36  S   UNL     1      -0.729  11.843  21.945  0.00  0.00    +0.000 S 
ATOM     37  O   UNL     1      -1.995  11.796  21.245  0.00  0.00    +0.000 OA
ATOM     38  O   UNL     1      -0.413  11.002  23.075  0.00  0.00    +0.000 OA
ENDBRANCH  26  27
ENDBRANCH  25  26
ENDBRANCH  24  25
ENDBRANCH  23  24
ENDBRANCH   2  23
TORSDOF 13
ENDMDL
MODEL 7
REMARK VINA RESULT:      -7.5      2.009      2.903
REMARK  Name = 
REMARK  14 active torsions:
REMARK  status: ('A' for Active; 'I' for Inactive)
REMARK    1  A    between atoms: C_1  and  C_2
REMARK    2  A    between atoms: C_2  and  N_3
REMARK    3  A    between atoms: C_2  and  C_22
REMARK    4  A    between atoms: C_4  and  C_6
REMARK    5  A    between atoms: C_6  and  C_7
REMARK    6  A    between atoms: C_7  and  C_8
REMARK    7  A    between atoms: C_8  and  C_9
REMARK    8  A    between atoms: C_9  and  N_10
REMARK    9  A    between atoms: N_24  and  C_25
REMARK   10  A    between atoms: C_25  and  C_26
REMARK   11  A    between atoms: C_25  and  C_31
REMARK   12  A    between atoms: C_26  and  C_27
REMARK   13  A    between atoms: C_27  and  C_28
REMARK   14  A    between atoms: C_28  and  O_30
REMARK                            x       y       z     vdW  Elec       q    Type
REMARK                         _______ _______ _______ _____ _____    ______ ____
ROOT
ATOM      1  N   UNL     1       3.315   4.510  19.754  0.00  0.00    +0.000 N 
ATOM      2  C   UNL     1       2.387   4.473  20.768  0.00  0.00    +0.000 C 
ATOM      3  O   UNL     1       2.404   3.630  21.659  0.00  0.00    +0.000 OA
ATOM      4  H   UNL     1       3.278   5.215  19.032  0.00  0.00    +0.000 HD
ENDROOT
BRANCH   1   6
ATOM      5  C   UNL     1       3.931   2.216  19.111  0.00  0.00    +0.000 C 
ATOM      6  C   UNL     1       4.411   3.543  19.690  0.00  0.00    +0.000 C 
BRANCH   6   7
ATOM      7  C   UNL     1       5.543   4.103  18.803  0.00  0.00    +0.000 C 
ATOM      8  O   UNL     1       6.535   4.649  19.284  0.00  0.00    +0.000 OA
ATOM      9  N   UNL     1       5.332   4.003  17.439  0.00  0.00    +0.000 N 
ATOM     10  H   UNL     1       4.543   3.472  17.087  0.00  0.00    +0.000 HD
BRANCH   9  11
ATOM     11  C   UNL     1       6.293   4.531  16.464  0.00  0.00    +0.000 C 
BRANCH  11  12
ATOM     12  C   UNL     1       6.130   6.061  16.338  0.00  0.00    +0.000 C 
ATOM     13  N   UNL     1       7.096   6.826  16.929  0.00  0.00    +0.000 N 
ATOM     14  O   UNL     1       5.204   6.582  15.725  0.00  0.00    +0.000 OA
ATOM     15  H   UNL     1       7.971   6.439  17.273  0.00  0.00    +0.000 HD
ATOM     16  H   UNL     1       7.059   7.826  16.777  0.00  0.00    +0.000 HD
ENDBRANCH  11  12
BRANCH  11  17
ATOM     17  C   UNL     1       6.090   3.882  15.082  0.00  0.00    +0.000 C 
BRANCH  17  18
ATOM     18  C   UNL     1       6.953   4.492  13.979  0.00  0.00    +0.000 C 
BRANCH  18  19
ATOM     19  C   UNL     1       6.597   3.987  12.605  0.00  0.00    +0.000 C 
ATOM     20  O   UNL     1       5.610   3.309  12.371  0.00  0.00    +0.000 OA
BRANCH  19  21
ATOM     21  O   UNL     1       7.460   4.388  11.646  0.00  0.00    +0.000 OA
ATOM     22  H   UNL     1       7.107   5.085  11.058  0.00  0.00    +0.000 HD
ENDBRANCH  19  21
ENDBRANCH  18  19
ENDBRANCH  17  18
ENDBRANCH  11  17
ENDBRANCH   9  11
ENDBRANCH   6   7
ENDBRANCH   1   6
BRANCH   2  23
ATOM     23  C   UNL     1       1.303   5.525  20.684  0.00  0.00    +0.000 C 
BRANCH  23  24
ATOM     24  C   UNL     1       1.875   6.924  20.463  0.00  0.00    +0.000 C 
BRANCH  24  25
ATOM     25  C   UNL     1       1.058   8.014  21.169  0.00  0.00    +0.000 C 
BRANCH  25  26
ATOM     26  C   UNL     1       1.367   9.393  20.600  0.00  0.00    +0.000 C 
BRANCH  26  27
ATOM     27  N   UNL     1       0.309  10.338  20.948  0.00  0.00    +0.000 N 
ATOM     28  C   UNL     1      -0.186  10.588  22.244  0.00  0.00    +0.000 C 
ATOM     29  O   UNL     1       0.230  10.087  23.274  0.00  0.00    +0.000 OA
ATOM     30  C   UNL     1      -1.315  11.530  22.159  0.00  0.00    +0.000 A 
ATOM     31  C   UNL     1      -2.039  12.031  23.229  0.00  0.00    +0.000 A 
ATOM     32  C   UNL     1      -3.097  12.903  22.953  0.00  0.00    +0.000 A 
ATOM     33  C   UNL     1      -3.412  13.255  21.627  0.00  0.00    +0.000 A 
ATOM     34  C   UNL     1      -2.673  12.747  20.556  0.00  0.00    +0.000 A 
ATOM     35  C   UNL     1      -1.631  11.889  20.856  0.00  0.00    +0.000 A 
ATOM     36  S   UNL     1      -0.559  11.105  19.734  0.00  0.00    +0.000 S 
ATOM     37  O   UNL     1       0.272  12.110  19.106  0.00  0.00    +0.000 OA
ATOM     38  O   UNL     1      -1.314  10.121  18.994  0.00  0.00    +0.000 OA
ENDBRANCH  26  27
ENDBRANCH  25  26
ENDBRANCH  24  25
ENDBRANCH  23  24
ENDBRANCH   2  23
TORSDOF 13
ENDMDL
MODEL 8
REMARK VINA RESULT:      -7.5      2.973      4.059
REMARK  Name = 
REMARK  14 active torsions:
REMARK  status: ('A' for Active; 'I' for Inactive)
REMARK    1  A    between atoms: C_1  and  C_2
REMARK    2  A    between atoms: C_2  and  N_3
REMARK    3  A    between atoms: C_2  and  C_22
REMARK    4  A    between atoms: C_4  and  C_6
REMARK    5  A    between atoms: C_6  and  C_7
REMARK    6  A    between atoms: C_7  and  C_8
REMARK    7  A    between atoms: C_8  and  C_9
REMARK    8  A    between atoms: C_9  and  N_10
REMARK    9  A    between atoms: N_24  and  C_25
REMARK   10  A    between atoms: C_25  and  C_26
REMARK   11  A    between atoms: C_25  and  C_31
REMARK   12  A    between atoms: C_26  and  C_27
REMARK   13  A    between atoms: C_27  and  C_28
REMARK   14  A    between atoms: C_28  and  O_30
REMARK                            x       y       z     vdW  Elec       q    Type
REMARK                         _______ _______ _______ _____ _____    ______ ____
ROOT
ATOM      1  N   UNL     1       1.920   7.673  19.335  0.00  0.00    +0.000 N 
ATOM      2  C   UNL     1       2.406   8.390  18.267  0.00  0.00    +0.000 C 
ATOM      3  O   UNL     1       3.334   7.999  17.567  0.00  0.00    +0.000 OA
ATOM      4  H   UNL     1       1.154   8.019  19.896  0.00  0.00    +0.000 HD
ENDROOT
BRANCH   1   6
ATOM      5  C   UNL     1       1.707   5.751  20.856  0.00  0.00    +0.000 C 
ATOM      6  C   UNL     1       2.475   6.367  19.691  0.00  0.00    +0.000 C 
BRANCH   6   7
ATOM      7  C   UNL     1       2.395   5.421  18.474  0.00  0.00    +0.000 C 
ATOM      8  O   UNL     1       1.339   5.217  17.879  0.00  0.00    +0.000 OA
ATOM      9  N   UNL     1       3.576   4.779  18.145  0.00  0.00    +0.000 N 
ATOM     10  H   UNL     1       4.440   5.039  18.608  0.00  0.00    +0.000 HD
BRANCH   9  11
ATOM     11  C   UNL     1       3.653   3.813  17.043  0.00  0.00    +0.000 C 
BRANCH  11  12
ATOM     12  C   UNL     1       3.222   2.415  17.535  0.00  0.00    +0.000 C 
ATOM     13  N   UNL     1       4.196   1.645  18.106  0.00  0.00    +0.000 N 
ATOM     14  O   UNL     1       2.068   2.007  17.451  0.00  0.00    +0.000 OA
ATOM     15  H   UNL     1       5.106   2.014  18.370  0.00  0.00    +0.000 HD
ATOM     16  H   UNL     1       3.915   0.766  18.521  0.00  0.00    +0.000 HD
ENDBRANCH  11  12
BRANCH  11  17
ATOM     17  C   UNL     1       5.083   3.735  16.477  0.00  0.00    +0.000 C 
BRANCH  17  18
ATOM     18  C   UNL     1       5.518   4.987  15.718  0.00  0.00    +0.000 C 
BRANCH  18  19
ATOM     19  C   UNL     1       6.456   5.861  16.509  0.00  0.00    +0.000 C 
ATOM     20  O   UNL     1       6.233   6.229  17.650  0.00  0.00    +0.000 OA
BRANCH  19  21
ATOM     21  O   UNL     1       7.591   6.169  15.843  0.00  0.00    +0.000 OA
ATOM     22  H   UNL     1       8.381   5.684  16.156  0.00  0.00    +0.000 HD
ENDBRANCH  19  21
ENDBRANCH  18  19
ENDBRANCH  17  18
ENDBRANCH  11  17
ENDBRANCH   9  11
ENDBRANCH   6   7
ENDBRANCH   1   6
BRANCH   2  23
ATOM     23  C   UNL     1       1.743   9.731  18.040  0.00  0.00    +0.000 C 
BRANCH  23  24
ATOM     24  C   UNL     1       0.223   9.614  17.947  0.00  0.00    +0.000 C 
BRANCH  24  25
ATOM     25  C   UNL     1      -0.502  10.594  18.876  0.00  0.00    +0.000 C 
BRANCH  25  26
ATOM     26  C   UNL     1      -1.203  11.692  18.085  0.00  0.00    +0.000 C 
BRANCH  26  27
ATOM     27  N   UNL     1      -2.620  11.747  18.432  0.00  0.00    +0.000 N 
ATOM     28  C   UNL     1      -3.174  12.379  19.564  0.00  0.00    +0.000 C 
ATOM     29  O   UNL     1      -2.554  13.017  20.397  0.00  0.00    +0.000 OA
ATOM     30  C   UNL     1      -4.623  12.121  19.604  0.00  0.00    +0.000 A 
ATOM     31  C   UNL     1      -5.508  12.601  20.555  0.00  0.00    +0.000 A 
ATOM     32  C   UNL     1      -6.853  12.233  20.444  0.00  0.00    +0.000 A 
ATOM     33  C   UNL     1      -7.286  11.397  19.397  0.00  0.00    +0.000 A 
ATOM     34  C   UNL     1      -6.384  10.922  18.441  0.00  0.00    +0.000 A 
ATOM     35  C   UNL     1      -5.062  11.303  18.573  0.00  0.00    +0.000 A 
ATOM     36  S   UNL     1      -3.733  10.856  17.544  0.00  0.00    +0.000 S 
ATOM     37  O   UNL     1      -3.920  11.472  16.248  0.00  0.00    +0.000 OA
ATOM     38  O   UNL     1      -3.468   9.448  17.726  0.00  0.00    +0.000 OA
ENDBRANCH  26  27
ENDBRANCH  25  26
ENDBRANCH  24  25
ENDBRANCH  23  24
ENDBRANCH   2  23
TORSDOF 13
ENDMDL
MODEL 9
REMARK VINA RESULT:      -7.5      3.298     10.529
REMARK  Name = 
REMARK  14 active torsions:
REMARK  status: ('A' for Active; 'I' for Inactive)
REMARK    1  A    between atoms: C_1  and  C_2
REMARK    2  A    between atoms: C_2  and  N_3
REMARK    3  A    between atoms: C_2  and  C_22
REMARK    4  A    between atoms: C_4  and  C_6
REMARK    5  A    between atoms: C_6  and  C_7
REMARK    6  A    between atoms: C_7  and  C_8
REMARK    7  A    between atoms: C_8  and  C_9
REMARK    8  A    between atoms: C_9  and  N_10
REMARK    9  A    between atoms: N_24  and  C_25
REMARK   10  A    between atoms: C_25  and  C_26
REMARK   11  A    between atoms: C_25  and  C_31
REMARK   12  A    between atoms: C_26  and  C_27
REMARK   13  A    between atoms: C_27  and  C_28
REMARK   14  A    between atoms: C_28  and  O_30
REMARK                            x       y       z     vdW  Elec       q    Type
REMARK                         _______ _______ _______ _____ _____    ______ ____
ROOT
ATOM      1  N   UNL     1      -1.193  10.263  17.461  0.00  0.00    +0.000 N 
ATOM      2  C   UNL     1      -0.397  10.831  18.426  0.00  0.00    +0.000 C 
ATOM      3  O   UNL     1      -0.537  11.987  18.812  0.00  0.00    +0.000 OA
ATOM      4  H   UNL     1      -1.056   9.307  17.161  0.00  0.00    +0.000 HD
ENDROOT
BRANCH   1   6
ATOM      5  C   UNL     1      -2.647  10.418  15.482  0.00  0.00    +0.000 C 
ATOM      6  C   UNL     1      -2.291  11.007  16.842  0.00  0.00    +0.000 C 
BRANCH   6   7
ATOM      7  C   UNL     1      -3.531  10.957  17.758  0.00  0.00    +0.000 C 
ATOM      8  O   UNL     1      -4.263   9.970  17.807  0.00  0.00    +0.000 OA
ATOM      9  N   UNL     1      -3.792  12.117  18.466  0.00  0.00    +0.000 N 
ATOM     10  H   UNL     1      -3.118  12.875  18.462  0.00  0.00    +0.000 HD
BRANCH   9  11
ATOM     11  C   UNL     1      -4.961  12.243  19.345  0.00  0.00    +0.000 C 
BRANCH  11  12
ATOM     12  C   UNL     1      -6.213  12.590  18.510  0.00  0.00    +0.000 C 
ATOM     13  N   UNL     1      -6.142  13.724  17.752  0.00  0.00    +0.000 N 
ATOM     14  O   UNL     1      -7.217  11.886  18.496  0.00  0.00    +0.000 OA
ATOM     15  H   UNL     1      -5.271  14.222  17.585  0.00  0.00    +0.000 HD
ATOM     16  H   UNL     1      -6.913  13.917  17.125  0.00  0.00    +0.000 HD
ENDBRANCH  11  12
BRANCH  11  17
ATOM     17  C   UNL     1      -4.738  13.338  20.405  0.00  0.00    +0.000 C 
BRANCH  17  18
ATOM     18  C   UNL     1      -4.305  12.800  21.768  0.00  0.00    +0.000 C 
BRANCH  18  19
ATOM     19  C   UNL     1      -2.823  12.932  22.010  0.00  0.00    +0.000 C 
ATOM     20  O   UNL     1      -2.341  13.667  22.855  0.00  0.00    +0.000 OA
BRANCH  19  21
ATOM     21  O   UNL     1      -2.078  12.125  21.222  0.00  0.00    +0.000 OA
ATOM     22  H   UNL     1      -2.363  12.108  20.287  0.00  0.00    +0.000 HD
ENDBRANCH  19  21
ENDBRANCH  18  19
ENDBRANCH  17  18
ENDBRANCH  11  17
ENDBRANCH   9  11
ENDBRANCH   6   7
ENDBRANCH   1   6
BRANCH   2  23
ATOM     23  C   UNL     1       0.708   9.941  18.953  0.00  0.00    +0.000 C 
BRANCH  23  24
ATOM     24  C   UNL     1       1.816   9.730  17.924  0.00  0.00    +0.000 C 
BRANCH  24  25
ATOM     25  C   UNL     1       2.025   8.250  17.577  0.00  0.00    +0.000 C 
BRANCH  25  26
ATOM     26  C   UNL     1       3.391   7.759  18.040  0.00  0.00    +0.000 C 
BRANCH  26  27
ATOM     27  N   UNL     1       3.270   6.467  18.708  0.00  0.00    +0.000 N 
ATOM     28  C   UNL     1       2.461   6.185  19.828  0.00  0.00    +0.000 C 
ATOM     29  O   UNL     1       1.705   6.968  20.376  0.00  0.00    +0.000 OA
ATOM     30  C   UNL     1       2.697   4.797  20.260  0.00  0.00    +0.000 A 
ATOM     31  C   UNL     1       2.063   4.153  21.311  0.00  0.00    +0.000 A 
ATOM     32  C   UNL     1       2.433   2.834  21.589  0.00  0.00    +0.000 A 
ATOM     33  C   UNL     1       3.420   2.186  20.822  0.00  0.00    +0.000 A 
ATOM     34  C   UNL     1       4.049   2.843  19.761  0.00  0.00    +0.000 A 
ATOM     35  C   UNL     1       3.663   4.146  19.507  0.00  0.00    +0.000 A 
ATOM     36  S   UNL     1       4.279   5.200  18.268  0.00  0.00    +0.000 S 
ATOM     37  O   UNL     1       3.874   4.686  16.977  0.00  0.00    +0.000 OA
ATOM     38  O   UNL     1       5.643   5.542  18.597  0.00  0.00    +0.000 OA
ENDBRANCH  26  27
ENDBRANCH  25  26
ENDBRANCH  24  25
ENDBRANCH  23  24
ENDBRANCH   2  23
TORSDOF 13
ENDMDL
