MODEL 1
REMARK VINA RESULT:      -7.0      0.000      0.000
REMARK  Name = 
REMARK  4 active torsions:
REMARK  status: ('A' for Active; 'I' for Inactive)
REMARK    1  A    between atoms: C_1  and  N_2
REMARK    2  A    between atoms: N_5  and  C_6
REMARK    3  A    between atoms: C_6  and  C_7
REMARK    4  A    between atoms: N_16  and  C_17
REMARK                            x       y       z     vdW  Elec       q    Type
REMARK                         _______ _______ _______ _____ _____    ______ ____
ROOT
ATOM      1  C   UNL     1       2.015   0.956  19.735  0.00  0.00    +0.000 C 
ATOM      2  N   UNL     1       2.218   2.346  19.385  0.00  0.00    +0.000 N 
ATOM      3  C   UNL     1       1.068   3.236  19.294  0.00  0.00    +0.000 C 
ATOM      4  C   UNL     1       1.373   4.563  18.563  0.00  0.00    +0.000 C 
ATOM      5  N   UNL     1       2.637   5.194  19.018  0.00  0.00    +0.000 NA
ATOM      6  C   UNL     1       3.777   4.183  18.892  0.00  0.00    +0.000 C 
ATOM      7  C   UNL     1       5.174   4.723  19.264  0.00  0.00    +0.000 C 
ATOM      8  C   UNL     1       6.067   4.523  18.032  0.00  0.00    +0.000 C 
ATOM      9  N   UNL     1       5.240   4.101  16.896  0.00  0.00    +0.000 NA
ATOM     10  C   UNL     1       4.033   3.541  17.489  0.00  0.00    +0.000 C 
ATOM     11  C   UNL     1       3.437   2.927  19.757  0.00  0.00    +0.000 C 
ATOM     12  O   UNL     1       4.218   2.386  20.533  0.00  0.00    +0.000 OA
ENDROOT
BRANCH   9  13
ATOM     13  C   UNL     1       5.113   5.065  15.792  0.00  0.00    +0.000 C 
ATOM     14  C   UNL     1       5.908   6.346  16.124  0.00  0.00    +0.000 C 
ATOM     15  C   UNL     1       7.415   6.125  16.014  0.00  0.00    +0.000 C 
ATOM     16  O   UNL     1       7.774   5.654  14.714  0.00  0.00    +0.000 OA
ATOM     17  C   UNL     1       7.144   4.410  14.409  0.00  0.00    +0.000 C 
ATOM     18  C   UNL     1       5.630   4.581  14.416  0.00  0.00    +0.000 C 
ENDBRANCH   9  13
BRANCH   5  19
ATOM     19  C   UNL     1       2.916   6.448  18.284  0.00  0.00    +0.000 C 
BRANCH  19  20
ATOM     20  C   UNL     1       2.252   7.750  18.690  0.00  0.00    +0.000 A 
ATOM     21  C   UNL     1       1.885   8.792  17.836  0.00  0.00    +0.000 A 
ATOM     22  C   UNL     1       1.202   9.900  18.347  0.00  0.00    +0.000 A 
ATOM     23  C   UNL     1       0.879   9.925  19.695  0.00  0.00    +0.000 A 
ATOM     24  N   UNL     1       1.190   8.933  20.550  0.00  0.00    +0.000 NA
ATOM     25  C   UNL     1       1.853   7.876  20.026  0.00  0.00    +0.000 A 
ENDBRANCH  19  20
ENDBRANCH   5  19
TORSDOF 3
ENDMDL
MODEL 2
REMARK VINA RESULT:      -6.7      8.254     11.086
REMARK  Name = 
REMARK  4 active torsions:
REMARK  status: ('A' for Active; 'I' for Inactive)
REMARK    1  A    between atoms: C_1  and  N_2
REMARK    2  A    between atoms: N_5  and  C_6
REMARK    3  A    between atoms: C_6  and  C_7
REMARK    4  A    between atoms: N_16  and  C_17
REMARK                            x       y       z     vdW  Elec       q    Type
REMARK                         _______ _______ _______ _____ _____    ______ ____
ROOT
ATOM      1  C   UNL     1       2.495  15.118  20.318  0.00  0.00    +0.000 C 
ATOM      2  N   UNL     1       1.411  14.210  20.010  0.00  0.00    +0.000 N 
ATOM      3  C   UNL     1       0.786  14.263  18.695  0.00  0.00    +0.000 C 
ATOM      4  C   UNL     1      -0.569  13.523  18.628  0.00  0.00    +0.000 C 
ATOM      5  N   UNL     1      -0.524  12.182  19.262  0.00  0.00    +0.000 NA
ATOM      6  C   UNL     1      -0.006  12.321  20.694  0.00  0.00    +0.000 C 
ATOM      7  C   UNL     1       0.027  11.010  21.508  0.00  0.00    +0.000 C 
ATOM      8  C   UNL     1      -0.833  11.244  22.758  0.00  0.00    +0.000 C 
ATOM      9  N   UNL     1      -1.540  12.523  22.629  0.00  0.00    +0.000 NA
ATOM     10  C   UNL     1      -0.769  13.289  21.657  0.00  0.00    +0.000 C 
ATOM     11  C   UNL     1       1.416  12.968  20.657  0.00  0.00    +0.000 C 
ATOM     12  O   UNL     1       2.384  12.550  21.282  0.00  0.00    +0.000 OA
ENDROOT
BRANCH   9  13
ATOM     13  C   UNL     1      -3.001  12.445  22.480  0.00  0.00    +0.000 C 
ATOM     14  C   UNL     1      -3.664  12.375  23.872  0.00  0.00    +0.000 C 
ATOM     15  C   UNL     1      -3.614  13.720  24.595  0.00  0.00    +0.000 C 
ATOM     16  O   UNL     1      -4.229  14.747  23.816  0.00  0.00    +0.000 OA
ATOM     17  C   UNL     1      -3.575  14.922  22.559  0.00  0.00    +0.000 C 
ATOM     18  C   UNL     1      -3.664  13.636  21.746  0.00  0.00    +0.000 C 
ENDBRANCH   9  13
BRANCH   5  19
ATOM     19  C   UNL     1      -1.840  11.507  19.205  0.00  0.00    +0.000 C 
BRANCH  19  20
ATOM     20  C   UNL     1      -2.454  11.112  17.876  0.00  0.00    +0.000 A 
ATOM     21  C   UNL     1      -1.933  10.190  16.967  0.00  0.00    +0.000 A 
ATOM     22  C   UNL     1      -2.658   9.865  15.815  0.00  0.00    +0.000 A 
ATOM     23  C   UNL     1      -3.899  10.451  15.617  0.00  0.00    +0.000 A 
ATOM     24  N   UNL     1      -4.452  11.325  16.479  0.00  0.00    +0.000 NA
ATOM     25  C   UNL     1      -3.725  11.621  17.581  0.00  0.00    +0.000 A 
ENDBRANCH  19  20
ENDBRANCH   5  19
TORSDOF 3
ENDMDL
MODEL 3
REMARK VINA RESULT:      -6.6      5.296      9.680
REMARK  Name = 
REMARK  4 active torsions:
REMARK  status: ('A' for Active; 'I' for Inactive)
REMARK    1  A    between atoms: C_1  and  N_2
REMARK    2  A    between atoms: N_5  and  C_6
REMARK    3  A    between atoms: C_6  and  C_7
REMARK    4  A    between atoms: N_16  and  C_17
REMARK                            x       y       z     vdW  Elec       q    Type
REMARK                         _______ _______ _______ _____ _____    ______ ____
ROOT
ATOM      1  C   UNL     1       1.500  15.757  18.632  0.00  0.00    +0.000 C 
ATOM      2  N   UNL     1       1.212  14.415  19.091  0.00  0.00    +0.000 N 
ATOM      3  C   UNL     1       2.294  13.444  19.186  0.00  0.00    +0.000 C 
ATOM      4  C   UNL     1       1.801  11.985  19.321  0.00  0.00    +0.000 C 
ATOM      5  N   UNL     1       0.717  11.835  20.323  0.00  0.00    +0.000 NA
ATOM      6  C   UNL     1      -0.417  12.804  19.984  0.00  0.00    +0.000 C 
ATOM      7  C   UNL     1      -1.654  12.710  20.903  0.00  0.00    +0.000 C 
ATOM      8  C   UNL     1      -2.855  12.409  19.996  0.00  0.00    +0.000 C 
ATOM      9  N   UNL     1      -2.378  12.109  18.642  0.00  0.00    +0.000 NA
ATOM     10  C   UNL     1      -1.055  12.714  18.559  0.00  0.00    +0.000 C 
ATOM     11  C   UNL     1       0.146  14.262  19.987  0.00  0.00    +0.000 C 
ATOM     12  O   UNL     1      -0.390  15.211  20.547  0.00  0.00    +0.000 OA
ENDROOT
BRANCH   9  13
ATOM     13  C   UNL     1      -2.560  10.724  18.181  0.00  0.00    +0.000 C 
ATOM     14  C   UNL     1      -4.066  10.395  18.097  0.00  0.00    +0.000 C 
ATOM     15  C   UNL     1      -4.734  11.083  16.908  0.00  0.00    +0.000 C 
ATOM     16  O   UNL     1      -4.091  10.732  15.682  0.00  0.00    +0.000 OA
ATOM     17  C   UNL     1      -2.717  11.119  15.673  0.00  0.00    +0.000 C 
ATOM     18  C   UNL     1      -1.969  10.397  16.788  0.00  0.00    +0.000 C 
ENDBRANCH   9  13
BRANCH   5  19
ATOM     19  C   UNL     1       0.248  10.434  20.413  0.00  0.00    +0.000 C 
BRANCH  19  20
ATOM     20  C   UNL     1       0.974   9.323  19.678  0.00  0.00    +0.000 A 
ATOM     21  C   UNL     1       1.272   9.292  18.315  0.00  0.00    +0.000 A 
ATOM     22  C   UNL     1       2.023   8.234  17.793  0.00  0.00    +0.000 A 
ATOM     23  C   UNL     1       2.481   7.248  18.654  0.00  0.00    +0.000 A 
ATOM     24  N   UNL     1       2.241   7.251  19.979  0.00  0.00    +0.000 NA
ATOM     25  C   UNL     1       1.509   8.286  20.452  0.00  0.00    +0.000 A 
ENDBRANCH  19  20
ENDBRANCH   5  19
TORSDOF 3
ENDMDL
MODEL 4
REMARK VINA RESULT:      -6.6      0.833      1.232
REMARK  Name = 
REMARK  4 active torsions:
REMARK  status: ('A' for Active; 'I' for Inactive)
REMARK    1  A    between atoms: C_1  and  N_2
REMARK    2  A    between atoms: N_5  and  C_6
REMARK    3  A    between atoms: C_6  and  C_7
REMARK    4  A    between atoms: N_16  and  C_17
REMARK                            x       y       z     vdW  Elec       q    Type
REMARK                         _______ _______ _______ _____ _____    ______ ____
ROOT
ATOM      1  C   UNL     1       2.149   1.053  19.135  0.00  0.00    +0.000 C 
ATOM      2  N   UNL     1       2.338   2.479  18.972  0.00  0.00    +0.000 N 
ATOM      3  C   UNL     1       1.178   3.334  18.758  0.00  0.00    +0.000 C 
ATOM      4  C   UNL     1       1.539   4.743  18.235  0.00  0.00    +0.000 C 
ATOM      5  N   UNL     1       2.663   5.362  18.981  0.00  0.00    +0.000 NA
ATOM      6  C   UNL     1       3.860   4.410  18.968  0.00  0.00    +0.000 C 
ATOM      7  C   UNL     1       5.135   4.953  19.648  0.00  0.00    +0.000 C 
ATOM      8  C   UNL     1       6.247   4.920  18.590  0.00  0.00    +0.000 C 
ATOM      9  N   UNL     1       5.665   4.598  17.283  0.00  0.00    +0.000 NA
ATOM     10  C   UNL     1       4.401   3.935  17.580  0.00  0.00    +0.000 C 
ATOM     11  C   UNL     1       3.436   3.056  19.622  0.00  0.00    +0.000 C 
ATOM     12  O   UNL     1       4.090   2.461  20.471  0.00  0.00    +0.000 OA
ENDROOT
BRANCH   9  13
ATOM     13  C   UNL     1       5.689   5.672  16.279  0.00  0.00    +0.000 C 
ATOM     14  C   UNL     1       7.149   5.982  15.882  0.00  0.00    +0.000 C 
ATOM     15  C   UNL     1       7.747   4.885  15.005  0.00  0.00    +0.000 C 
ATOM     16  O   UNL     1       6.959   4.676  13.832  0.00  0.00    +0.000 OA
ATOM     17  C   UNL     1       5.626   4.278  14.152  0.00  0.00    +0.000 C 
ATOM     18  C   UNL     1       4.938   5.373  14.958  0.00  0.00    +0.000 C 
ENDBRANCH   9  13
BRANCH   5  19
ATOM     19  C   UNL     1       3.004   6.698  18.443  0.00  0.00    +0.000 C 
BRANCH  19  20
ATOM     20  C   UNL     1       2.182   7.918  18.814  0.00  0.00    +0.000 A 
ATOM     21  C   UNL     1       1.606   8.180  20.058  0.00  0.00    +0.000 A 
ATOM     22  C   UNL     1       0.943   9.392  20.275  0.00  0.00    +0.000 A 
ATOM     23  C   UNL     1       0.898  10.324  19.249  0.00  0.00    +0.000 A 
ATOM     24  N   UNL     1       1.460  10.125  18.042  0.00  0.00    +0.000 NA
ATOM     25  C   UNL     1       2.091   8.942  17.862  0.00  0.00    +0.000 A 
ENDBRANCH  19  20
ENDBRANCH   5  19
TORSDOF 3
ENDMDL
MODEL 5
REMARK VINA RESULT:      -6.3      8.211     11.125
REMARK  Name = 
REMARK  4 active torsions:
REMARK  status: ('A' for Active; 'I' for Inactive)
REMARK    1  A    between atoms: C_1  and  N_2
REMARK    2  A    between atoms: N_5  and  C_6
REMARK    3  A    between atoms: C_6  and  C_7
REMARK    4  A    between atoms: N_16  and  C_17
REMARK                            x       y       z     vdW  Elec       q    Type
REMARK                         _______ _______ _______ _____ _____    ______ ____
ROOT
ATOM      1  C   UNL     1       2.711  14.804  19.876  0.00  0.00    +0.000 C 
ATOM      2  N   UNL     1       1.560  13.944  19.697  0.00  0.00    +0.000 N 
ATOM      3  C   UNL     1       0.963  13.815  18.374  0.00  0.00    +0.000 C 
ATOM      4  C   UNL     1      -0.447  13.184  18.394  0.00  0.00    +0.000 C 
ATOM      5  N   UNL     1      -0.524  11.975  19.253  0.00  0.00    +0.000 NA
ATOM      6  C   UNL     1      -0.020  12.322  20.654  0.00  0.00    +0.000 C 
ATOM      7  C   UNL     1      -0.110  11.175  21.684  0.00  0.00    +0.000 C 
ATOM      8  C   UNL     1      -0.968  11.692  22.847  0.00  0.00    +0.000 C 
ATOM      9  N   UNL     1      -1.563  12.980  22.476  0.00  0.00    +0.000 NA
ATOM     10  C   UNL     1      -0.716  13.501  21.411  0.00  0.00    +0.000 C 
ATOM     11  C   UNL     1       1.451  12.838  20.550  0.00  0.00    +0.000 C 
ATOM     12  O   UNL     1       2.371  12.461  21.267  0.00  0.00    +0.000 OA
ENDROOT
BRANCH   9  13
ATOM     13  C   UNL     1      -3.023  12.994  22.298  0.00  0.00    +0.000 C 
ATOM     14  C   UNL     1      -3.716  12.728  23.652  0.00  0.00    +0.000 C 
ATOM     15  C   UNL     1      -3.624  13.934  24.585  0.00  0.00    +0.000 C 
ATOM     16  O   UNL     1      -4.179  15.101  23.976  0.00  0.00    +0.000 OA
ATOM     17  C   UNL     1      -3.494  15.448  22.773  0.00  0.00    +0.000 C 
ATOM     18  C   UNL     1      -3.621  14.316  21.760  0.00  0.00    +0.000 C 
ENDBRANCH   9  13
BRANCH   5  19
ATOM     19  C   UNL     1      -1.891  11.407  19.273  0.00  0.00    +0.000 C 
BRANCH  19  20
ATOM     20  C   UNL     1      -2.596  11.032  17.984  0.00  0.00    +0.000 A 
ATOM     21  C   UNL     1      -3.815  11.539  17.531  0.00  0.00    +0.000 A 
ATOM     22  C   UNL     1      -4.302  11.159  16.276  0.00  0.00    +0.000 A 
ATOM     23  C   UNL     1      -3.542  10.303  15.494  0.00  0.00    +0.000 A 
ATOM     24  N   UNL     1      -2.349   9.811  15.878  0.00  0.00    +0.000 NA
ATOM     25  C   UNL     1      -1.907  10.194  17.098  0.00  0.00    +0.000 A 
ENDBRANCH  19  20
ENDBRANCH   5  19
TORSDOF 3
ENDMDL
MODEL 6
REMARK VINA RESULT:      -6.2      6.815      9.079
REMARK  Name = 
REMARK  4 active torsions:
REMARK  status: ('A' for Active; 'I' for Inactive)
REMARK    1  A    between atoms: C_1  and  N_2
REMARK    2  A    between atoms: N_5  and  C_6
REMARK    3  A    between atoms: C_6  and  C_7
REMARK    4  A    between atoms: N_16  and  C_17
REMARK                            x       y       z     vdW  Elec       q    Type
REMARK                         _______ _______ _______ _____ _____    ______ ____
ROOT
ATOM      1  C   UNL     1       1.619   9.140  22.778  0.00  0.00    +0.000 C 
ATOM      2  N   UNL     1       0.936   9.773  21.670  0.00  0.00    +0.000 N 
ATOM      3  C   UNL     1       0.706   9.018  20.446  0.00  0.00    +0.000 C 
ATOM      4  C   UNL     1       0.317   9.903  19.240  0.00  0.00    +0.000 C 
ATOM      5  N   UNL     1      -0.721  10.909  19.577  0.00  0.00    +0.000 NA
ATOM      6  C   UNL     1      -0.252  11.732  20.777  0.00  0.00    +0.000 C 
ATOM      7  C   UNL     1      -1.202  12.873  21.199  0.00  0.00    +0.000 C 
ATOM      8  C   UNL     1      -0.388  14.172  21.137  0.00  0.00    +0.000 C 
ATOM      9  N   UNL     1       0.909  13.903  20.505  0.00  0.00    +0.000 NA
ATOM     10  C   UNL     1       1.122  12.470  20.666  0.00  0.00    +0.000 C 
ATOM     11  C   UNL     1       0.002  10.770  21.982  0.00  0.00    +0.000 C 
ATOM     12  O   UNL     1      -0.404  10.964  23.122  0.00  0.00    +0.000 OA
ENDROOT
BRANCH   9  13
ATOM     13  C   UNL     1       1.127  14.513  19.185  0.00  0.00    +0.000 C 
ATOM     14  C   UNL     1       1.199  16.049  19.326  0.00  0.00    +0.000 C 
ATOM     15  C   UNL     1       2.510  16.501  19.966  0.00  0.00    +0.000 C 
ATOM     16  O   UNL     1       3.636  16.028  19.226  0.00  0.00    +0.000 OA
ATOM     17  C   UNL     1       3.669  14.602  19.164  0.00  0.00    +0.000 C 
ATOM     18  C   UNL     1       2.423  14.086  18.454  0.00  0.00    +0.000 C 
ENDBRANCH   9  13
BRANCH   5  19
ATOM     19  C   UNL     1      -1.055  11.758  18.411  0.00  0.00    +0.000 C 
BRANCH  19  20
ATOM     20  C   UNL     1      -2.379  11.598  17.687  0.00  0.00    +0.000 A 
ATOM     21  C   UNL     1      -2.563  11.061  16.412  0.00  0.00    +0.000 A 
ATOM     22  C   UNL     1      -3.858  10.901  15.908  0.00  0.00    +0.000 A 
ATOM     23  C   UNL     1      -4.936  11.255  16.704  0.00  0.00    +0.000 A 
ATOM     24  N   UNL     1      -4.807  11.752  17.949  0.00  0.00    +0.000 NA
ATOM     25  C   UNL     1      -3.542  11.898  18.407  0.00  0.00    +0.000 A 
ENDBRANCH  19  20
ENDBRANCH   5  19
TORSDOF 3
ENDMDL
MODEL 7
REMARK VINA RESULT:      -6.2      8.494     11.673
REMARK  Name = 
REMARK  4 active torsions:
REMARK  status: ('A' for Active; 'I' for Inactive)
REMARK    1  A    between atoms: C_1  and  N_2
REMARK    2  A    between atoms: N_5  and  C_6
REMARK    3  A    between atoms: C_6  and  C_7
REMARK    4  A    between atoms: N_16  and  C_17
REMARK                            x       y       z     vdW  Elec       q    Type
REMARK                         _______ _______ _______ _____ _____    ______ ____
ROOT
ATOM      1  C   UNL     1       1.728  15.979  20.011  0.00  0.00    +0.000 C 
ATOM      2  N   UNL     1       0.922  14.784  19.881  0.00  0.00    +0.000 N 
ATOM      3  C   UNL     1       0.826  14.122  18.587  0.00  0.00    +0.000 C 
ATOM      4  C   UNL     1      -0.335  13.106  18.499  0.00  0.00    +0.000 C 
ATOM      5  N   UNL     1      -0.408  12.212  19.682  0.00  0.00    +0.000 NA
ATOM      6  C   UNL     1      -0.472  13.063  20.951  0.00  0.00    +0.000 C 
ATOM      7  C   UNL     1      -0.625  12.268  22.265  0.00  0.00    +0.000 C 
ATOM      8  C   UNL     1      -1.904  12.777  22.944  0.00  0.00    +0.000 C 
ATOM      9  N   UNL     1      -2.624  13.661  22.021  0.00  0.00    +0.000 NA
ATOM     10  C   UNL     1      -1.621  14.118  21.067  0.00  0.00    +0.000 C 
ATOM     11  C   UNL     1       0.798  13.971  21.016  0.00  0.00    +0.000 C 
ATOM     12  O   UNL     1       1.499  14.113  22.011  0.00  0.00    +0.000 OA
ENDROOT
BRANCH   9  13
ATOM     13  C   UNL     1      -3.913  13.162  21.517  0.00  0.00    +0.000 C 
ATOM     14  C   UNL     1      -4.836  12.811  22.704  0.00  0.00    +0.000 C 
ATOM     15  C   UNL     1      -5.371  14.061  23.398  0.00  0.00    +0.000 C 
ATOM     16  O   UNL     1      -6.064  14.906  22.478  0.00  0.00    +0.000 OA
ATOM     17  C   UNL     1      -5.214  15.346  21.419  0.00  0.00    +0.000 C 
ATOM     18  C   UNL     1      -4.711  14.145  20.626  0.00  0.00    +0.000 C 
ENDBRANCH   9  13
BRANCH   5  19
ATOM     19  C   UNL     1      -1.543  11.267  19.583  0.00  0.00    +0.000 C 
BRANCH  19  20
ATOM     20  C   UNL     1      -2.239  11.025  18.257  0.00  0.00    +0.000 A 
ATOM     21  C   UNL     1      -1.815  10.161  17.247  0.00  0.00    +0.000 A 
ATOM     22  C   UNL     1      -2.609   9.979  16.110  0.00  0.00    +0.000 A 
ATOM     23  C   UNL     1      -3.822  10.647  16.027  0.00  0.00    +0.000 A 
ATOM     24  N   UNL     1      -4.283  11.469  16.988  0.00  0.00    +0.000 NA
ATOM     25  C   UNL     1      -3.491  11.626  18.073  0.00  0.00    +0.000 A 
ENDBRANCH  19  20
ENDBRANCH   5  19
TORSDOF 3
ENDMDL
MODEL 8
REMARK VINA RESULT:      -6.1      5.001      9.139
REMARK  Name = 
REMARK  4 active torsions:
REMARK  status: ('A' for Active; 'I' for Inactive)
REMARK    1  A    between atoms: C_1  and  N_2
REMARK    2  A    between atoms: N_5  and  C_6
REMARK    3  A    between atoms: C_6  and  C_7
REMARK    4  A    between atoms: N_16  and  C_17
REMARK                            x       y       z     vdW  Elec       q    Type
REMARK                         _______ _______ _______ _____ _____    ______ ____
ROOT
ATOM      1  C   UNL     1      -2.681  12.442  23.435  0.00  0.00    +0.000 C 
ATOM      2  N   UNL     1      -1.724  11.876  22.508  0.00  0.00    +0.000 N 
ATOM      3  C   UNL     1      -1.001  10.666  22.875  0.00  0.00    +0.000 C 
ATOM      4  C   UNL     1       0.230  10.390  21.983  0.00  0.00    +0.000 C 
ATOM      5  N   UNL     1      -0.061  10.547  20.536  0.00  0.00    +0.000 NA
ATOM      6  C   UNL     1      -0.659  11.933  20.292  0.00  0.00    +0.000 C 
ATOM      7  C   UNL     1      -0.948  12.270  18.814  0.00  0.00    +0.000 C 
ATOM      8  C   UNL     1      -0.159  13.546  18.489  0.00  0.00    +0.000 C 
ATOM      9  N   UNL     1       0.738  13.860  19.607  0.00  0.00    +0.000 NA
ATOM     10  C   UNL     1       0.165  13.178  20.760  0.00  0.00    +0.000 C 
ATOM     11  C   UNL     1      -1.962  12.079  21.142  0.00  0.00    +0.000 C 
ATOM     12  O   UNL     1      -3.026  12.510  20.712  0.00  0.00    +0.000 OA
ENDROOT
BRANCH   9  13
ATOM     13  C   UNL     1       2.178  13.727  19.341  0.00  0.00    +0.000 C 
ATOM     14  C   UNL     1       2.585  14.670  18.189  0.00  0.00    +0.000 C 
ATOM     15  C   UNL     1       2.605  16.132  18.628  0.00  0.00    +0.000 C 
ATOM     16  O   UNL     1       3.477  16.324  19.744  0.00  0.00    +0.000 OA
ATOM     17  C   UNL     1       3.071  15.551  20.873  0.00  0.00    +0.000 C 
ATOM     18  C   UNL     1       3.114  14.068  20.527  0.00  0.00    +0.000 C 
ENDBRANCH   9  13
BRANCH   5  19
ATOM     19  C   UNL     1       1.140  10.301  19.708  0.00  0.00    +0.000 C 
BRANCH  19  20
ATOM     20  C   UNL     1       1.574   8.888  19.368  0.00  0.00    +0.000 A 
ATOM     21  C   UNL     1       2.051   8.445  18.133  0.00  0.00    +0.000 A 
ATOM     22  C   UNL     1       2.493   7.125  17.993  0.00  0.00    +0.000 A 
ATOM     23  C   UNL     1       2.473   6.290  19.100  0.00  0.00    +0.000 A 
ATOM     24  N   UNL     1       2.045   6.682  20.316  0.00  0.00    +0.000 NA
ATOM     25  C   UNL     1       1.621   7.963  20.418  0.00  0.00    +0.000 A 
ENDBRANCH  19  20
ENDBRANCH   5  19
TORSDOF 3
ENDMDL
MODEL 9
REMARK VINA RESULT:      -6.1      8.081     10.180
REMARK  Name = 
REMARK  4 active torsions:
REMARK  status: ('A' for Active; 'I' for Inactive)
REMARK    1  A    between atoms: C_1  and  N_2
REMARK    2  A    between atoms: N_5  and  C_6
REMARK    3  A    between atoms: C_6  and  C_7
REMARK    4  A    between atoms: N_16  and  C_17
REMARK                            x       y       z     vdW  Elec       q    Type
REMARK                         _______ _______ _______ _____ _____    ______ ____
ROOT
ATOM      1  C   UNL     1      -2.664  10.846  16.181  0.00  0.00    +0.000 C 
ATOM      2  N   UNL     1      -2.408  11.321  17.525  0.00  0.00    +0.000 N 
ATOM      3  C   UNL     1      -3.529  11.568  18.422  0.00  0.00    +0.000 C 
ATOM      4  C   UNL     1      -3.151  12.408  19.662  0.00  0.00    +0.000 C 
ATOM      5  N   UNL     1      -1.901  11.944  20.313  0.00  0.00    +0.000 NA
ATOM      6  C   UNL     1      -0.780  11.902  19.273  0.00  0.00    +0.000 C 
ATOM      7  C   UNL     1       0.607  11.505  19.822  0.00  0.00    +0.000 C 
ATOM      8  C   UNL     1       1.563  12.656  19.483  0.00  0.00    +0.000 C 
ATOM      9  N   UNL     1       0.792  13.791  18.964  0.00  0.00    +0.000 NA
ATOM     10  C   UNL     1      -0.461  13.217  18.488  0.00  0.00    +0.000 C 
ATOM     11  C   UNL     1      -1.198  10.937  18.118  0.00  0.00    +0.000 C 
ATOM     12  O   UNL     1      -0.475  10.068  17.644  0.00  0.00    +0.000 OA
ENDROOT
BRANCH   9  13
ATOM     13  C   UNL     1       0.750  14.991  19.813  0.00  0.00    +0.000 C 
ATOM     14  C   UNL     1       2.040  15.816  19.614  0.00  0.00    +0.000 C 
ATOM     15  C   UNL     1       2.053  16.534  18.267  0.00  0.00    +0.000 C 
ATOM     16  O   UNL     1       0.909  17.378  18.120  0.00  0.00    +0.000 OA
ATOM     17  C   UNL     1      -0.308  16.636  18.188  0.00  0.00    +0.000 C 
ATOM     18  C   UNL     1      -0.427  15.960  19.548  0.00  0.00    +0.000 C 
ENDBRANCH   9  13
BRANCH   5  19
ATOM     19  C   UNL     1      -1.550  12.782  21.481  0.00  0.00    +0.000 C 
BRANCH  19  20
ATOM     20  C   UNL     1      -2.581  13.097  22.549  0.00  0.00    +0.000 A 
ATOM     21  C   UNL     1      -3.231  14.318  22.735  0.00  0.00    +0.000 A 
ATOM     22  C   UNL     1      -4.223  14.434  23.714  0.00  0.00    +0.000 A 
ATOM     23  C   UNL     1      -4.559  13.317  24.463  0.00  0.00    +0.000 A 
ATOM     24  N   UNL     1      -3.978  12.113  24.300  0.00  0.00    +0.000 NA
ATOM     25  C   UNL     1      -3.020  12.034  23.348  0.00  0.00    +0.000 A 
ENDBRANCH  19  20
ENDBRANCH   5  19
TORSDOF 3
ENDMDL
