MODEL 1
REMARK VINA RESULT:      -8.7      0.000      0.000
REMARK  Name = 
REMARK  12 active torsions:
REMARK  status: ('A' for Active; 'I' for Inactive)
REMARK    1  A    between atoms: C_1  and  C_2
REMARK    2  A    between atoms: C_10  and  C_11
REMARK    3  A    between atoms: C_11  and  C_12
REMARK    4  A    between atoms: C_11  and  C_19
REMARK    5  A    between atoms: C_23  and  C_24
REMARK    6  A    between atoms: C_24  and  C_25
REMARK    7  A    between atoms: C_24  and  C_26
REMARK    8  A    between atoms: C_24  and  C_27
REMARK    9  A    between atoms: C_29  and  C_30
REMARK   10  A    between atoms: C_30  and  C_31
REMARK   11  A    between atoms: C_30  and  C_32
REMARK   12  A    between atoms: C_30  and  C_33
REMARK                            x       y       z     vdW  Elec       q    Type
REMARK                         _______ _______ _______ _____ _____    ______ ____
ROOT
ATOM      1  C   UNL     1       0.249  10.099  19.447  0.00  0.00    +0.000 C 
ENDROOT
BRANCH   1  11
ATOM      2  C   UNL     1       2.598  12.103  17.950  0.00  0.00    +0.000 C 
ATOM      3  C   UNL     1       1.793  12.262  19.192  0.00  0.00    +0.000 A 
ATOM      4  N   UNL     1       1.915  13.434  19.894  0.00  0.00    +0.000 N 
ATOM      5  C   UNL     1       1.029  13.478  20.934  0.00  0.00    +0.000 A 
ATOM      6  C   UNL     1       0.783  14.519  21.840  0.00  0.00    +0.000 A 
ATOM      7  C   UNL     1      -0.188  14.305  22.816  0.00  0.00    +0.000 A 
ATOM      8  C   UNL     1      -0.876  13.095  22.882  0.00  0.00    +0.000 A 
ATOM      9  C   UNL     1      -0.616  12.069  21.962  0.00  0.00    +0.000 A 
ATOM     10  C   UNL     1       0.357  12.261  20.954  0.00  0.00    +0.000 A 
ATOM     11  C   UNL     1       0.828  11.471  19.831  0.00  0.00    +0.000 A 
ATOM     12  H   UNL     1       2.524  14.198  19.639  0.00  0.00    +0.000 HD
ENDBRANCH   1  11
BRANCH   1  13
ATOM     13  C   UNL     1       1.242   9.128  18.866  0.00  0.00    +0.000 A 
ATOM     14  C   UNL     1       2.159   9.236  17.846  0.00  0.00    +0.000 A 
ATOM     15  C   UNL     1       2.966   8.080  17.895  0.00  0.00    +0.000 A 
ATOM     16  C   UNL     1       4.152   7.708  17.247  0.00  0.00    +0.000 A 
ATOM     17  C   UNL     1       4.719   6.450  17.482  0.00  0.00    +0.000 A 
ATOM     18  C   UNL     1       4.049   5.593  18.384  0.00  0.00    +0.000 A 
ATOM     19  C   UNL     1       2.833   5.905  19.063  0.00  0.00    +0.000 A 
ATOM     20  C   UNL     1       2.368   7.212  18.800  0.00  0.00    +0.000 A 
ATOM     21  O   UNL     1       1.302   7.855  19.388  0.00  0.00    +0.000 OA
BRANCH  17  22
ATOM     22  C   UNL     1       6.043   6.043  16.803  0.00  0.00    +0.000 C 
ATOM     23  C   UNL     1       5.802   5.913  15.287  0.00  0.00    +0.000 C 
ATOM     24  C   UNL     1       7.166   7.077  17.044  0.00  0.00    +0.000 C 
ATOM     25  C   UNL     1       6.583   4.689  17.325  0.00  0.00    +0.000 C 
ENDBRANCH  17  22
BRANCH  19  26
ATOM     26  C   UNL     1       2.132   4.884  19.977  0.00  0.00    +0.000 C 
ATOM     27  C   UNL     1       3.105   3.906  20.684  0.00  0.00    +0.000 C 
ATOM     28  C   UNL     1       1.344   5.611  21.082  0.00  0.00    +0.000 C 
ATOM     29  C   UNL     1       1.164   4.013  19.147  0.00  0.00    +0.000 C 
ENDBRANCH  19  26
ENDBRANCH   1  13
BRANCH   1  30
ATOM     30  C   UNL     1      -0.945  10.356  18.506  0.00  0.00    +0.000 A 
ATOM     31  C   UNL     1      -1.171   9.643  17.313  0.00  0.00    +0.000 A 
ATOM     32  C   UNL     1      -2.294   9.878  16.516  0.00  0.00    +0.000 A 
ATOM     33  C   UNL     1      -3.226  10.829  16.906  0.00  0.00    +0.000 A 
ATOM     34 CL   UNL     1      -4.614  11.108  15.930  0.00  0.00    +0.000 Cl
ATOM     35  C   UNL     1      -3.038  11.550  18.082  0.00  0.00    +0.000 A 
ATOM     36  C   UNL     1      -1.909  11.314  18.877  0.00  0.00    +0.000 A 
ENDBRANCH   1  30
TORSDOF 5
ENDMDL
MODEL 2
REMARK VINA RESULT:      -8.6      3.307      8.779
REMARK  Name = 
REMARK  12 active torsions:
REMARK  status: ('A' for Active; 'I' for Inactive)
REMARK    1  A    between atoms: C_1  and  C_2
REMARK    2  A    between atoms: C_10  and  C_11
REMARK    3  A    between atoms: C_11  and  C_12
REMARK    4  A    between atoms: C_11  and  C_19
REMARK    5  A    between atoms: C_23  and  C_24
REMARK    6  A    between atoms: C_24  and  C_25
REMARK    7  A    between atoms: C_24  and  C_26
REMARK    8  A    between atoms: C_24  and  C_27
REMARK    9  A    between atoms: C_29  and  C_30
REMARK   10  A    between atoms: C_30  and  C_31
REMARK   11  A    between atoms: C_30  and  C_32
REMARK   12  A    between atoms: C_30  and  C_33
REMARK                            x       y       z     vdW  Elec       q    Type
REMARK                         _______ _______ _______ _____ _____    ______ ____
ROOT
ATOM      1  C   UNL     1       0.001  12.040  21.341  0.00  0.00    +0.000 C 
ENDROOT
BRANCH   1  11
ATOM      2  C   UNL     1       0.182   9.483  23.622  0.00  0.00    +0.000 C 
ATOM      3  C   UNL     1       0.639   9.598  22.210  0.00  0.00    +0.000 A 
ATOM      4  N   UNL     1       1.193   8.491  21.620  0.00  0.00    +0.000 N 
ATOM      5  C   UNL     1       1.450   8.716  20.296  0.00  0.00    +0.000 A 
ATOM      6  C   UNL     1       1.941   7.829  19.328  0.00  0.00    +0.000 A 
ATOM      7  C   UNL     1       2.109   8.318  18.035  0.00  0.00    +0.000 A 
ATOM      8  C   UNL     1       1.802   9.641  17.729  0.00  0.00    +0.000 A 
ATOM      9  C   UNL     1       1.307  10.510  18.712  0.00  0.00    +0.000 A 
ATOM     10  C   UNL     1       1.117  10.040  20.032  0.00  0.00    +0.000 A 
ATOM     11  C   UNL     1       0.581  10.618  21.251  0.00  0.00    +0.000 A 
ATOM     12  H   UNL     1       1.331   7.600  22.077  0.00  0.00    +0.000 HD
ENDBRANCH   1  11
BRANCH   1  13
ATOM     13  C   UNL     1      -1.437  12.170  20.917  0.00  0.00    +0.000 A 
ATOM     14  C   UNL     1      -2.538  12.731  21.524  0.00  0.00    +0.000 A 
ATOM     15  C   UNL     1      -3.569  12.755  20.562  0.00  0.00    +0.000 A 
ATOM     16  C   UNL     1      -4.837  13.354  20.527  0.00  0.00    +0.000 A 
ATOM     17  C   UNL     1      -5.672  13.173  19.418  0.00  0.00    +0.000 A 
ATOM     18  C   UNL     1      -5.184  12.372  18.361  0.00  0.00    +0.000 A 
ATOM     19  C   UNL     1      -3.912  11.723  18.341  0.00  0.00    +0.000 A 
ATOM     20  C   UNL     1      -3.126  12.007  19.478  0.00  0.00    +0.000 A 
ATOM     21  O   UNL     1      -1.818  11.639  19.704  0.00  0.00    +0.000 OA
BRANCH  17  22
ATOM     22  C   UNL     1      -7.053  13.856  19.351  0.00  0.00    +0.000 C 
ATOM     23  C   UNL     1      -7.842  13.503  20.627  0.00  0.00    +0.000 C 
ATOM     24  C   UNL     1      -6.940  15.394  19.244  0.00  0.00    +0.000 C 
ATOM     25  C   UNL     1      -7.881  13.397  18.127  0.00  0.00    +0.000 C 
ENDBRANCH  17  22
BRANCH  19  26
ATOM     26  C   UNL     1      -3.488  10.811  17.177  0.00  0.00    +0.000 C 
ATOM     27  C   UNL     1      -4.407  10.916  15.932  0.00  0.00    +0.000 C 
ATOM     28  C   UNL     1      -2.063  11.165  16.715  0.00  0.00    +0.000 C 
ATOM     29  C   UNL     1      -3.529   9.333  17.625  0.00  0.00    +0.000 C 
ENDBRANCH  19  26
ENDBRANCH   1  13
BRANCH   1  30
ATOM     30  C   UNL     1       0.938  12.964  20.538  0.00  0.00    +0.000 A 
ATOM     31  C   UNL     1       2.295  13.173  20.856  0.00  0.00    +0.000 A 
ATOM     32  C   UNL     1       3.118  13.983  20.071  0.00  0.00    +0.000 A 
ATOM     33  C   UNL     1       2.602  14.594  18.938  0.00  0.00    +0.000 A 
ATOM     34 CL   UNL     1       3.621  15.581  17.966  0.00  0.00    +0.000 Cl
ATOM     35  C   UNL     1       1.267  14.407  18.589  0.00  0.00    +0.000 A 
ATOM     36  C   UNL     1       0.442  13.597  19.381  0.00  0.00    +0.000 A 
ENDBRANCH   1  30
TORSDOF 5
ENDMDL
MODEL 3
REMARK VINA RESULT:      -8.6      0.057      1.039
REMARK  Name = 
REMARK  12 active torsions:
REMARK  status: ('A' for Active; 'I' for Inactive)
REMARK    1  A    between atoms: C_1  and  C_2
REMARK    2  A    between atoms: C_10  and  C_11
REMARK    3  A    between atoms: C_11  and  C_12
REMARK    4  A    between atoms: C_11  and  C_19
REMARK    5  A    between atoms: C_23  and  C_24
REMARK    6  A    between atoms: C_24  and  C_25
REMARK    7  A    between atoms: C_24  and  C_26
REMARK    8  A    between atoms: C_24  and  C_27
REMARK    9  A    between atoms: C_29  and  C_30
REMARK   10  A    between atoms: C_30  and  C_31
REMARK   11  A    between atoms: C_30  and  C_32
REMARK   12  A    between atoms: C_30  and  C_33
REMARK                            x       y       z     vdW  Elec       q    Type
REMARK                         _______ _______ _______ _____ _____    ______ ____
ROOT
ATOM      1  C   UNL     1       0.257  10.100  19.452  0.00  0.00    +0.000 C 
ENDROOT
BRANCH   1  11
ATOM      2  C   UNL     1       2.611  12.078  17.929  0.00  0.00    +0.000 C 
ATOM      3  C   UNL     1       1.813  12.251  19.174  0.00  0.00    +0.000 A 
ATOM      4  N   UNL     1       1.945  13.427  19.867  0.00  0.00    +0.000 N 
ATOM      5  C   UNL     1       1.064  13.484  20.911  0.00  0.00    +0.000 A 
ATOM      6  C   UNL     1       0.828  14.533  21.810  0.00  0.00    +0.000 A 
ATOM      7  C   UNL     1      -0.139  14.332  22.793  0.00  0.00    +0.000 A 
ATOM      8  C   UNL     1      -0.834  13.128  22.870  0.00  0.00    +0.000 A 
ATOM      9  C   UNL     1      -0.585  12.094  21.956  0.00  0.00    +0.000 A 
ATOM     10  C   UNL     1       0.385  12.272  20.943  0.00  0.00    +0.000 A 
ATOM     11  C   UNL     1       0.846  11.471  19.823  0.00  0.00    +0.000 A 
ATOM     12  H   UNL     1       2.558  14.186  19.604  0.00  0.00    +0.000 HD
ENDBRANCH   1  11
BRANCH   1  13
ATOM     13  C   UNL     1       1.240   9.120  18.869  0.00  0.00    +0.000 A 
ATOM     14  C   UNL     1       2.143   9.214  17.835  0.00  0.00    +0.000 A 
ATOM     15  C   UNL     1       2.948   8.057  17.887  0.00  0.00    +0.000 A 
ATOM     16  C   UNL     1       4.125   7.675  17.228  0.00  0.00    +0.000 A 
ATOM     17  C   UNL     1       4.694   6.419  17.471  0.00  0.00    +0.000 A 
ATOM     18  C   UNL     1       4.035   5.575  18.394  0.00  0.00    +0.000 A 
ATOM     19  C   UNL     1       2.829   5.898  19.086  0.00  0.00    +0.000 A 
ATOM     20  C   UNL     1       2.363   7.201  18.812  0.00  0.00    +0.000 A 
ATOM     21  O   UNL     1       1.306   7.854  19.407  0.00  0.00    +0.000 OA
BRANCH  17  22
ATOM     22  C   UNL     1       6.007   6.001  16.779  0.00  0.00    +0.000 C 
ATOM     23  C   UNL     1       7.073   7.083  17.043  0.00  0.00    +0.000 C 
ATOM     24  C   UNL     1       6.535   4.644  17.298  0.00  0.00    +0.000 C 
ATOM     25  C   UNL     1       5.845   5.844  15.248  0.00  0.00    +0.000 C 
ENDBRANCH  17  22
BRANCH  19  26
ATOM     26  C   UNL     1       2.140   4.890  20.023  0.00  0.00    +0.000 C 
ATOM     27  C   UNL     1       1.079   4.005  19.319  0.00  0.00    +0.000 C 
ATOM     28  C   UNL     1       3.182   3.938  20.640  0.00  0.00    +0.000 C 
ATOM     29  C   UNL     1       1.401   5.641  21.152  0.00  0.00    +0.000 C 
ENDBRANCH  19  26
ENDBRANCH   1  13
BRANCH   1  30
ATOM     30  C   UNL     1      -0.942  10.358  18.518  0.00  0.00    +0.000 A 
ATOM     31  C   UNL     1      -1.176   9.645  17.325  0.00  0.00    +0.000 A 
ATOM     32  C   UNL     1      -2.304   9.881  16.536  0.00  0.00    +0.000 A 
ATOM     33  C   UNL     1      -3.232  10.832  16.931  0.00  0.00    +0.000 A 
ATOM     34 CL   UNL     1      -4.626  11.113  15.963  0.00  0.00    +0.000 Cl
ATOM     35  C   UNL     1      -3.037  11.554  18.106  0.00  0.00    +0.000 A 
ATOM     36  C   UNL     1      -1.904  11.317  18.895  0.00  0.00    +0.000 A 
ENDBRANCH   1  30
TORSDOF 5
ENDMDL
MODEL 4
REMARK VINA RESULT:      -8.6      1.028      2.163
REMARK  Name = 
REMARK  12 active torsions:
REMARK  status: ('A' for Active; 'I' for Inactive)
REMARK    1  A    between atoms: C_1  and  C_2
REMARK    2  A    between atoms: C_10  and  C_11
REMARK    3  A    between atoms: C_11  and  C_12
REMARK    4  A    between atoms: C_11  and  C_19
REMARK    5  A    between atoms: C_23  and  C_24
REMARK    6  A    between atoms: C_24  and  C_25
REMARK    7  A    between atoms: C_24  and  C_26
REMARK    8  A    between atoms: C_24  and  C_27
REMARK    9  A    between atoms: C_29  and  C_30
REMARK   10  A    between atoms: C_30  and  C_31
REMARK   11  A    between atoms: C_30  and  C_32
REMARK   12  A    between atoms: C_30  and  C_33
REMARK                            x       y       z     vdW  Elec       q    Type
REMARK                         _______ _______ _______ _____ _____    ______ ____
ROOT
ATOM      1  C   UNL     1       0.100   9.639  19.385  0.00  0.00    +0.000 C 
ENDROOT
BRANCH   1  11
ATOM      2  C   UNL     1      -0.320  10.785  22.593  0.00  0.00    +0.000 C 
ATOM      3  C   UNL     1       0.378  11.359  21.409  0.00  0.00    +0.000 A 
ATOM      4  N   UNL     1       1.056  12.540  21.569  0.00  0.00    +0.000 N 
ATOM      5  C   UNL     1       1.739  12.873  20.432  0.00  0.00    +0.000 A 
ATOM      6  C   UNL     1       2.604  13.952  20.207  0.00  0.00    +0.000 A 
ATOM      7  C   UNL     1       3.181  14.060  18.943  0.00  0.00    +0.000 A 
ATOM      8  C   UNL     1       2.895  13.128  17.949  0.00  0.00    +0.000 A 
ATOM      9  C   UNL     1       2.030  12.053  18.199  0.00  0.00    +0.000 A 
ATOM     10  C   UNL     1       1.437  11.911  19.474  0.00  0.00    +0.000 A 
ATOM     11  C   UNL     1       0.572  10.922  20.091  0.00  0.00    +0.000 A 
ATOM     12  H   UNL     1       1.107  13.063  22.432  0.00  0.00    +0.000 HD
ENDBRANCH   1  11
BRANCH   1  13
ATOM     13  C   UNL     1       1.200   8.783  18.817  0.00  0.00    +0.000 A 
ATOM     14  C   UNL     1       2.205   9.040  17.913  0.00  0.00    +0.000 A 
ATOM     15  C   UNL     1       3.069   7.925  17.931  0.00  0.00    +0.000 A 
ATOM     16  C   UNL     1       4.333   7.680  17.376  0.00  0.00    +0.000 A 
ATOM     17  C   UNL     1       4.946   6.433  17.544  0.00  0.00    +0.000 A 
ATOM     18  C   UNL     1       4.242   5.456  18.282  0.00  0.00    +0.000 A 
ATOM     19  C   UNL     1       2.949   5.637  18.860  0.00  0.00    +0.000 A 
ATOM     20  C   UNL     1       2.437   6.940  18.680  0.00  0.00    +0.000 A 
ATOM     21  O   UNL     1       1.282   7.467  19.215  0.00  0.00    +0.000 OA
BRANCH  17  22
ATOM     22  C   UNL     1       6.351   6.162  16.969  0.00  0.00    +0.000 C 
ATOM     23  C   UNL     1       6.220   5.853  15.465  0.00  0.00    +0.000 C 
ATOM     24  C   UNL     1       7.299   7.370  17.148  0.00  0.00    +0.000 C 
ATOM     25  C   UNL     1       7.049   4.961  17.652  0.00  0.00    +0.000 C 
ENDBRANCH  17  22
BRANCH  19  26
ATOM     26  C   UNL     1       2.222   4.494  19.592  0.00  0.00    +0.000 C 
ATOM     27  C   UNL     1       1.438   4.954  20.848  0.00  0.00    +0.000 C 
ATOM     28  C   UNL     1       1.208   3.820  18.651  0.00  0.00    +0.000 C 
ATOM     29  C   UNL     1       3.247   3.446  20.077  0.00  0.00    +0.000 C 
ENDBRANCH  19  26
ENDBRANCH   1  13
BRANCH   1  30
ATOM     30  C   UNL     1      -0.930  10.060  18.319  0.00  0.00    +0.000 A 
ATOM     31  C   UNL     1      -1.120   9.380  17.100  0.00  0.00    +0.000 A 
ATOM     32  C   UNL     1      -2.101   9.770  16.185  0.00  0.00    +0.000 A 
ATOM     33  C   UNL     1      -2.925  10.846  16.477  0.00  0.00    +0.000 A 
ATOM     34 CL   UNL     1      -4.139  11.317  15.354  0.00  0.00    +0.000 Cl
ATOM     35  C   UNL     1      -2.770  11.540  17.674  0.00  0.00    +0.000 A 
ATOM     36  C   UNL     1      -1.783  11.149  18.589  0.00  0.00    +0.000 A 
ENDBRANCH   1  30
TORSDOF 5
ENDMDL
MODEL 5
REMARK VINA RESULT:      -8.6      0.094      1.099
REMARK  Name = 
REMARK  12 active torsions:
REMARK  status: ('A' for Active; 'I' for Inactive)
REMARK    1  A    between atoms: C_1  and  C_2
REMARK    2  A    between atoms: C_10  and  C_11
REMARK    3  A    between atoms: C_11  and  C_12
REMARK    4  A    between atoms: C_11  and  C_19
REMARK    5  A    between atoms: C_23  and  C_24
REMARK    6  A    between atoms: C_24  and  C_25
REMARK    7  A    between atoms: C_24  and  C_26
REMARK    8  A    between atoms: C_24  and  C_27
REMARK    9  A    between atoms: C_29  and  C_30
REMARK   10  A    between atoms: C_30  and  C_31
REMARK   11  A    between atoms: C_30  and  C_32
REMARK   12  A    between atoms: C_30  and  C_33
REMARK                            x       y       z     vdW  Elec       q    Type
REMARK                         _______ _______ _______ _____ _____    ______ ____
ROOT
ATOM      1  C   UNL     1       0.259  10.121  19.511  0.00  0.00    +0.000 C 
ENDROOT
BRANCH   1  11
ATOM      2  C   UNL     1       2.597  12.070  17.926  0.00  0.00    +0.000 C 
ATOM      3  C   UNL     1       1.806  12.270  19.172  0.00  0.00    +0.000 A 
ATOM      4  N   UNL     1       1.940  13.462  19.836  0.00  0.00    +0.000 N 
ATOM      5  C   UNL     1       1.066  13.541  20.886  0.00  0.00    +0.000 A 
ATOM      6  C   UNL     1       0.834  14.610  21.762  0.00  0.00    +0.000 A 
ATOM      7  C   UNL     1      -0.126  14.428  22.756  0.00  0.00    +0.000 A 
ATOM      8  C   UNL     1      -0.817  13.224  22.866  0.00  0.00    +0.000 A 
ATOM      9  C   UNL     1      -0.571  12.170  21.975  0.00  0.00    +0.000 A 
ATOM     10  C   UNL     1       0.391  12.327  20.950  0.00  0.00    +0.000 A 
ATOM     11  C   UNL     1       0.846  11.502  19.846  0.00  0.00    +0.000 A 
ATOM     12  H   UNL     1       2.549  14.216  19.552  0.00  0.00    +0.000 HD
ENDBRANCH   1  11
BRANCH   1  13
ATOM     13  C   UNL     1       1.232   9.142  18.912  0.00  0.00    +0.000 A 
ATOM     14  C   UNL     1       2.130   9.242  17.874  0.00  0.00    +0.000 A 
ATOM     15  C   UNL     1       2.929   8.079  17.909  0.00  0.00    +0.000 A 
ATOM     16  C   UNL     1       4.100   7.697  17.239  0.00  0.00    +0.000 A 
ATOM     17  C   UNL     1       4.662   6.436  17.466  0.00  0.00    +0.000 A 
ATOM     18  C   UNL     1       4.004   5.586  18.382  0.00  0.00    +0.000 A 
ATOM     19  C   UNL     1       2.804   5.908  19.085  0.00  0.00    +0.000 A 
ATOM     20  C   UNL     1       2.344   7.217  18.828  0.00  0.00    +0.000 A 
ATOM     21  O   UNL     1       1.294   7.870  19.436  0.00  0.00    +0.000 OA
BRANCH  17  22
ATOM     22  C   UNL     1       5.969   6.018  16.761  0.00  0.00    +0.000 C 
ATOM     23  C   UNL     1       7.046   7.084  17.041  0.00  0.00    +0.000 C 
ATOM     24  C   UNL     1       6.485   4.646  17.254  0.00  0.00    +0.000 C 
ATOM     25  C   UNL     1       5.800   5.890  15.228  0.00  0.00    +0.000 C 
ENDBRANCH  17  22
BRANCH  19  26
ATOM     26  C   UNL     1       2.114   4.894  20.015  0.00  0.00    +0.000 C 
ATOM     27  C   UNL     1       3.098   3.942  20.743  0.00  0.00    +0.000 C 
ATOM     28  C   UNL     1       1.312   5.630  21.104  0.00  0.00    +0.000 C 
ATOM     29  C   UNL     1       1.162   3.994  19.198  0.00  0.00    +0.000 C 
ENDBRANCH  19  26
ENDBRANCH   1  13
BRANCH   1  30
ATOM     30  C   UNL     1      -0.970  10.356  18.610  0.00  0.00    +0.000 A 
ATOM     31  C   UNL     1      -1.971  11.310  18.881  0.00  0.00    +0.000 A 
ATOM     32  C   UNL     1      -3.042  11.520  18.010  0.00  0.00    +0.000 A 
ATOM     33  C   UNL     1      -3.128  10.787  16.836  0.00  0.00    +0.000 A 
ATOM     34 CL   UNL     1      -4.441  11.058  15.759  0.00  0.00    +0.000 Cl
ATOM     35  C   UNL     1      -2.155   9.839  16.532  0.00  0.00    +0.000 A 
ATOM     36  C   UNL     1      -1.083   9.627  17.409  0.00  0.00    +0.000 A 
ENDBRANCH   1  30
TORSDOF 5
ENDMDL
MODEL 6
REMARK VINA RESULT:      -8.6      1.048      2.300
REMARK  Name = 
REMARK  12 active torsions:
REMARK  status: ('A' for Active; 'I' for Inactive)
REMARK    1  A    between atoms: C_1  and  C_2
REMARK    2  A    between atoms: C_10  and  C_11
REMARK    3  A    between atoms: C_11  and  C_12
REMARK    4  A    between atoms: C_11  and  C_19
REMARK    5  A    between atoms: C_23  and  C_24
REMARK    6  A    between atoms: C_24  and  C_25
REMARK    7  A    between atoms: C_24  and  C_26
REMARK    8  A    between atoms: C_24  and  C_27
REMARK    9  A    between atoms: C_29  and  C_30
REMARK   10  A    between atoms: C_30  and  C_31
REMARK   11  A    between atoms: C_30  and  C_32
REMARK   12  A    between atoms: C_30  and  C_33
REMARK                            x       y       z     vdW  Elec       q    Type
REMARK                         _______ _______ _______ _____ _____    ______ ____
ROOT
ATOM      1  C   UNL     1       0.114   9.602  19.387  0.00  0.00    +0.000 C 
ENDROOT
BRANCH   1  11
ATOM      2  C   UNL     1      -0.297  10.732  22.601  0.00  0.00    +0.000 C 
ATOM      3  C   UNL     1       0.393  11.313  21.417  0.00  0.00    +0.000 A 
ATOM      4  N   UNL     1       1.068  12.496  21.580  0.00  0.00    +0.000 N 
ATOM      5  C   UNL     1       1.746  12.836  20.442  0.00  0.00    +0.000 A 
ATOM      6  C   UNL     1       2.606  13.920  20.217  0.00  0.00    +0.000 A 
ATOM      7  C   UNL     1       3.177  14.035  18.952  0.00  0.00    +0.000 A 
ATOM      8  C   UNL     1       2.890  13.106  17.955  0.00  0.00    +0.000 A 
ATOM      9  C   UNL     1       2.030  12.027  18.203  0.00  0.00    +0.000 A 
ATOM     10  C   UNL     1       1.443  11.878  19.481  0.00  0.00    +0.000 A 
ATOM     11  C   UNL     1       0.584  10.883  20.097  0.00  0.00    +0.000 A 
ATOM     12  H   UNL     1       1.122  13.016  22.445  0.00  0.00    +0.000 HD
ENDBRANCH   1  11
BRANCH   1  13
ATOM     13  C   UNL     1       1.215   8.740  18.832  0.00  0.00    +0.000 A 
ATOM     14  C   UNL     1       2.184   8.969  17.882  0.00  0.00    +0.000 A 
ATOM     15  C   UNL     1       3.075   7.876  17.933  0.00  0.00    +0.000 A 
ATOM     16  C   UNL     1       4.326   7.628  17.350  0.00  0.00    +0.000 A 
ATOM     17  C   UNL     1       4.975   6.407  17.566  0.00  0.00    +0.000 A 
ATOM     18  C   UNL     1       4.319   5.458  18.381  0.00  0.00    +0.000 A 
ATOM     19  C   UNL     1       3.041   5.642  18.991  0.00  0.00    +0.000 A 
ATOM     20  C   UNL     1       2.492   6.920  18.756  0.00  0.00    +0.000 A 
ATOM     21  O   UNL     1       1.342   7.451  19.299  0.00  0.00    +0.000 OA
BRANCH  17  22
ATOM     22  C   UNL     1       6.367   6.137  16.961  0.00  0.00    +0.000 C 
ATOM     23  C   UNL     1       7.247   7.386  17.163  0.00  0.00    +0.000 C 
ATOM     24  C   UNL     1       7.065   4.924  17.618  0.00  0.00    +0.000 C 
ATOM     25  C   UNL     1       6.304   5.828  15.445  0.00  0.00    +0.000 C 
ENDBRANCH  17  22
BRANCH  19  26
ATOM     26  C   UNL     1       2.366   4.526  19.809  0.00  0.00    +0.000 C 
ATOM     27  C   UNL     1       1.106   3.929  19.131  0.00  0.00    +0.000 C 
ATOM     28  C   UNL     1       3.350   3.363  20.034  0.00  0.00    +0.000 C 
ATOM     29  C   UNL     1       1.906   5.079  21.175  0.00  0.00    +0.000 C 
ENDBRANCH  19  26
ENDBRANCH   1  13
BRANCH   1  30
ATOM     30  C   UNL     1      -0.904  10.026  18.310  0.00  0.00    +0.000 A 
ATOM     31  C   UNL     1      -1.098   9.335  17.098  0.00  0.00    +0.000 A 
ATOM     32  C   UNL     1      -2.067   9.729  16.173  0.00  0.00    +0.000 A 
ATOM     33  C   UNL     1      -2.875  10.822  16.447  0.00  0.00    +0.000 A 
ATOM     34 CL   UNL     1      -4.075  11.299  15.312  0.00  0.00    +0.000 Cl
ATOM     35  C   UNL     1      -2.715  11.528  17.637  0.00  0.00    +0.000 A 
ATOM     36  C   UNL     1      -1.741  11.132  18.562  0.00  0.00    +0.000 A 
ENDBRANCH   1  30
TORSDOF 5
ENDMDL
MODEL 7
REMARK VINA RESULT:      -8.5      0.115      1.100
REMARK  Name = 
REMARK  12 active torsions:
REMARK  status: ('A' for Active; 'I' for Inactive)
REMARK    1  A    between atoms: C_1  and  C_2
REMARK    2  A    between atoms: C_10  and  C_11
REMARK    3  A    between atoms: C_11  and  C_12
REMARK    4  A    between atoms: C_11  and  C_19
REMARK    5  A    between atoms: C_23  and  C_24
REMARK    6  A    between atoms: C_24  and  C_25
REMARK    7  A    between atoms: C_24  and  C_26
REMARK    8  A    between atoms: C_24  and  C_27
REMARK    9  A    between atoms: C_29  and  C_30
REMARK   10  A    between atoms: C_30  and  C_31
REMARK   11  A    between atoms: C_30  and  C_32
REMARK   12  A    between atoms: C_30  and  C_33
REMARK                            x       y       z     vdW  Elec       q    Type
REMARK                         _______ _______ _______ _____ _____    ______ ____
ROOT
ATOM      1  C   UNL     1       0.264  10.147  19.517  0.00  0.00    +0.000 C 
ENDROOT
BRANCH   1  11
ATOM      2  C   UNL     1       2.597  12.084  17.911  0.00  0.00    +0.000 C 
ATOM      3  C   UNL     1       1.814  12.291  19.160  0.00  0.00    +0.000 A 
ATOM      4  N   UNL     1       1.953  13.487  19.817  0.00  0.00    +0.000 N 
ATOM      5  C   UNL     1       1.084  13.573  20.870  0.00  0.00    +0.000 A 
ATOM      6  C   UNL     1       0.858  14.647  21.742  0.00  0.00    +0.000 A 
ATOM      7  C   UNL     1      -0.098  14.473  22.741  0.00  0.00    +0.000 A 
ATOM      8  C   UNL     1      -0.790  13.270  22.861  0.00  0.00    +0.000 A 
ATOM      9  C   UNL     1      -0.550  12.211  21.974  0.00  0.00    +0.000 A 
ATOM     10  C   UNL     1       0.407  12.361  20.944  0.00  0.00    +0.000 A 
ATOM     11  C   UNL     1       0.855  11.529  19.842  0.00  0.00    +0.000 A 
ATOM     12  H   UNL     1       2.561  14.238  19.525  0.00  0.00    +0.000 HD
ENDBRANCH   1  11
BRANCH   1  13
ATOM     13  C   UNL     1       1.233   9.163  18.921  0.00  0.00    +0.000 A 
ATOM     14  C   UNL     1       2.128   9.255  17.879  0.00  0.00    +0.000 A 
ATOM     15  C   UNL     1       2.924   8.091  17.918  0.00  0.00    +0.000 A 
ATOM     16  C   UNL     1       4.092   7.703  17.246  0.00  0.00    +0.000 A 
ATOM     17  C   UNL     1       4.652   6.441  17.477  0.00  0.00    +0.000 A 
ATOM     18  C   UNL     1       3.994   5.597  18.400  0.00  0.00    +0.000 A 
ATOM     19  C   UNL     1       2.797   5.926  19.105  0.00  0.00    +0.000 A 
ATOM     20  C   UNL     1       2.339   7.235  18.843  0.00  0.00    +0.000 A 
ATOM     21  O   UNL     1       1.293   7.893  19.450  0.00  0.00    +0.000 OA
BRANCH  17  22
ATOM     22  C   UNL     1       5.955   6.016  16.771  0.00  0.00    +0.000 C 
ATOM     23  C   UNL     1       5.684   5.899  15.258  0.00  0.00    +0.000 C 
ATOM     24  C   UNL     1       7.100   7.030  16.995  0.00  0.00    +0.000 C 
ATOM     25  C   UNL     1       6.483   4.651  17.275  0.00  0.00    +0.000 C 
ENDBRANCH  17  22
BRANCH  19  26
ATOM     26  C   UNL     1       2.107   4.918  20.042  0.00  0.00    +0.000 C 
ATOM     27  C   UNL     1       1.074   4.007  19.330  0.00  0.00    +0.000 C 
ATOM     28  C   UNL     1       3.153   3.992  20.689  0.00  0.00    +0.000 C 
ATOM     29  C   UNL     1       1.336   5.671  21.148  0.00  0.00    +0.000 C 
ENDBRANCH  19  26
ENDBRANCH   1  13
BRANCH   1  30
ATOM     30  C   UNL     1      -0.968  10.380  18.620  0.00  0.00    +0.000 A 
ATOM     31  C   UNL     1      -1.971  11.331  18.894  0.00  0.00    +0.000 A 
ATOM     32  C   UNL     1      -3.045  11.539  18.026  0.00  0.00    +0.000 A 
ATOM     33  C   UNL     1      -3.132  10.806  16.852  0.00  0.00    +0.000 A 
ATOM     34 CL   UNL     1      -4.449  11.073  15.779  0.00  0.00    +0.000 Cl
ATOM     35  C   UNL     1      -2.158   9.860  16.545  0.00  0.00    +0.000 A 
ATOM     36  C   UNL     1      -1.083   9.650  17.420  0.00  0.00    +0.000 A 
ENDBRANCH   1  30
TORSDOF 5
ENDMDL
MODEL 8
REMARK VINA RESULT:      -8.5      2.668      8.134
REMARK  Name = 
REMARK  12 active torsions:
REMARK  status: ('A' for Active; 'I' for Inactive)
REMARK    1  A    between atoms: C_1  and  C_2
REMARK    2  A    between atoms: C_10  and  C_11
REMARK    3  A    between atoms: C_11  and  C_12
REMARK    4  A    between atoms: C_11  and  C_19
REMARK    5  A    between atoms: C_23  and  C_24
REMARK    6  A    between atoms: C_24  and  C_25
REMARK    7  A    between atoms: C_24  and  C_26
REMARK    8  A    between atoms: C_24  and  C_27
REMARK    9  A    between atoms: C_29  and  C_30
REMARK   10  A    between atoms: C_30  and  C_31
REMARK   11  A    between atoms: C_30  and  C_32
REMARK   12  A    between atoms: C_30  and  C_33
REMARK                            x       y       z     vdW  Elec       q    Type
REMARK                         _______ _______ _______ _____ _____    ______ ____
ROOT
ATOM      1  C   UNL     1       0.576  11.266  18.939  0.00  0.00    +0.000 C 
ENDROOT
BRANCH   1  11
ATOM      2  C   UNL     1      -0.271  10.145  22.070  0.00  0.00    +0.000 C 
ATOM      3  C   UNL     1       0.588   9.568  20.999  0.00  0.00    +0.000 A 
ATOM      4  N   UNL     1       1.131   8.326  21.207  0.00  0.00    +0.000 N 
ATOM      5  C   UNL     1       1.790   7.885  20.092  0.00  0.00    +0.000 A 
ATOM      6  C   UNL     1       2.413   6.650  19.867  0.00  0.00    +0.000 A 
ATOM      7  C   UNL     1       3.016   6.452  18.627  0.00  0.00    +0.000 A 
ATOM      8  C   UNL     1       2.998   7.453  17.659  0.00  0.00    +0.000 A 
ATOM      9  C   UNL     1       2.364   8.680  17.905  0.00  0.00    +0.000 A 
ATOM     10  C   UNL     1       1.735   8.907  19.151  0.00  0.00    +0.000 A 
ATOM     11  C   UNL     1       0.953   9.993  19.714  0.00  0.00    +0.000 A 
ATOM     12  H   UNL     1       1.004   7.773  22.043  0.00  0.00    +0.000 HD
ENDBRANCH   1  11
BRANCH   1  13
ATOM     13  C   UNL     1       0.988  12.557  19.594  0.00  0.00    +0.000 A 
ATOM     14  C   UNL     1       0.551  13.204  20.727  0.00  0.00    +0.000 A 
ATOM     15  C   UNL     1       1.454  14.261  20.970  0.00  0.00    +0.000 A 
ATOM     16  C   UNL     1       1.638  15.139  22.047  0.00  0.00    +0.000 A 
ATOM     17  C   UNL     1       2.624  16.131  21.988  0.00  0.00    +0.000 A 
ATOM     18  C   UNL     1       3.405  16.201  20.813  0.00  0.00    +0.000 A 
ATOM     19  C   UNL     1       3.259  15.348  19.677  0.00  0.00    +0.000 A 
ATOM     20  C   UNL     1       2.275  14.352  19.853  0.00  0.00    +0.000 A 
ATOM     21  O   UNL     1       1.979  13.309  19.004  0.00  0.00    +0.000 OA
BRANCH  17  22
ATOM     22  C   UNL     1       2.860  17.080  23.181  0.00  0.00    +0.000 C 
ATOM     23  C   UNL     1       3.989  16.503  24.057  0.00  0.00    +0.000 C 
ATOM     24  C   UNL     1       3.260  18.502  22.726  0.00  0.00    +0.000 C 
ATOM     25  C   UNL     1       1.599  17.248  24.062  0.00  0.00    +0.000 C 
ENDBRANCH  17  22
BRANCH  19  26
ATOM     26  C   UNL     1       4.108  15.539  18.408  0.00  0.00    +0.000 C 
ATOM     27  C   UNL     1       4.966  14.302  18.037  0.00  0.00    +0.000 C 
ATOM     28  C   UNL     1       3.201  15.836  17.200  0.00  0.00    +0.000 C 
ATOM     29  C   UNL     1       5.095  16.710  18.606  0.00  0.00    +0.000 C 
ENDBRANCH  19  26
ENDBRANCH   1  13
BRANCH   1  30
ATOM     30  C   UNL     1      -0.940  11.200  18.667  0.00  0.00    +0.000 A 
ATOM     31  C   UNL     1      -1.877  12.092  19.225  0.00  0.00    +0.000 A 
ATOM     32  C   UNL     1      -3.236  12.023  18.911  0.00  0.00    +0.000 A 
ATOM     33  C   UNL     1      -3.687  11.063  18.018  0.00  0.00    +0.000 A 
ATOM     34 CL   UNL     1      -5.359  10.987  17.624  0.00  0.00    +0.000 Cl
ATOM     35  C   UNL     1      -2.790  10.167  17.443  0.00  0.00    +0.000 A 
ATOM     36  C   UNL     1      -1.427  10.236  17.762  0.00  0.00    +0.000 A 
ENDBRANCH   1  30
TORSDOF 5
ENDMDL
MODEL 9
REMARK VINA RESULT:      -8.5      2.646      8.116
REMARK  Name = 
REMARK  12 active torsions:
REMARK  status: ('A' for Active; 'I' for Inactive)
REMARK    1  A    between atoms: C_1  and  C_2
REMARK    2  A    between atoms: C_10  and  C_11
REMARK    3  A    between atoms: C_11  and  C_12
REMARK    4  A    between atoms: C_11  and  C_19
REMARK    5  A    between atoms: C_23  and  C_24
REMARK    6  A    between atoms: C_24  and  C_25
REMARK    7  A    between atoms: C_24  and  C_26
REMARK    8  A    between atoms: C_24  and  C_27
REMARK    9  A    between atoms: C_29  and  C_30
REMARK   10  A    between atoms: C_30  and  C_31
REMARK   11  A    between atoms: C_30  and  C_32
REMARK   12  A    between atoms: C_30  and  C_33
REMARK                            x       y       z     vdW  Elec       q    Type
REMARK                         _______ _______ _______ _____ _____    ______ ____
ROOT
ATOM      1  C   UNL     1       0.591  11.246  18.865  0.00  0.00    +0.000 C 
ENDROOT
BRANCH   1  11
ATOM      2  C   UNL     1      -0.342  10.166  21.986  0.00  0.00    +0.000 C 
ATOM      3  C   UNL     1       0.545   9.575  20.946  0.00  0.00    +0.000 A 
ATOM      4  N   UNL     1       1.081   8.335  21.185  0.00  0.00    +0.000 N 
ATOM      5  C   UNL     1       1.770   7.879  20.095  0.00  0.00    +0.000 A 
ATOM      6  C   UNL     1       2.398   6.641  19.902  0.00  0.00    +0.000 A 
ATOM      7  C   UNL     1       3.034   6.426  18.682  0.00  0.00    +0.000 A 
ATOM      8  C   UNL     1       3.043   7.415  17.701  0.00  0.00    +0.000 A 
ATOM      9  C   UNL     1       2.403   8.644  17.913  0.00  0.00    +0.000 A 
ATOM     10  C   UNL     1       1.741   8.888  19.139  0.00  0.00    +0.000 A 
ATOM     11  C   UNL     1       0.946   9.982  19.666  0.00  0.00    +0.000 A 
ATOM     12  H   UNL     1       0.931   7.794  22.024  0.00  0.00    +0.000 HD
ENDBRANCH   1  11
BRANCH   1  13
ATOM     13  C   UNL     1       0.958  12.546  19.527  0.00  0.00    +0.000 A 
ATOM     14  C   UNL     1       0.476  13.188  20.644  0.00  0.00    +0.000 A 
ATOM     15  C   UNL     1       1.350  14.262  20.911  0.00  0.00    +0.000 A 
ATOM     16  C   UNL     1       1.486  15.147  21.990  0.00  0.00    +0.000 A 
ATOM     17  C   UNL     1       2.454  16.156  21.958  0.00  0.00    +0.000 A 
ATOM     18  C   UNL     1       3.269  16.238  20.806  0.00  0.00    +0.000 A 
ATOM     19  C   UNL     1       3.174  15.379  19.670  0.00  0.00    +0.000 A 
ATOM     20  C   UNL     1       2.204  14.365  19.819  0.00  0.00    +0.000 A 
ATOM     21  O   UNL     1       1.953  13.314  18.965  0.00  0.00    +0.000 OA
BRANCH  17  22
ATOM     22  C   UNL     1       2.637  17.113  23.153  0.00  0.00    +0.000 C 
ATOM     23  C   UNL     1       2.963  18.520  22.617  0.00  0.00    +0.000 C 
ATOM     24  C   UNL     1       1.369  17.197  24.034  0.00  0.00    +0.000 C 
ATOM     25  C   UNL     1       3.786  16.674  24.093  0.00  0.00    +0.000 C 
ENDBRANCH  17  22
BRANCH  19  26
ATOM     26  C   UNL     1       4.058  15.582  18.426  0.00  0.00    +0.000 C 
ATOM     27  C   UNL     1       4.882  14.329  18.033  0.00  0.00    +0.000 C 
ATOM     28  C   UNL     1       3.188  15.948  17.209  0.00  0.00    +0.000 C 
ATOM     29  C   UNL     1       5.078  16.712  18.685  0.00  0.00    +0.000 C 
ENDBRANCH  19  26
ENDBRANCH   1  13
BRANCH   1  30
ATOM     30  C   UNL     1      -0.911  11.161  18.525  0.00  0.00    +0.000 A 
ATOM     31  C   UNL     1      -1.473  10.171  17.694  0.00  0.00    +0.000 A 
ATOM     32  C   UNL     1      -2.847  10.106  17.453  0.00  0.00    +0.000 A 
ATOM     33  C   UNL     1      -3.694  11.026  18.052  0.00  0.00    +0.000 A 
ATOM     34 CL   UNL     1      -5.387  10.936  17.763  0.00  0.00    +0.000 Cl
ATOM     35  C   UNL     1      -3.176  12.016  18.882  0.00  0.00    +0.000 A 
ATOM     36  C   UNL     1      -1.796  12.081  19.120  0.00  0.00    +0.000 A 
ENDBRANCH   1  30
TORSDOF 5
ENDMDL
