MODEL 1
REMARK VINA RESULT:      -8.5      0.000      0.000
REMARK  Name = 
REMARK  9 active torsions:
REMARK  status: ('A' for Active; 'I' for Inactive)
REMARK    1  A    between atoms: C_1  and  O_2
REMARK    2  A    between atoms: O_2  and  C_3
REMARK    3  A    between atoms: C_5  and  C_6
REMARK    4  A    between atoms: C_6  and  N_7
REMARK    5  A    between atoms: C_9  and  C_10
REMARK    6  A    between atoms: C_10  and  O_11
REMARK    7  A    between atoms: O_11  and  C_12
REMARK    8  A    between atoms: C_22  and  C_23
REMARK    9  A    between atoms: C_22  and  C_24
REMARK                            x       y       z     vdW  Elec       q    Type
REMARK                         _______ _______ _______ _____ _____    ______ ____
ROOT
ATOM      1  C   UNL     1       5.521   4.568  17.390  0.00  0.00    +0.000 C 
ENDROOT
BRANCH   1   4
ATOM      2  C   UNL     1       3.289   6.038  18.998  0.00  0.00    +0.000 C 
ATOM      3  O   UNL     1       4.536   5.503  19.448  0.00  0.00    +0.000 OA
ATOM      4  C   UNL     1       4.791   4.290  18.716  0.00  0.00    +0.000 C 
ATOM      5  C   UNL     1       3.413   3.690  18.474  0.00  0.00    +0.000 C 
ATOM      6  O   UNL     1       3.062   2.798  19.539  0.00  0.00    +0.000 OA
ATOM      7  C   UNL     1       1.716   3.117  19.880  0.00  0.00    +0.000 C 
ATOM      8  C   UNL     1       1.505   2.904  21.371  0.00  0.00    +0.000 C 
ATOM      9  C   UNL     1       0.771   2.234  19.064  0.00  0.00    +0.000 C 
ATOM     10  O   UNL     1       1.469   4.482  19.554  0.00  0.00    +0.000 OA
ATOM     11  C   UNL     1       2.439   4.844  18.564  0.00  0.00    +0.000 C 
BRANCH   2  13
ATOM     12  C   UNL     1       2.632   8.007  17.871  0.00  0.00    +0.000 C 
ATOM     13  O   UNL     1       3.508   6.884  17.864  0.00  0.00    +0.000 OA
ENDBRANCH   2  13
ENDBRANCH   1   4
BRANCH   1  14
ATOM     14  N   UNL     1       6.399   5.722  17.395  0.00  0.00    +0.000 N 
ATOM     15  C   UNL     1       7.264   6.086  18.389  0.00  0.00    +0.000 A 
ATOM     16  C   UNL     1       7.702   7.336  18.002  0.00  0.00    +0.000 A 
ATOM     17  N   UNL     1       7.136   7.654  16.796  0.00  0.00    +0.000 NA
ATOM     18  N   UNL     1       6.331   6.665  16.444  0.00  0.00    +0.000 NA
BRANCH  16  19
ATOM     19  C   UNL     1       8.561   8.323  18.706  0.00  0.00    +0.000 C 
BRANCH  19  20
ATOM     20  O   UNL     1       8.697   9.531  17.955  0.00  0.00    +0.000 OA
BRANCH  20  21
ATOM     21  C   UNL     1       9.434  10.517  18.554  0.00  0.00    +0.000 A 
ATOM     22  C   UNL     1       9.403  10.510  19.949  0.00  0.00    +0.000 A 
ATOM     23  C   UNL     1      10.110  11.466  20.680  0.00  0.00    +0.000 A 
ATOM     24  C   UNL     1      10.871  12.425  20.017  0.00  0.00    +0.000 A 
ATOM     25  C   UNL     1      10.925  12.424  18.624  0.00  0.00    +0.000 A 
ATOM     26  C   UNL     1      10.211  11.470  17.892  0.00  0.00    +0.000 A 
ENDBRANCH  20  21
ENDBRANCH  19  20
ENDBRANCH  16  19
ENDBRANCH   1  14
TORSDOF 6
ENDMDL
MODEL 2
REMARK VINA RESULT:      -8.0      0.772      1.052
REMARK  Name = 
REMARK  9 active torsions:
REMARK  status: ('A' for Active; 'I' for Inactive)
REMARK    1  A    between atoms: C_1  and  O_2
REMARK    2  A    between atoms: O_2  and  C_3
REMARK    3  A    between atoms: C_5  and  C_6
REMARK    4  A    between atoms: C_6  and  N_7
REMARK    5  A    between atoms: C_9  and  C_10
REMARK    6  A    between atoms: C_10  and  O_11
REMARK    7  A    between atoms: O_11  and  C_12
REMARK    8  A    between atoms: C_22  and  C_23
REMARK    9  A    between atoms: C_22  and  C_24
REMARK                            x       y       z     vdW  Elec       q    Type
REMARK                         _______ _______ _______ _____ _____    ______ ____
ROOT
ATOM      1  C   UNL     1       6.093   4.734  17.570  0.00  0.00    +0.000 C 
ENDROOT
BRANCH   1   4
ATOM      2  C   UNL     1       3.604   5.959  18.996  0.00  0.00    +0.000 C 
ATOM      3  O   UNL     1       4.892   5.636  19.526  0.00  0.00    +0.000 OA
ATOM      4  C   UNL     1       5.349   4.432  18.883  0.00  0.00    +0.000 C 
ATOM      5  C   UNL     1       4.082   3.627  18.628  0.00  0.00    +0.000 C 
ATOM      6  O   UNL     1       3.811   2.757  19.734  0.00  0.00    +0.000 OA
ATOM      7  C   UNL     1       2.419   2.899  20.003  0.00  0.00    +0.000 C 
ATOM      8  C   UNL     1       2.173   2.745  21.497  0.00  0.00    +0.000 C 
ATOM      9  C   UNL     1       1.647   1.843  19.211  0.00  0.00    +0.000 C 
ATOM     10  O   UNL     1       1.998   4.193  19.582  0.00  0.00    +0.000 OA
ATOM     11  C   UNL     1       2.952   4.633  18.608  0.00  0.00    +0.000 C 
BRANCH   2  13
ATOM     12  C   UNL     1       2.899   7.899  17.848  0.00  0.00    +0.000 C 
ATOM     13  O   UNL     1       3.754   6.760  17.818  0.00  0.00    +0.000 OA
ENDBRANCH   2  13
ENDBRANCH   1   4
BRANCH   1  14
ATOM     14  N   UNL     1       6.854   5.968  17.558  0.00  0.00    +0.000 N 
ATOM     15  C   UNL     1       7.720   6.404  18.522  0.00  0.00    +0.000 A 
ATOM     16  C   UNL     1       8.018   7.694  18.138  0.00  0.00    +0.000 A 
ATOM     17  N   UNL     1       7.376   7.969  16.960  0.00  0.00    +0.000 NA
ATOM     18  N   UNL     1       6.657   6.911  16.625  0.00  0.00    +0.000 NA
BRANCH  16  19
ATOM     19  C   UNL     1       8.804   8.753  18.823  0.00  0.00    +0.000 C 
BRANCH  19  20
ATOM     20  O   UNL     1       8.952   9.913  18.001  0.00  0.00    +0.000 OA
BRANCH  20  21
ATOM     21  C   UNL     1       9.452  11.020  18.630  0.00  0.00    +0.000 A 
ATOM     22  C   UNL     1       8.926  12.235  18.192  0.00  0.00    +0.000 A 
ATOM     23  C   UNL     1       9.356  13.440  18.752  0.00  0.00    +0.000 A 
ATOM     24  C   UNL     1      10.306  13.432  19.771  0.00  0.00    +0.000 A 
ATOM     25  C   UNL     1      10.819  12.221  20.230  0.00  0.00    +0.000 A 
ATOM     26  C   UNL     1      10.392  11.015  19.664  0.00  0.00    +0.000 A 
ENDBRANCH  20  21
ENDBRANCH  19  20
ENDBRANCH  16  19
ENDBRANCH   1  14
TORSDOF 6
ENDMDL
MODEL 3
REMARK VINA RESULT:      -8.0      0.966      1.355
REMARK  Name = 
REMARK  9 active torsions:
REMARK  status: ('A' for Active; 'I' for Inactive)
REMARK    1  A    between atoms: C_1  and  O_2
REMARK    2  A    between atoms: O_2  and  C_3
REMARK    3  A    between atoms: C_5  and  C_6
REMARK    4  A    between atoms: C_6  and  N_7
REMARK    5  A    between atoms: C_9  and  C_10
REMARK    6  A    between atoms: C_10  and  O_11
REMARK    7  A    between atoms: O_11  and  C_12
REMARK    8  A    between atoms: C_22  and  C_23
REMARK    9  A    between atoms: C_22  and  C_24
REMARK                            x       y       z     vdW  Elec       q    Type
REMARK                         _______ _______ _______ _____ _____    ______ ____
ROOT
ATOM      1  C   UNL     1       5.507   4.929  17.801  0.00  0.00    +0.000 C 
ENDROOT
BRANCH   1   4
ATOM      2  C   UNL     1       2.967   6.122  19.163  0.00  0.00    +0.000 C 
ATOM      3  O   UNL     1       4.193   5.677  19.749  0.00  0.00    +0.000 OA
ATOM      4  C   UNL     1       4.648   4.527  19.012  0.00  0.00    +0.000 C 
ATOM      5  C   UNL     1       3.372   3.820  18.575  0.00  0.00    +0.000 C 
ATOM      6  O   UNL     1       2.975   2.852  19.554  0.00  0.00    +0.000 OA
ATOM      7  C   UNL     1       1.574   3.036  19.732  0.00  0.00    +0.000 C 
ATOM      8  C   UNL     1       1.202   2.735  21.176  0.00  0.00    +0.000 C 
ATOM      9  C   UNL     1       0.823   2.113  18.771  0.00  0.00    +0.000 C 
ATOM     10  O   UNL     1       1.245   4.388  19.426  0.00  0.00    +0.000 OA
ATOM     11  C   UNL     1       2.292   4.880  18.582  0.00  0.00    +0.000 C 
BRANCH   2  13
ATOM     12  C   UNL     1       2.291   8.092  18.050  0.00  0.00    +0.000 C 
ATOM     13  O   UNL     1       3.245   7.036  18.097  0.00  0.00    +0.000 OA
ENDBRANCH   2  13
ENDBRANCH   1   4
BRANCH   1  14
ATOM     14  N   UNL     1       6.453   6.001  18.041  0.00  0.00    +0.000 N 
ATOM     15  C   UNL     1       6.501   7.208  17.400  0.00  0.00    +0.000 A 
ATOM     16  C   UNL     1       7.680   7.769  17.842  0.00  0.00    +0.000 A 
ATOM     17  N   UNL     1       8.265   6.925  18.748  0.00  0.00    +0.000 NA
ATOM     18  N   UNL     1       7.512   5.842  18.849  0.00  0.00    +0.000 NA
BRANCH  16  19
ATOM     19  C   UNL     1       8.374   9.018  17.433  0.00  0.00    +0.000 C 
BRANCH  19  20
ATOM     20  O   UNL     1       8.216  10.051  18.408  0.00  0.00    +0.000 OA
BRANCH  20  21
ATOM     21  C   UNL     1       9.196  11.006  18.417  0.00  0.00    +0.000 A 
ATOM     22  C   UNL     1       8.880  12.181  17.734  0.00  0.00    +0.000 A 
ATOM     23  C   UNL     1       9.796  13.232  17.666  0.00  0.00    +0.000 A 
ATOM     24  C   UNL     1      11.031  13.119  18.300  0.00  0.00    +0.000 A 
ATOM     25  C   UNL     1      11.345  11.958  19.003  0.00  0.00    +0.000 A 
ATOM     26  C   UNL     1      10.429  10.903  19.065  0.00  0.00    +0.000 A 
ENDBRANCH  20  21
ENDBRANCH  19  20
ENDBRANCH  16  19
ENDBRANCH   1  14
TORSDOF 6
ENDMDL
MODEL 4
REMARK VINA RESULT:      -7.8      4.617      8.104
REMARK  Name = 
REMARK  9 active torsions:
REMARK  status: ('A' for Active; 'I' for Inactive)
REMARK    1  A    between atoms: C_1  and  O_2
REMARK    2  A    between atoms: O_2  and  C_3
REMARK    3  A    between atoms: C_5  and  C_6
REMARK    4  A    between atoms: C_6  and  N_7
REMARK    5  A    between atoms: C_9  and  C_10
REMARK    6  A    between atoms: C_10  and  O_11
REMARK    7  A    between atoms: O_11  and  C_12
REMARK    8  A    between atoms: C_22  and  C_23
REMARK    9  A    between atoms: C_22  and  C_24
REMARK                            x       y       z     vdW  Elec       q    Type
REMARK                         _______ _______ _______ _____ _____    ______ ____
ROOT
ATOM      1  C   UNL     1       2.714   6.526  18.953  0.00  0.00    +0.000 C 
ENDROOT
BRANCH   1   4
ATOM      2  C   UNL     1       4.473   3.949  18.950  0.00  0.00    +0.000 C 
ATOM      3  O   UNL     1       4.788   5.269  19.400  0.00  0.00    +0.000 OA
ATOM      4  C   UNL     1       4.153   6.207  18.511  0.00  0.00    +0.000 C 
ATOM      5  C   UNL     1       4.175   5.524  17.151  0.00  0.00    +0.000 C 
ATOM      6  O   UNL     1       5.364   5.876  16.433  0.00  0.00    +0.000 OA
ATOM      7  C   UNL     1       5.863   4.656  15.892  0.00  0.00    +0.000 C 
ATOM      8  C   UNL     1       7.383   4.702  15.853  0.00  0.00    +0.000 C 
ATOM      9  C   UNL     1       5.287   4.459  14.490  0.00  0.00    +0.000 C 
ATOM     10  O   UNL     1       5.441   3.578  16.722  0.00  0.00    +0.000 OA
ATOM     11  C   UNL     1       4.289   4.042  17.436  0.00  0.00    +0.000 C 
BRANCH   2  13
ATOM     12  C   UNL     1       2.708   2.381  18.870  0.00  0.00    +0.000 C 
ATOM     13  O   UNL     1       3.239   3.522  19.538  0.00  0.00    +0.000 OA
ENDBRANCH   2  13
ENDBRANCH   1   4
BRANCH   1  14
ATOM     14  N   UNL     1       2.272   7.883  18.696  0.00  0.00    +0.000 N 
ATOM     15  C   UNL     1       1.417   8.623  19.463  0.00  0.00    +0.000 A 
ATOM     16  C   UNL     1       1.168   9.741  18.695  0.00  0.00    +0.000 A 
ATOM     17  N   UNL     1       1.901   9.661  17.541  0.00  0.00    +0.000 NA
ATOM     18  N   UNL     1       2.559   8.514  17.548  0.00  0.00    +0.000 NA
BRANCH  16  19
ATOM     19  C   UNL     1       0.228  10.872  18.903  0.00  0.00    +0.000 C 
BRANCH  19  20
ATOM     20  O   UNL     1      -1.097  10.412  19.176  0.00  0.00    +0.000 OA
BRANCH  20  21
ATOM     21  C   UNL     1      -1.979  10.507  18.134  0.00  0.00    +0.000 A 
ATOM     22  C   UNL     1      -3.034  11.397  18.335  0.00  0.00    +0.000 A 
ATOM     23  C   UNL     1      -4.004  11.583  17.348  0.00  0.00    +0.000 A 
ATOM     24  C   UNL     1      -3.912  10.890  16.144  0.00  0.00    +0.000 A 
ATOM     25  C   UNL     1      -2.849  10.016  15.927  0.00  0.00    +0.000 A 
ATOM     26  C   UNL     1      -1.881   9.826  16.918  0.00  0.00    +0.000 A 
ENDBRANCH  20  21
ENDBRANCH  19  20
ENDBRANCH  16  19
ENDBRANCH   1  14
TORSDOF 6
ENDMDL
MODEL 5
REMARK VINA RESULT:      -7.8      4.143      7.858
REMARK  Name = 
REMARK  9 active torsions:
REMARK  status: ('A' for Active; 'I' for Inactive)
REMARK    1  A    between atoms: C_1  and  O_2
REMARK    2  A    between atoms: O_2  and  C_3
REMARK    3  A    between atoms: C_5  and  C_6
REMARK    4  A    between atoms: C_6  and  N_7
REMARK    5  A    between atoms: C_9  and  C_10
REMARK    6  A    between atoms: C_10  and  O_11
REMARK    7  A    between atoms: O_11  and  C_12
REMARK    8  A    between atoms: C_22  and  C_23
REMARK    9  A    between atoms: C_22  and  C_24
REMARK                            x       y       z     vdW  Elec       q    Type
REMARK                         _______ _______ _______ _____ _____    ______ ____
ROOT
ATOM      1  C   UNL     1       3.342   7.426  17.991  0.00  0.00    +0.000 C 
ENDROOT
BRANCH   1   4
ATOM      2  C   UNL     1       5.039   4.809  17.944  0.00  0.00    +0.000 C 
ATOM      3  O   UNL     1       4.010   5.245  17.052  0.00  0.00    +0.000 OA
ATOM      4  C   UNL     1       3.010   5.932  17.827  0.00  0.00    +0.000 C 
ATOM      5  C   UNL     1       3.005   5.216  19.171  0.00  0.00    +0.000 C 
ATOM      6  O   UNL     1       2.053   4.146  19.164  0.00  0.00    +0.000 OA
ATOM      7  C   UNL     1       2.722   3.032  19.750  0.00  0.00    +0.000 C 
ATOM      8  C   UNL     1       2.227   1.746  19.105  0.00  0.00    +0.000 C 
ATOM      9  C   UNL     1       2.456   3.025  21.255  0.00  0.00    +0.000 C 
ATOM     10  O   UNL     1       4.122   3.168  19.528  0.00  0.00    +0.000 OA
ATOM     11  C   UNL     1       4.363   4.560  19.292  0.00  0.00    +0.000 C 
BRANCH   2  13
ATOM     12  C   UNL     1       6.899   5.573  19.183  0.00  0.00    +0.000 C 
ATOM     13  O   UNL     1       6.013   5.847  18.102  0.00  0.00    +0.000 OA
ENDBRANCH   2  13
ENDBRANCH   1   4
BRANCH   1  14
ATOM     14  N   UNL     1       2.271   8.244  18.527  0.00  0.00    +0.000 N 
ATOM     15  C   UNL     1       1.617   9.257  17.883  0.00  0.00    +0.000 A 
ATOM     16  C   UNL     1       0.849   9.834  18.873  0.00  0.00    +0.000 A 
ATOM     17  N   UNL     1       1.026   9.137  20.039  0.00  0.00    +0.000 NA
ATOM     18  N   UNL     1       1.909   8.177  19.816  0.00  0.00    +0.000 NA
BRANCH  16  19
ATOM     19  C   UNL     1       0.001  11.054  18.857  0.00  0.00    +0.000 C 
BRANCH  19  20
ATOM     20  O   UNL     1      -1.370  10.745  19.120  0.00  0.00    +0.000 OA
BRANCH  20  21
ATOM     21  C   UNL     1      -2.181  10.684  18.019  0.00  0.00    +0.000 A 
ATOM     22  C   UNL     1      -3.305  11.509  18.070  0.00  0.00    +0.000 A 
ATOM     23  C   UNL     1      -4.215  11.536  17.011  0.00  0.00    +0.000 A 
ATOM     24  C   UNL     1      -3.992  10.750  15.883  0.00  0.00    +0.000 A 
ATOM     25  C   UNL     1      -2.859   9.942  15.816  0.00  0.00    +0.000 A 
ATOM     26  C   UNL     1      -1.952   9.910  16.880  0.00  0.00    +0.000 A 
ENDBRANCH  20  21
ENDBRANCH  19  20
ENDBRANCH  16  19
ENDBRANCH   1  14
TORSDOF 6
ENDMDL
MODEL 6
REMARK VINA RESULT:      -7.8      1.540      2.333
REMARK  Name = 
REMARK  9 active torsions:
REMARK  status: ('A' for Active; 'I' for Inactive)
REMARK    1  A    between atoms: C_1  and  O_2
REMARK    2  A    between atoms: O_2  and  C_3
REMARK    3  A    between atoms: C_5  and  C_6
REMARK    4  A    between atoms: C_6  and  N_7
REMARK    5  A    between atoms: C_9  and  C_10
REMARK    6  A    between atoms: C_10  and  O_11
REMARK    7  A    between atoms: O_11  and  C_12
REMARK    8  A    between atoms: C_22  and  C_23
REMARK    9  A    between atoms: C_22  and  C_24
REMARK                            x       y       z     vdW  Elec       q    Type
REMARK                         _______ _______ _______ _____ _____    ______ ____
ROOT
ATOM      1  C   UNL     1       6.778   5.520  18.033  0.00  0.00    +0.000 C 
ENDROOT
BRANCH   1   4
ATOM      2  C   UNL     1       4.308   4.094  16.770  0.00  0.00    +0.000 C 
ATOM      3  O   UNL     1       4.509   5.478  17.068  0.00  0.00    +0.000 OA
ATOM      4  C   UNL     1       5.262   5.565  18.292  0.00  0.00    +0.000 C 
ATOM      5  C   UNL     1       4.805   4.367  19.112  0.00  0.00    +0.000 C 
ATOM      6  O   UNL     1       3.694   4.723  19.944  0.00  0.00    +0.000 OA
ATOM      7  C   UNL     1       2.750   3.666  19.799  0.00  0.00    +0.000 C 
ATOM      8  C   UNL     1       1.339   4.227  19.902  0.00  0.00    +0.000 C 
ATOM      9  C   UNL     1       3.001   2.620  20.885  0.00  0.00    +0.000 C 
ATOM     10  O   UNL     1       2.930   3.060  18.523  0.00  0.00    +0.000 OA
ATOM     11  C   UNL     1       4.267   3.366  18.112  0.00  0.00    +0.000 C 
BRANCH   2  13
ATOM     12  C   UNL     1       5.533   4.269  14.758  0.00  0.00    +0.000 C 
ATOM     13  O   UNL     1       5.416   3.599  16.010  0.00  0.00    +0.000 OA
ENDBRANCH   2  13
ENDBRANCH   1   4
BRANCH   1  14
ATOM     14  N   UNL     1       7.433   6.812  17.954  0.00  0.00    +0.000 N 
ATOM     15  C   UNL     1       8.318   7.336  18.854  0.00  0.00    +0.000 A 
ATOM     16  C   UNL     1       8.484   8.639  18.432  0.00  0.00    +0.000 A 
ATOM     17  N   UNL     1       7.749   8.836  17.294  0.00  0.00    +0.000 NA
ATOM     18  N   UNL     1       7.101   7.716  17.021  0.00  0.00    +0.000 NA
BRANCH  16  19
ATOM     19  C   UNL     1       9.221   9.771  19.049  0.00  0.00    +0.000 C 
BRANCH  19  20
ATOM     20  O   UNL     1       9.058  10.976  18.299  0.00  0.00    +0.000 OA
BRANCH  20  21
ATOM     21  C   UNL     1      10.031  11.920  18.482  0.00  0.00    +0.000 A 
ATOM     22  C   UNL     1       9.792  12.819  19.522  0.00  0.00    +0.000 A 
ATOM     23  C   UNL     1      10.708  13.833  19.810  0.00  0.00    +0.000 A 
ATOM     24  C   UNL     1      11.881  13.941  19.067  0.00  0.00    +0.000 A 
ATOM     25  C   UNL     1      12.138  13.033  18.042  0.00  0.00    +0.000 A 
ATOM     26  C   UNL     1      11.217  12.022  17.750  0.00  0.00    +0.000 A 
ENDBRANCH  20  21
ENDBRANCH  19  20
ENDBRANCH  16  19
ENDBRANCH   1  14
TORSDOF 6
ENDMDL
MODEL 7
REMARK VINA RESULT:      -7.7      1.771      2.758
REMARK  Name = 
REMARK  9 active torsions:
REMARK  status: ('A' for Active; 'I' for Inactive)
REMARK    1  A    between atoms: C_1  and  O_2
REMARK    2  A    between atoms: O_2  and  C_3
REMARK    3  A    between atoms: C_5  and  C_6
REMARK    4  A    between atoms: C_6  and  N_7
REMARK    5  A    between atoms: C_9  and  C_10
REMARK    6  A    between atoms: C_10  and  O_11
REMARK    7  A    between atoms: O_11  and  C_12
REMARK    8  A    between atoms: C_22  and  C_23
REMARK    9  A    between atoms: C_22  and  C_24
REMARK                            x       y       z     vdW  Elec       q    Type
REMARK                         _______ _______ _______ _____ _____    ______ ____
ROOT
ATOM      1  C   UNL     1       7.054   5.587  18.247  0.00  0.00    +0.000 C 
ENDROOT
BRANCH   1   4
ATOM      2  C   UNL     1       4.894   5.036  16.064  0.00  0.00    +0.000 C 
ATOM      3  O   UNL     1       4.971   6.091  17.026  0.00  0.00    +0.000 OA
ATOM      4  C   UNL     1       5.516   5.547  18.242  0.00  0.00    +0.000 C 
ATOM      5  C   UNL     1       5.000   4.115  18.288  0.00  0.00    +0.000 C 
ATOM      6  O   UNL     1       3.754   4.054  18.993  0.00  0.00    +0.000 OA
ATOM      7  C   UNL     1       2.903   3.232  18.200  0.00  0.00    +0.000 C 
ATOM      8  C   UNL     1       1.465   3.714  18.329  0.00  0.00    +0.000 C 
ATOM      9  C   UNL     1       3.035   1.781  18.664  0.00  0.00    +0.000 C 
ATOM     10  O   UNL     1       3.314   3.321  16.839  0.00  0.00    +0.000 OA
ATOM     11  C   UNL     1       4.681   3.747  16.855  0.00  0.00    +0.000 C 
BRANCH   2  13
ATOM     12  C   UNL     1       6.036   4.045  14.250  0.00  0.00    +0.000 C 
ATOM     13  O   UNL     1       6.133   4.941  15.353  0.00  0.00    +0.000 OA
ENDBRANCH   2  13
ENDBRANCH   1   4
BRANCH   1  14
ATOM     14  N   UNL     1       7.640   6.904  18.087  0.00  0.00    +0.000 N 
ATOM     15  C   UNL     1       8.429   7.562  18.989  0.00  0.00    +0.000 A 
ATOM     16  C   UNL     1       8.552   8.828  18.456  0.00  0.00    +0.000 A 
ATOM     17  N   UNL     1       7.891   8.874  17.258  0.00  0.00    +0.000 NA
ATOM     18  N   UNL     1       7.326   7.696  17.052  0.00  0.00    +0.000 NA
BRANCH  16  19
ATOM     19  C   UNL     1       9.181  10.056  19.008  0.00  0.00    +0.000 C 
BRANCH  19  20
ATOM     20  O   UNL     1       8.777  11.222  18.288  0.00  0.00    +0.000 OA
BRANCH  20  21
ATOM     21  C   UNL     1       9.777  12.111  18.000  0.00  0.00    +0.000 A 
ATOM     22  C   UNL     1       9.374  13.444  17.909  0.00  0.00    +0.000 A 
ATOM     23  C   UNL     1      10.298  14.448  17.616  0.00  0.00    +0.000 A 
ATOM     24  C   UNL     1      11.640  14.124  17.431  0.00  0.00    +0.000 A 
ATOM     25  C   UNL     1      12.055  12.799  17.542  0.00  0.00    +0.000 A 
ATOM     26  C   UNL     1      11.126  11.793  17.829  0.00  0.00    +0.000 A 
ENDBRANCH  20  21
ENDBRANCH  19  20
ENDBRANCH  16  19
ENDBRANCH   1  14
TORSDOF 6
ENDMDL
MODEL 8
REMARK VINA RESULT:      -7.7      4.660      7.940
REMARK  Name = 
REMARK  9 active torsions:
REMARK  status: ('A' for Active; 'I' for Inactive)
REMARK    1  A    between atoms: C_1  and  O_2
REMARK    2  A    between atoms: O_2  and  C_3
REMARK    3  A    between atoms: C_5  and  C_6
REMARK    4  A    between atoms: C_6  and  N_7
REMARK    5  A    between atoms: C_9  and  C_10
REMARK    6  A    between atoms: C_10  and  O_11
REMARK    7  A    between atoms: O_11  and  C_12
REMARK    8  A    between atoms: C_22  and  C_23
REMARK    9  A    between atoms: C_22  and  C_24
REMARK                            x       y       z     vdW  Elec       q    Type
REMARK                         _______ _______ _______ _____ _____    ______ ____
ROOT
ATOM      1  C   UNL     1       2.514   6.169  19.300  0.00  0.00    +0.000 C 
ENDROOT
BRANCH   1   4
ATOM      2  C   UNL     1       4.026   3.478  18.848  0.00  0.00    +0.000 C 
ATOM      3  O   UNL     1       4.397   4.612  19.636  0.00  0.00    +0.000 OA
ATOM      4  C   UNL     1       3.963   5.797  18.943  0.00  0.00    +0.000 C 
ATOM      5  C   UNL     1       4.098   5.451  17.466  0.00  0.00    +0.000 C 
ATOM      6  O   UNL     1       5.395   5.820  16.981  0.00  0.00    +0.000 OA
ATOM      7  C   UNL     1       5.849   4.710  16.213  0.00  0.00    +0.000 C 
ATOM      8  C   UNL     1       7.360   4.588  16.341  0.00  0.00    +0.000 C 
ATOM      9  C   UNL     1       5.439   4.911  14.754  0.00  0.00    +0.000 C 
ATOM     10  O   UNL     1       5.232   3.525  16.707  0.00  0.00    +0.000 OA
ATOM     11  C   UNL     1       4.044   3.940  17.392  0.00  0.00    +0.000 C 
BRANCH   2  13
ATOM     12  C   UNL     1       2.097   2.316  18.136  0.00  0.00    +0.000 C 
ATOM     13  O   UNL     1       2.695   3.072  19.185  0.00  0.00    +0.000 OA
ENDBRANCH   2  13
ENDBRANCH   1   4
BRANCH   1  14
ATOM     14  N   UNL     1       2.171   7.567  19.127  0.00  0.00    +0.000 N 
ATOM     15  C   UNL     1       1.501   8.360  20.016  0.00  0.00    +0.000 A 
ATOM     16  C   UNL     1       1.257   9.518  19.306  0.00  0.00    +0.000 A 
ATOM     17  N   UNL     1       1.817   9.404  18.062  0.00  0.00    +0.000 NA
ATOM     18  N   UNL     1       2.359   8.202  17.960  0.00  0.00    +0.000 NA
BRANCH  16  19
ATOM     19  C   UNL     1       0.465  10.724  19.659  0.00  0.00    +0.000 C 
BRANCH  19  20
ATOM     20  O   UNL     1      -0.067  11.362  18.497  0.00  0.00    +0.000 OA
BRANCH  20  21
ATOM     21  C   UNL     1      -1.408  11.181  18.287  0.00  0.00    +0.000 A 
ATOM     22  C   UNL     1      -1.733  10.127  17.434  0.00  0.00    +0.000 A 
ATOM     23  C   UNL     1      -3.066   9.839  17.136  0.00  0.00    +0.000 A 
ATOM     24  C   UNL     1      -4.085  10.597  17.708  0.00  0.00    +0.000 A 
ATOM     25  C   UNL     1      -3.769  11.637  18.580  0.00  0.00    +0.000 A 
ATOM     26  C   UNL     1      -2.432  11.928  18.872  0.00  0.00    +0.000 A 
ENDBRANCH  20  21
ENDBRANCH  19  20
ENDBRANCH  16  19
ENDBRANCH   1  14
TORSDOF 6
ENDMDL
MODEL 9
REMARK VINA RESULT:      -7.6      4.477      7.747
REMARK  Name = 
REMARK  9 active torsions:
REMARK  status: ('A' for Active; 'I' for Inactive)
REMARK    1  A    between atoms: C_1  and  O_2
REMARK    2  A    between atoms: O_2  and  C_3
REMARK    3  A    between atoms: C_5  and  C_6
REMARK    4  A    between atoms: C_6  and  N_7
REMARK    5  A    between atoms: C_9  and  C_10
REMARK    6  A    between atoms: C_10  and  O_11
REMARK    7  A    between atoms: O_11  and  C_12
REMARK    8  A    between atoms: C_22  and  C_23
REMARK    9  A    between atoms: C_22  and  C_24
REMARK                            x       y       z     vdW  Elec       q    Type
REMARK                         _______ _______ _______ _____ _____    ______ ____
ROOT
ATOM      1  C   UNL     1       3.353   7.181  18.420  0.00  0.00    +0.000 C 
ENDROOT
BRANCH   1   4
ATOM      2  C   UNL     1       4.248   4.213  18.077  0.00  0.00    +0.000 C 
ATOM      3  O   UNL     1       3.391   5.008  17.254  0.00  0.00    +0.000 OA
ATOM      4  C   UNL     1       2.617   5.865  18.114  0.00  0.00    +0.000 C 
ATOM      5  C   UNL     1       2.401   5.046  19.380  0.00  0.00    +0.000 C 
ATOM      6  O   UNL     1       1.186   4.291  19.285  0.00  0.00    +0.000 OA
ATOM      7  C   UNL     1       1.511   2.981  19.743  0.00  0.00    +0.000 C 
ATOM      8  C   UNL     1       0.681   1.958  18.982  0.00  0.00    +0.000 C 
ATOM      9  C   UNL     1       1.242   2.895  21.245  0.00  0.00    +0.000 C 
ATOM     10  O   UNL     1       2.895   2.741  19.507  0.00  0.00    +0.000 OA
ATOM     11  C   UNL     1       3.519   4.027  19.406  0.00  0.00    +0.000 C 
BRANCH   2  13
ATOM     12  C   UNL     1       6.228   5.075  17.121  0.00  0.00    +0.000 C 
ATOM     13  O   UNL     1       5.473   4.915  18.318  0.00  0.00    +0.000 OA
ENDBRANCH   2  13
ENDBRANCH   1   4
BRANCH   1  14
ATOM     14  N   UNL     1       2.529   8.374  18.385  0.00  0.00    +0.000 N 
ATOM     15  C   UNL     1       1.607   8.758  19.319  0.00  0.00    +0.000 A 
ATOM     16  C   UNL     1       0.970   9.830  18.731  0.00  0.00    +0.000 A 
ATOM     17  N   UNL     1       1.547  10.080  17.514  0.00  0.00    +0.000 NA
ATOM     18  N   UNL     1       2.489   9.174  17.309  0.00  0.00    +0.000 NA
BRANCH  16  19
ATOM     19  C   UNL     1      -0.209  10.619  19.172  0.00  0.00    +0.000 C 
BRANCH  19  20
ATOM     20  O   UNL     1      -1.422   9.877  19.028  0.00  0.00    +0.000 OA
BRANCH  20  21
ATOM     21  C   UNL     1      -2.199  10.222  17.955  0.00  0.00    +0.000 A 
ATOM     22  C   UNL     1      -3.256  11.086  18.247  0.00  0.00    +0.000 A 
ATOM     23  C   UNL     1      -4.125  11.510  17.241  0.00  0.00    +0.000 A 
ATOM     24  C   UNL     1      -3.929  11.087  15.929  0.00  0.00    +0.000 A 
ATOM     25  C   UNL     1      -2.862  10.243  15.626  0.00  0.00    +0.000 A 
ATOM     26  C   UNL     1      -1.996   9.813  16.636  0.00  0.00    +0.000 A 
ENDBRANCH  20  21
ENDBRANCH  19  20
ENDBRANCH  16  19
ENDBRANCH   1  14
TORSDOF 6
ENDMDL
