MODEL 1
REMARK VINA RESULT:      -7.9      0.000      0.000
REMARK  Name = 
REMARK  12 active torsions:
REMARK  status: ('A' for Active; 'I' for Inactive)
REMARK    1  A    between atoms: N_1  and  C_2
REMARK    2  A    between atoms: C_2  and  C_3
REMARK    3  A    between atoms: C_3  and  N_4
REMARK    4  A    between atoms: C_5  and  C_7
REMARK    5  A    between atoms: C_7  and  C_8
REMARK    6  A    between atoms: C_7  and  C_10
REMARK    7  A    between atoms: C_7  and  C_21
REMARK    8  A    between atoms: C_8  and  N_9
REMARK    9  A    between atoms: C_10  and  C_11
REMARK   10  A    between atoms: C_16  and  C_17
REMARK   11  A    between atoms: C_21  and  C_22
REMARK   12  A    between atoms: C_27  and  C_28
REMARK                            x       y       z     vdW  Elec       q    Type
REMARK                         _______ _______ _______ _____ _____    ______ ____
ROOT
ATOM      1  C   UNL     1       3.034   5.736  18.916  0.00  0.00    +0.000 C 
ENDROOT
BRANCH   1   3
ATOM      2  N   UNL     1       4.235   3.569  19.310  0.00  0.00    +0.000 N 
ATOM      3  C   UNL     1       3.195   4.397  19.671  0.00  0.00    +0.000 C 
ATOM      4  O   UNL     1       2.407   4.029  20.551  0.00  0.00    +0.000 OA
ATOM      5  H   UNL     1       4.896   3.805  18.578  0.00  0.00    +0.000 HD
BRANCH   2   6
ATOM      6  C   UNL     1       4.251   2.173  19.732  0.00  0.00    +0.000 C 
BRANCH   6   7
ATOM      7  C   UNL     1       3.625   1.247  18.677  0.00  0.00    +0.000 C 
BRANCH   7   8
ATOM      8  N   UNL     1       2.168   1.398  18.618  0.00  0.00    +0.000 NA
ATOM      9  H   UNL     1       1.941   2.038  17.854  0.00  0.00    +0.000 HD
ATOM     10  H   UNL     1       1.850   1.864  19.468  0.00  0.00    +0.000 HD
ENDBRANCH   7   8
ENDBRANCH   6   7
ENDBRANCH   2   6
ENDBRANCH   1   3
BRANCH   1  11
ATOM     11  C   UNL     1       1.976   5.485  17.799  0.00  0.00    +0.000 C 
BRANCH  11  12
ATOM     12  N   UNL     1       1.568   4.092  17.612  0.00  0.00    +0.000 NA
ATOM     13  H   UNL     1       2.006   3.695  16.782  0.00  0.00    +0.000 HD
ATOM     14  H   UNL     1       0.561   4.051  17.442  0.00  0.00    +0.000 HD
ENDBRANCH  11  12
ENDBRANCH   1  11
BRANCH   1  15
ATOM     15  C   UNL     1       2.530   6.857  19.909  0.00  0.00    +0.000 C 
BRANCH  15  16
ATOM     16  C   UNL     1       1.948   8.176  19.374  0.00  0.00    +0.000 A 
ATOM     17  C   UNL     1       2.304   8.663  18.099  0.00  0.00    +0.000 A 
ATOM     18  C   UNL     1       1.966   9.936  17.640  0.00  0.00    +0.000 A 
ATOM     19  C   UNL     1       1.228  10.773  18.447  0.00  0.00    +0.000 A 
ATOM     20  C   UNL     1       0.785  10.304  19.680  0.00  0.00    +0.000 A 
ATOM     21  C   UNL     1       1.108   9.007  20.157  0.00  0.00    +0.000 A 
BRANCH  21  22
ATOM     22  C   UNL     1       0.450   8.634  21.473  0.00  0.00    +0.000 C 
ATOM     23  F   UNL     1      -0.212   7.447  21.504  0.00  0.00    +0.000 F 
ATOM     24  F   UNL     1       1.347   8.573  22.497  0.00  0.00    +0.000 F 
ATOM     25  F   UNL     1      -0.470   9.569  21.853  0.00  0.00    +0.000 F 
ENDBRANCH  21  22
ENDBRANCH  15  16
ENDBRANCH   1  15
BRANCH   1  26
ATOM     26  C   UNL     1       4.384   6.296  18.325  0.00  0.00    +0.000 C 
BRANCH  26  27
ATOM     27  C   UNL     1       5.235   5.660  17.241  0.00  0.00    +0.000 A 
ATOM     28  C   UNL     1       4.693   5.251  16.016  0.00  0.00    +0.000 A 
ATOM     29  C   UNL     1       5.449   4.571  15.061  0.00  0.00    +0.000 A 
ATOM     30  C   UNL     1       6.784   4.302  15.299  0.00  0.00    +0.000 A 
ATOM     31  C   UNL     1       7.365   4.723  16.490  0.00  0.00    +0.000 A 
ATOM     32  C   UNL     1       6.616   5.405  17.476  0.00  0.00    +0.000 A 
BRANCH  32  33
ATOM     33  C   UNL     1       7.375   5.789  18.734  0.00  0.00    +0.000 C 
ATOM     34  F   UNL     1       7.866   7.057  18.780  0.00  0.00    +0.000 F 
ATOM     35  F   UNL     1       6.605   5.659  19.855  0.00  0.00    +0.000 F 
ATOM     36  F   UNL     1       8.455   4.979  18.945  0.00  0.00    +0.000 F 
ENDBRANCH  32  33
ENDBRANCH  26  27
ENDBRANCH   1  26
TORSDOF 12
ENDMDL
MODEL 2
REMARK VINA RESULT:      -7.6      2.444      6.256
REMARK  Name = 
REMARK  12 active torsions:
REMARK  status: ('A' for Active; 'I' for Inactive)
REMARK    1  A    between atoms: N_1  and  C_2
REMARK    2  A    between atoms: C_2  and  C_3
REMARK    3  A    between atoms: C_3  and  N_4
REMARK    4  A    between atoms: C_5  and  C_7
REMARK    5  A    between atoms: C_7  and  C_8
REMARK    6  A    between atoms: C_7  and  C_10
REMARK    7  A    between atoms: C_7  and  C_21
REMARK    8  A    between atoms: C_8  and  N_9
REMARK    9  A    between atoms: C_10  and  C_11
REMARK   10  A    between atoms: C_16  and  C_17
REMARK   11  A    between atoms: C_21  and  C_22
REMARK   12  A    between atoms: C_27  and  C_28
REMARK                            x       y       z     vdW  Elec       q    Type
REMARK                         _______ _______ _______ _____ _____    ______ ____
ROOT
ATOM      1  C   UNL     1       3.246   6.515  18.586  0.00  0.00    +0.000 C 
ENDROOT
BRANCH   1   3
ATOM      2  N   UNL     1       2.031   7.436  20.578  0.00  0.00    +0.000 N 
ATOM      3  C   UNL     1       2.439   7.637  19.277  0.00  0.00    +0.000 C 
ATOM      4  O   UNL     1       2.115   8.680  18.696  0.00  0.00    +0.000 OA
ATOM      5  H   UNL     1       2.244   6.590  21.096  0.00  0.00    +0.000 HD
BRANCH   2   6
ATOM      6  C   UNL     1       1.001   8.283  21.170  0.00  0.00    +0.000 C 
BRANCH   6   7
ATOM      7  C   UNL     1       1.581   9.248  22.215  0.00  0.00    +0.000 C 
BRANCH   7   8
ATOM      8  N   UNL     1       0.577   9.639  23.210  0.00  0.00    +0.000 NA
ATOM      9  H   UNL     1      -0.259   9.957  22.715  0.00  0.00    +0.000 HD
ATOM     10  H   UNL     1       0.919  10.453  23.720  0.00  0.00    +0.000 HD
ENDBRANCH   7   8
ENDBRANCH   6   7
ENDBRANCH   2   6
ENDBRANCH   1   3
BRANCH   1  11
ATOM     11  C   UNL     1       2.370   6.012  17.399  0.00  0.00    +0.000 C 
BRANCH  11  12
ATOM     12  N   UNL     1       1.263   5.125  17.757  0.00  0.00    +0.000 NA
ATOM     13  H   UNL     1       1.455   4.641  18.632  0.00  0.00    +0.000 HD
ATOM     14  H   UNL     1       1.168   4.394  17.050  0.00  0.00    +0.000 HD
ENDBRANCH  11  12
ENDBRANCH   1  11
BRANCH   1  15
ATOM     15  C   UNL     1       4.618   7.088  18.053  0.00  0.00    +0.000 C 
BRANCH  15  16
ATOM     16  C   UNL     1       5.481   6.277  17.071  0.00  0.00    +0.000 A 
ATOM     17  C   UNL     1       5.054   6.055  15.745  0.00  0.00    +0.000 A 
ATOM     18  C   UNL     1       5.691   5.173  14.871  0.00  0.00    +0.000 A 
ATOM     19  C   UNL     1       6.809   4.490  15.294  0.00  0.00    +0.000 A 
ATOM     20  C   UNL     1       7.313   4.741  16.566  0.00  0.00    +0.000 A 
ATOM     21  C   UNL     1       6.685   5.644  17.464  0.00  0.00    +0.000 A 
BRANCH  21  22
ATOM     22  C   UNL     1       7.435   5.868  18.764  0.00  0.00    +0.000 C 
ATOM     23  F   UNL     1       8.499   5.055  18.997  0.00  0.00    +0.000 F 
ATOM     24  F   UNL     1       7.923   7.137  18.865  0.00  0.00    +0.000 F 
ATOM     25  F   UNL     1       6.617   5.709  19.846  0.00  0.00    +0.000 F 
ENDBRANCH  21  22
ENDBRANCH  15  16
ENDBRANCH   1  15
BRANCH   1  26
ATOM     26  C   UNL     1       3.649   5.336  19.554  0.00  0.00    +0.000 C 
BRANCH  26  27
ATOM     27  C   UNL     1       3.505   3.850  19.284  0.00  0.00    +0.000 A 
ATOM     28  C   UNL     1       4.254   3.199  18.295  0.00  0.00    +0.000 A 
ATOM     29  C   UNL     1       4.049   1.856  17.973  0.00  0.00    +0.000 A 
ATOM     30  C   UNL     1       3.099   1.119  18.654  0.00  0.00    +0.000 A 
ATOM     31  C   UNL     1       2.360   1.723  19.666  0.00  0.00    +0.000 A 
ATOM     32  C   UNL     1       2.544   3.084  20.003  0.00  0.00    +0.000 A 
BRANCH  32  33
ATOM     33  C   UNL     1       1.656   3.616  21.115  0.00  0.00    +0.000 C 
ATOM     34  F   UNL     1       0.741   4.557  20.759  0.00  0.00    +0.000 F 
ATOM     35  F   UNL     1       0.939   2.621  21.715  0.00  0.00    +0.000 F 
ATOM     36  F   UNL     1       2.385   4.187  22.119  0.00  0.00    +0.000 F 
ENDBRANCH  32  33
ENDBRANCH  26  27
ENDBRANCH   1  26
TORSDOF 12
ENDMDL
MODEL 3
REMARK VINA RESULT:      -7.5      3.066      5.525
REMARK  Name = 
REMARK  12 active torsions:
REMARK  status: ('A' for Active; 'I' for Inactive)
REMARK    1  A    between atoms: N_1  and  C_2
REMARK    2  A    between atoms: C_2  and  C_3
REMARK    3  A    between atoms: C_3  and  N_4
REMARK    4  A    between atoms: C_5  and  C_7
REMARK    5  A    between atoms: C_7  and  C_8
REMARK    6  A    between atoms: C_7  and  C_10
REMARK    7  A    between atoms: C_7  and  C_21
REMARK    8  A    between atoms: C_8  and  N_9
REMARK    9  A    between atoms: C_10  and  C_11
REMARK   10  A    between atoms: C_16  and  C_17
REMARK   11  A    between atoms: C_21  and  C_22
REMARK   12  A    between atoms: C_27  and  C_28
REMARK                            x       y       z     vdW  Elec       q    Type
REMARK                         _______ _______ _______ _____ _____    ______ ____
ROOT
ATOM      1  C   UNL     1       3.243   6.819  18.270  0.00  0.00    +0.000 C 
ENDROOT
BRANCH   1   3
ATOM      2  N   UNL     1       2.516   9.208  18.040  0.00  0.00    +0.000 N 
ATOM      3  C   UNL     1       2.183   7.879  17.897  0.00  0.00    +0.000 C 
ATOM      4  O   UNL     1       1.044   7.579  17.517  0.00  0.00    +0.000 OA
ATOM      5  H   UNL     1       3.423   9.514  18.373  0.00  0.00    +0.000 HD
BRANCH   2   6
ATOM      6  C   UNL     1       1.480  10.235  18.033  0.00  0.00    +0.000 C 
BRANCH   6   7
ATOM      7  C   UNL     1       0.943  10.520  19.444  0.00  0.00    +0.000 C 
BRANCH   7   8
ATOM      8  N   UNL     1      -0.514  10.690  19.447  0.00  0.00    +0.000 NA
ATOM      9  H   UNL     1      -0.787  11.116  20.335  0.00  0.00    +0.000 HD
ATOM     10  H   UNL     1      -0.953   9.769  19.439  0.00  0.00    +0.000 HD
ENDBRANCH   7   8
ENDBRANCH   6   7
ENDBRANCH   2   6
ENDBRANCH   1   3
BRANCH   1  11
ATOM     11  C   UNL     1       3.314   6.798  19.827  0.00  0.00    +0.000 C 
BRANCH  11  12
ATOM     12  N   UNL     1       2.198   7.441  20.522  0.00  0.00    +0.000 NA
ATOM     13  H   UNL     1       1.659   6.757  21.051  0.00  0.00    +0.000 HD
ATOM     14  H   UNL     1       1.552   7.837  19.838  0.00  0.00    +0.000 HD
ENDBRANCH  11  12
ENDBRANCH   1  11
BRANCH   1  15
ATOM     15  C   UNL     1       2.808   5.404  17.719  0.00  0.00    +0.000 C 
BRANCH  15  16
ATOM     16  C   UNL     1       2.261   4.325  18.669  0.00  0.00    +0.000 A 
ATOM     17  C   UNL     1       1.066   4.531  19.390  0.00  0.00    +0.000 A 
ATOM     18  C   UNL     1       0.624   3.681  20.404  0.00  0.00    +0.000 A 
ATOM     19  C   UNL     1       1.364   2.564  20.722  0.00  0.00    +0.000 A 
ATOM     20  C   UNL     1       2.506   2.277  19.981  0.00  0.00    +0.000 A 
ATOM     21  C   UNL     1       2.963   3.124  18.937  0.00  0.00    +0.000 A 
BRANCH  21  22
ATOM     22  C   UNL     1       4.163   2.596  18.173  0.00  0.00    +0.000 C 
ATOM     23  F   UNL     1       4.252   2.949  16.864  0.00  0.00    +0.000 F 
ATOM     24  F   UNL     1       5.343   2.989  18.733  0.00  0.00    +0.000 F 
ATOM     25  F   UNL     1       4.198   1.230  18.180  0.00  0.00    +0.000 F 
ENDBRANCH  21  22
ENDBRANCH  15  16
ENDBRANCH   1  15
BRANCH   1  26
ATOM     26  C   UNL     1       4.658   7.084  17.625  0.00  0.00    +0.000 C 
BRANCH  26  27
ATOM     27  C   UNL     1       5.439   6.142  16.728  0.00  0.00    +0.000 A 
ATOM     28  C   UNL     1       5.008   5.819  15.435  0.00  0.00    +0.000 A 
ATOM     29  C   UNL     1       5.666   4.873  14.648  0.00  0.00    +0.000 A 
ATOM     30  C   UNL     1       6.796   4.238  15.129  0.00  0.00    +0.000 A 
ATOM     31  C   UNL     1       7.273   4.558  16.396  0.00  0.00    +0.000 A 
ATOM     32  C   UNL     1       6.618   5.506  17.214  0.00  0.00    +0.000 A 
BRANCH  32  33
ATOM     33  C   UNL     1       7.239   5.744  18.579  0.00  0.00    +0.000 C 
ATOM     34  F   UNL     1       8.274   4.930  18.922  0.00  0.00    +0.000 F 
ATOM     35  F   UNL     1       7.720   7.015  18.708  0.00  0.00    +0.000 F 
ATOM     36  F   UNL     1       6.326   5.603  19.586  0.00  0.00    +0.000 F 
ENDBRANCH  32  33
ENDBRANCH  26  27
ENDBRANCH   1  26
TORSDOF 12
ENDMDL
MODEL 4
REMARK VINA RESULT:      -7.4      1.343      6.303
REMARK  Name = 
REMARK  12 active torsions:
REMARK  status: ('A' for Active; 'I' for Inactive)
REMARK    1  A    between atoms: N_1  and  C_2
REMARK    2  A    between atoms: C_2  and  C_3
REMARK    3  A    between atoms: C_3  and  N_4
REMARK    4  A    between atoms: C_5  and  C_7
REMARK    5  A    between atoms: C_7  and  C_8
REMARK    6  A    between atoms: C_7  and  C_10
REMARK    7  A    between atoms: C_7  and  C_21
REMARK    8  A    between atoms: C_8  and  N_9
REMARK    9  A    between atoms: C_10  and  C_11
REMARK   10  A    between atoms: C_16  and  C_17
REMARK   11  A    between atoms: C_21  and  C_22
REMARK   12  A    between atoms: C_27  and  C_28
REMARK                            x       y       z     vdW  Elec       q    Type
REMARK                         _______ _______ _______ _____ _____    ______ ____
ROOT
ATOM      1  C   UNL     1       3.560   5.709  18.575  0.00  0.00    +0.000 C 
ENDROOT
BRANCH   1   3
ATOM      2  N   UNL     1       1.639   4.294  19.352  0.00  0.00    +0.000 N 
ATOM      3  C   UNL     1       2.431   4.692  18.296  0.00  0.00    +0.000 C 
ATOM      4  O   UNL     1       2.241   4.196  17.179  0.00  0.00    +0.000 OA
ATOM      5  H   UNL     1       1.766   4.645  20.295  0.00  0.00    +0.000 HD
BRANCH   2   6
ATOM      6  C   UNL     1       0.793   3.112  19.238  0.00  0.00    +0.000 C 
BRANCH   6   7
ATOM      7  C   UNL     1       1.560   1.823  19.570  0.00  0.00    +0.000 C 
BRANCH   7   8
ATOM      8  N   UNL     1       2.399   1.386  18.449  0.00  0.00    +0.000 NA
ATOM      9  H   UNL     1       2.400   2.123  17.741  0.00  0.00    +0.000 HD
ATOM     10  H   UNL     1       1.960   0.580  18.004  0.00  0.00    +0.000 HD
ENDBRANCH   7   8
ENDBRANCH   6   7
ENDBRANCH   2   6
ENDBRANCH   1   3
BRANCH   1  11
ATOM     11  C   UNL     1       4.738   4.897  19.197  0.00  0.00    +0.000 C 
BRANCH  11  12
ATOM     12  N   UNL     1       4.710   3.454  18.958  0.00  0.00    +0.000 NA
ATOM     13  H   UNL     1       5.593   3.135  18.560  0.00  0.00    +0.000 HD
ATOM     14  H   UNL     1       3.996   3.236  18.260  0.00  0.00    +0.000 HD
ENDBRANCH  11  12
ENDBRANCH   1  11
BRANCH   1  15
ATOM     15  C   UNL     1       4.016   6.393  17.226  0.00  0.00    +0.000 C 
BRANCH  15  16
ATOM     16  C   UNL     1       5.123   5.767  16.362  0.00  0.00    +0.000 A 
ATOM     17  C   UNL     1       4.816   4.816  15.367  0.00  0.00    +0.000 A 
ATOM     18  C   UNL     1       5.784   4.075  14.688  0.00  0.00    +0.000 A 
ATOM     19  C   UNL     1       7.116   4.280  14.971  0.00  0.00    +0.000 A 
ATOM     20  C   UNL     1       7.468   5.267  15.886  0.00  0.00    +0.000 A 
ATOM     21  C   UNL     1       6.497   6.039  16.576  0.00  0.00    +0.000 A 
BRANCH  21  22
ATOM     22  C   UNL     1       7.069   7.137  17.454  0.00  0.00    +0.000 C 
ATOM     23  F   UNL     1       8.164   7.785  16.977  0.00  0.00    +0.000 F 
ATOM     24  F   UNL     1       6.156   8.116  17.715  0.00  0.00    +0.000 F 
ATOM     25  F   UNL     1       7.440   6.655  18.677  0.00  0.00    +0.000 F 
ENDBRANCH  21  22
ENDBRANCH  15  16
ENDBRANCH   1  15
BRANCH   1  26
ATOM     26  C   UNL     1       3.121   6.904  19.506  0.00  0.00    +0.000 C 
BRANCH  26  27
ATOM     27  C   UNL     1       2.236   8.076  19.122  0.00  0.00    +0.000 A 
ATOM     28  C   UNL     1       2.399   8.765  17.914  0.00  0.00    +0.000 A 
ATOM     29  C   UNL     1       1.659   9.907  17.606  0.00  0.00    +0.000 A 
ATOM     30  C   UNL     1       0.712  10.378  18.495  0.00  0.00    +0.000 A 
ATOM     31  C   UNL     1       0.499   9.700  19.691  0.00  0.00    +0.000 A 
ATOM     32  C   UNL     1       1.243   8.546  20.028  0.00  0.00    +0.000 A 
BRANCH  32  33
ATOM     33  C   UNL     1       0.918   7.919  21.372  0.00  0.00    +0.000 C 
ATOM     34  F   UNL     1       1.264   6.613  21.529  0.00  0.00    +0.000 F 
ATOM     35  F   UNL     1       1.520   8.580  22.404  0.00  0.00    +0.000 F 
ATOM     36  F   UNL     1      -0.420   7.970  21.647  0.00  0.00    +0.000 F 
ENDBRANCH  32  33
ENDBRANCH  26  27
ENDBRANCH   1  26
TORSDOF 12
ENDMDL
MODEL 5
REMARK VINA RESULT:      -7.4      3.171      5.696
REMARK  Name = 
REMARK  12 active torsions:
REMARK  status: ('A' for Active; 'I' for Inactive)
REMARK    1  A    between atoms: N_1  and  C_2
REMARK    2  A    between atoms: C_2  and  C_3
REMARK    3  A    between atoms: C_3  and  N_4
REMARK    4  A    between atoms: C_5  and  C_7
REMARK    5  A    between atoms: C_7  and  C_8
REMARK    6  A    between atoms: C_7  and  C_10
REMARK    7  A    between atoms: C_7  and  C_21
REMARK    8  A    between atoms: C_8  and  N_9
REMARK    9  A    between atoms: C_10  and  C_11
REMARK   10  A    between atoms: C_16  and  C_17
REMARK   11  A    between atoms: C_21  and  C_22
REMARK   12  A    between atoms: C_27  and  C_28
REMARK                            x       y       z     vdW  Elec       q    Type
REMARK                         _______ _______ _______ _____ _____    ______ ____
ROOT
ATOM      1  C   UNL     1       3.202   6.775  18.336  0.00  0.00    +0.000 C 
ENDROOT
BRANCH   1   3
ATOM      2  N   UNL     1       2.483   9.146  17.942  0.00  0.00    +0.000 N 
ATOM      3  C   UNL     1       2.145   7.811  17.892  0.00  0.00    +0.000 C 
ATOM      4  O   UNL     1       1.004   7.490  17.537  0.00  0.00    +0.000 OA
ATOM      5  H   UNL     1       3.393   9.471  18.250  0.00  0.00    +0.000 HD
BRANCH   2   6
ATOM      6  C   UNL     1       1.451  10.174  17.865  0.00  0.00    +0.000 C 
BRANCH   6   7
ATOM      7  C   UNL     1       1.906  11.494  18.506  0.00  0.00    +0.000 C 
BRANCH   7   8
ATOM      8  N   UNL     1       2.588  12.361  17.539  0.00  0.00    +0.000 NA
ATOM      9  H   UNL     1       2.001  13.181  17.371  0.00  0.00    +0.000 HD
ATOM     10  H   UNL     1       2.641  11.876  16.643  0.00  0.00    +0.000 HD
ENDBRANCH   7   8
ENDBRANCH   6   7
ENDBRANCH   2   6
ENDBRANCH   1   3
BRANCH   1  11
ATOM     11  C   UNL     1       3.229   6.815  19.894  0.00  0.00    +0.000 C 
BRANCH  11  12
ATOM     12  N   UNL     1       2.182   7.618  20.527  0.00  0.00    +0.000 NA
ATOM     13  H   UNL     1       2.505   8.569  20.694  0.00  0.00    +0.000 HD
ATOM     14  H   UNL     1       1.965   7.232  21.448  0.00  0.00    +0.000 HD
ENDBRANCH  11  12
ENDBRANCH   1  11
BRANCH   1  15
ATOM     15  C   UNL     1       2.793   5.336  17.829  0.00  0.00    +0.000 C 
BRANCH  15  16
ATOM     16  C   UNL     1       2.228   4.290  18.805  0.00  0.00    +0.000 A 
ATOM     17  C   UNL     1       1.339   4.664  19.834  0.00  0.00    +0.000 A 
ATOM     18  C   UNL     1       0.947   3.805  20.861  0.00  0.00    +0.000 A 
ATOM     19  C   UNL     1       1.423   2.513  20.881  0.00  0.00    +0.000 A 
ATOM     20  C   UNL     1       2.237   2.077  19.841  0.00  0.00    +0.000 A 
ATOM     21  C   UNL     1       2.635   2.934  18.781  0.00  0.00    +0.000 A 
BRANCH  21  22
ATOM     22  C   UNL     1       3.435   2.255  17.685  0.00  0.00    +0.000 C 
ATOM     23  F   UNL     1       4.557   2.898  17.267  0.00  0.00    +0.000 F 
ATOM     24  F   UNL     1       3.850   1.007  18.048  0.00  0.00    +0.000 F 
ATOM     25  F   UNL     1       2.684   2.072  16.558  0.00  0.00    +0.000 F 
ENDBRANCH  21  22
ENDBRANCH  15  16
ENDBRANCH   1  15
BRANCH   1  26
ATOM     26  C   UNL     1       4.633   7.028  17.722  0.00  0.00    +0.000 C 
BRANCH  26  27
ATOM     27  C   UNL     1       5.407   6.095  16.808  0.00  0.00    +0.000 A 
ATOM     28  C   UNL     1       4.953   5.767  15.524  0.00  0.00    +0.000 A 
ATOM     29  C   UNL     1       5.607   4.830  14.724  0.00  0.00    +0.000 A 
ATOM     30  C   UNL     1       6.754   4.209  15.181  0.00  0.00    +0.000 A 
ATOM     31  C   UNL     1       7.253   4.535  16.438  0.00  0.00    +0.000 A 
ATOM     32  C   UNL     1       6.603   5.475  17.270  0.00  0.00    +0.000 A 
BRANCH  32  33
ATOM     33  C   UNL     1       7.250   5.720  18.622  0.00  0.00    +0.000 C 
ATOM     34  F   UNL     1       6.443   5.592  19.709  0.00  0.00    +0.000 F 
ATOM     35  F   UNL     1       8.298   4.875  18.847  0.00  0.00    +0.000 F 
ATOM     36  F   UNL     1       7.777   6.977  18.714  0.00  0.00    +0.000 F 
ENDBRANCH  32  33
ENDBRANCH  26  27
ENDBRANCH   1  26
TORSDOF 12
ENDMDL
MODEL 6
REMARK VINA RESULT:      -7.3      0.756      1.326
REMARK  Name = 
REMARK  12 active torsions:
REMARK  status: ('A' for Active; 'I' for Inactive)
REMARK    1  A    between atoms: N_1  and  C_2
REMARK    2  A    between atoms: C_2  and  C_3
REMARK    3  A    between atoms: C_3  and  N_4
REMARK    4  A    between atoms: C_5  and  C_7
REMARK    5  A    between atoms: C_7  and  C_8
REMARK    6  A    between atoms: C_7  and  C_10
REMARK    7  A    between atoms: C_7  and  C_21
REMARK    8  A    between atoms: C_8  and  N_9
REMARK    9  A    between atoms: C_10  and  C_11
REMARK   10  A    between atoms: C_16  and  C_17
REMARK   11  A    between atoms: C_21  and  C_22
REMARK   12  A    between atoms: C_27  and  C_28
REMARK                            x       y       z     vdW  Elec       q    Type
REMARK                         _______ _______ _______ _____ _____    ______ ____
ROOT
ATOM      1  C   UNL     1       3.000   5.557  19.000  0.00  0.00    +0.000 C 
ENDROOT
BRANCH   1   3
ATOM      2  N   UNL     1       4.197   3.414  19.517  0.00  0.00    +0.000 N 
ATOM      3  C   UNL     1       3.137   4.245  19.805  0.00  0.00    +0.000 C 
ATOM      4  O   UNL     1       2.313   3.899  20.662  0.00  0.00    +0.000 OA
ATOM      5  H   UNL     1       4.887   3.631  18.806  0.00  0.00    +0.000 HD
BRANCH   2   6
ATOM      6  C   UNL     1       4.203   2.032  19.985  0.00  0.00    +0.000 C 
BRANCH   6   7
ATOM      7  C   UNL     1       3.943   1.037  18.844  0.00  0.00    +0.000 C 
BRANCH   7   8
ATOM      8  N   UNL     1       2.926   1.535  17.911  0.00  0.00    +0.000 NA
ATOM      9  H   UNL     1       2.882   2.552  17.994  0.00  0.00    +0.000 HD
ATOM     10  H   UNL     1       2.011   1.196  18.210  0.00  0.00    +0.000 HD
ENDBRANCH   7   8
ENDBRANCH   6   7
ENDBRANCH   2   6
ENDBRANCH   1   3
BRANCH   1  11
ATOM     11  C   UNL     1       1.935   5.284  17.894  0.00  0.00    +0.000 C 
BRANCH  11  12
ATOM     12  N   UNL     1       1.325   3.954  17.913  0.00  0.00    +0.000 NA
ATOM     13  H   UNL     1       1.082   3.681  18.864  0.00  0.00    +0.000 HD
ATOM     14  H   UNL     1       2.004   3.262  17.590  0.00  0.00    +0.000 HD
ENDBRANCH  11  12
ENDBRANCH   1  11
BRANCH   1  15
ATOM     15  C   UNL     1       2.519   6.725  19.949  0.00  0.00    +0.000 C 
BRANCH  15  16
ATOM     16  C   UNL     1       1.987   8.044  19.365  0.00  0.00    +0.000 A 
ATOM     17  C   UNL     1       2.375   8.477  18.080  0.00  0.00    +0.000 A 
ATOM     18  C   UNL     1       2.084   9.745  17.577  0.00  0.00    +0.000 A 
ATOM     19  C   UNL     1       1.363  10.630  18.346  0.00  0.00    +0.000 A 
ATOM     20  C   UNL     1       0.889  10.216  19.586  0.00  0.00    +0.000 A 
ATOM     21  C   UNL     1       1.164   8.925  20.109  0.00  0.00    +0.000 A 
BRANCH  21  22
ATOM     22  C   UNL     1       0.478   8.615  21.427  0.00  0.00    +0.000 C 
ATOM     23  F   UNL     1      -0.458   9.508  21.846  0.00  0.00    +0.000 F 
ATOM     24  F   UNL     1      -0.159   7.410  21.404  0.00  0.00    +0.000 F 
ATOM     25  F   UNL     1       1.378   8.529  22.450  0.00  0.00    +0.000 F 
ENDBRANCH  21  22
ENDBRANCH  15  16
ENDBRANCH   1  15
BRANCH   1  26
ATOM     26  C   UNL     1       4.360   6.068  18.387  0.00  0.00    +0.000 C 
BRANCH  26  27
ATOM     27  C   UNL     1       5.073   5.512  17.168  0.00  0.00    +0.000 A 
ATOM     28  C   UNL     1       4.521   4.488  16.387  0.00  0.00    +0.000 A 
ATOM     29  C   UNL     1       5.220   3.903  15.330  0.00  0.00    +0.000 A 
ATOM     30  C   UNL     1       6.488   4.348  15.009  0.00  0.00    +0.000 A 
ATOM     31  C   UNL     1       7.055   5.386  15.741  0.00  0.00    +0.000 A 
ATOM     32  C   UNL     1       6.370   5.988  16.821  0.00  0.00    +0.000 A 
BRANCH  32  33
ATOM     33  C   UNL     1       7.116   7.097  17.542  0.00  0.00    +0.000 C 
ATOM     34  F   UNL     1       7.605   6.795  18.774  0.00  0.00    +0.000 F 
ATOM     35  F   UNL     1       8.189   7.541  16.824  0.00  0.00    +0.000 F 
ATOM     36  F   UNL     1       6.331   8.200  17.729  0.00  0.00    +0.000 F 
ENDBRANCH  32  33
ENDBRANCH  26  27
ENDBRANCH   1  26
TORSDOF 12
ENDMDL
MODEL 7
REMARK VINA RESULT:      -7.3      2.997      5.506
REMARK  Name = 
REMARK  12 active torsions:
REMARK  status: ('A' for Active; 'I' for Inactive)
REMARK    1  A    between atoms: N_1  and  C_2
REMARK    2  A    between atoms: C_2  and  C_3
REMARK    3  A    between atoms: C_3  and  N_4
REMARK    4  A    between atoms: C_5  and  C_7
REMARK    5  A    between atoms: C_7  and  C_8
REMARK    6  A    between atoms: C_7  and  C_10
REMARK    7  A    between atoms: C_7  and  C_21
REMARK    8  A    between atoms: C_8  and  N_9
REMARK    9  A    between atoms: C_10  and  C_11
REMARK   10  A    between atoms: C_16  and  C_17
REMARK   11  A    between atoms: C_21  and  C_22
REMARK   12  A    between atoms: C_27  and  C_28
REMARK                            x       y       z     vdW  Elec       q    Type
REMARK                         _______ _______ _______ _____ _____    ______ ____
ROOT
ATOM      1  C   UNL     1       2.691   6.836  18.254  0.00  0.00    +0.000 C 
ENDROOT
BRANCH   1   3
ATOM      2  N   UNL     1       2.452   9.327  18.078  0.00  0.00    +0.000 N 
ATOM      3  C   UNL     1       1.856   8.095  17.927  0.00  0.00    +0.000 C 
ATOM      4  O   UNL     1       0.670   8.036  17.578  0.00  0.00    +0.000 OA
ATOM      5  H   UNL     1       3.412   9.439  18.387  0.00  0.00    +0.000 HD
BRANCH   2   6
ATOM      6  C   UNL     1       1.644  10.541  18.114  0.00  0.00    +0.000 C 
BRANCH   6   7
ATOM      7  C   UNL     1       0.956  10.732  19.475  0.00  0.00    +0.000 C 
BRANCH   7   8
ATOM      8  N   UNL     1      -0.479  10.439  19.403  0.00  0.00    +0.000 NA
ATOM      9  H   UNL     1      -0.768  10.024  20.292  0.00  0.00    +0.000 HD
ATOM     10  H   UNL     1      -0.633   9.715  18.701  0.00  0.00    +0.000 HD
ENDBRANCH   7   8
ENDBRANCH   6   7
ENDBRANCH   2   6
ENDBRANCH   1   3
BRANCH   1  11
ATOM     11  C   UNL     1       3.075   6.944  19.761  0.00  0.00    +0.000 C 
BRANCH  11  12
ATOM     12  N   UNL     1       2.090   7.600  20.623  0.00  0.00    +0.000 NA
ATOM     13  H   UNL     1       1.145   7.298  20.388  0.00  0.00    +0.000 HD
ATOM     14  H   UNL     1       2.109   8.608  20.458  0.00  0.00    +0.000 HD
ENDBRANCH  11  12
ENDBRANCH   1  11
BRANCH   1  15
ATOM     15  C   UNL     1       1.831   5.537  17.997  0.00  0.00    +0.000 C 
BRANCH  15  16
ATOM     16  C   UNL     1       2.420   4.140  18.257  0.00  0.00    +0.000 A 
ATOM     17  C   UNL     1       3.195   3.487  17.276  0.00  0.00    +0.000 A 
ATOM     18  C   UNL     1       3.591   2.152  17.374  0.00  0.00    +0.000 A 
ATOM     19  C   UNL     1       3.237   1.420  18.485  0.00  0.00    +0.000 A 
ATOM     20  C   UNL     1       2.543   2.048  19.514  0.00  0.00    +0.000 A 
ATOM     21  C   UNL     1       2.144   3.408  19.438  0.00  0.00    +0.000 A 
BRANCH  21  22
ATOM     22  C   UNL     1       1.490   3.947  20.697  0.00  0.00    +0.000 C 
ATOM     23  F   UNL     1       2.310   4.560  21.590  0.00  0.00    +0.000 F 
ATOM     24  F   UNL     1       0.514   4.859  20.420  0.00  0.00    +0.000 F 
ATOM     25  F   UNL     1       0.868   2.955  21.400  0.00  0.00    +0.000 F 
ENDBRANCH  21  22
ENDBRANCH  15  16
ENDBRANCH   1  15
BRANCH   1  26
ATOM     26  C   UNL     1       3.964   6.666  17.339  0.00  0.00    +0.000 C 
BRANCH  26  27
ATOM     27  C   UNL     1       5.251   5.947  17.698  0.00  0.00    +0.000 A 
ATOM     28  C   UNL     1       5.702   5.847  19.021  0.00  0.00    +0.000 A 
ATOM     29  C   UNL     1       6.936   5.280  19.343  0.00  0.00    +0.000 A 
ATOM     30  C   UNL     1       7.746   4.773  18.344  0.00  0.00    +0.000 A 
ATOM     31  C   UNL     1       7.316   4.824  17.023  0.00  0.00    +0.000 A 
ATOM     32  C   UNL     1       6.074   5.402  16.672  0.00  0.00    +0.000 A 
BRANCH  32  33
ATOM     33  C   UNL     1       5.742   5.405  15.190  0.00  0.00    +0.000 C 
ATOM     34  F   UNL     1       6.797   5.345  14.334  0.00  0.00    +0.000 F 
ATOM     35  F   UNL     1       4.935   4.360  14.845  0.00  0.00    +0.000 F 
ATOM     36  F   UNL     1       5.050   6.526  14.826  0.00  0.00    +0.000 F 
ENDBRANCH  32  33
ENDBRANCH  26  27
ENDBRANCH   1  26
TORSDOF 12
ENDMDL
MODEL 8
REMARK VINA RESULT:      -7.3      3.609      5.886
REMARK  Name = 
REMARK  12 active torsions:
REMARK  status: ('A' for Active; 'I' for Inactive)
REMARK    1  A    between atoms: N_1  and  C_2
REMARK    2  A    between atoms: C_2  and  C_3
REMARK    3  A    between atoms: C_3  and  N_4
REMARK    4  A    between atoms: C_5  and  C_7
REMARK    5  A    between atoms: C_7  and  C_8
REMARK    6  A    between atoms: C_7  and  C_10
REMARK    7  A    between atoms: C_7  and  C_21
REMARK    8  A    between atoms: C_8  and  N_9
REMARK    9  A    between atoms: C_10  and  C_11
REMARK   10  A    between atoms: C_16  and  C_17
REMARK   11  A    between atoms: C_21  and  C_22
REMARK   12  A    between atoms: C_27  and  C_28
REMARK                            x       y       z     vdW  Elec       q    Type
REMARK                         _______ _______ _______ _____ _____    ______ ____
ROOT
ATOM      1  C   UNL     1       2.735   6.788  18.234  0.00  0.00    +0.000 C 
ENDROOT
BRANCH   1   3
ATOM      2  N   UNL     1       2.373   9.267  18.095  0.00  0.00    +0.000 N 
ATOM      3  C   UNL     1       1.841   8.008  17.919  0.00  0.00    +0.000 C 
ATOM      4  O   UNL     1       0.662   7.896  17.559  0.00  0.00    +0.000 OA
ATOM      5  H   UNL     1       3.323   9.421  18.414  0.00  0.00    +0.000 HD
BRANCH   2   6
ATOM      6  C   UNL     1       1.505  10.438  18.143  0.00  0.00    +0.000 C 
BRANCH   6   7
ATOM      7  C   UNL     1       1.050  10.756  19.576  0.00  0.00    +0.000 C 
BRANCH   7   8
ATOM      8  N   UNL     1      -0.053   9.889  20.001  0.00  0.00    +0.000 NA
ATOM      9  H   UNL     1      -0.335   9.312  19.206  0.00  0.00    +0.000 HD
ATOM     10  H   UNL     1      -0.864  10.469  20.218  0.00  0.00    +0.000 HD
ENDBRANCH   7   8
ENDBRANCH   6   7
ENDBRANCH   2   6
ENDBRANCH   1   3
BRANCH   1  11
ATOM     11  C   UNL     1       3.089   6.883  19.750  0.00  0.00    +0.000 C 
BRANCH  11  12
ATOM     12  N   UNL     1       2.111   7.576  20.589  0.00  0.00    +0.000 NA
ATOM     13  H   UNL     1       1.739   8.395  20.111  0.00  0.00    +0.000 HD
ATOM     14  H   UNL     1       2.572   7.930  21.429  0.00  0.00    +0.000 HD
ENDBRANCH  11  12
ENDBRANCH   1  11
BRANCH   1  15
ATOM     15  C   UNL     1       1.949   5.451  17.936  0.00  0.00    +0.000 C 
BRANCH  15  16
ATOM     16  C   UNL     1       1.878   4.330  18.985  0.00  0.00    +0.000 A 
ATOM     17  C   UNL     1       1.083   4.469  20.143  0.00  0.00    +0.000 A 
ATOM     18  C   UNL     1       1.128   3.579  21.216  0.00  0.00    +0.000 A 
ATOM     19  C   UNL     1       1.966   2.488  21.157  0.00  0.00    +0.000 A 
ATOM     20  C   UNL     1       2.705   2.266  20.001  0.00  0.00    +0.000 A 
ATOM     21  C   UNL     1       2.663   3.154  18.894  0.00  0.00    +0.000 A 
BRANCH  21  22
ATOM     22  C   UNL     1       3.454   2.695  17.682  0.00  0.00    +0.000 C 
ATOM     23  F   UNL     1       4.790   2.943  17.702  0.00  0.00    +0.000 F 
ATOM     24  F   UNL     1       3.340   1.352  17.473  0.00  0.00    +0.000 F 
ATOM     25  F   UNL     1       2.995   3.279  16.536  0.00  0.00    +0.000 F 
ENDBRANCH  21  22
ENDBRANCH  15  16
ENDBRANCH   1  15
BRANCH   1  26
ATOM     26  C   UNL     1       4.030   6.704  17.337  0.00  0.00    +0.000 C 
BRANCH  26  27
ATOM     27  C   UNL     1       5.315   5.967  17.664  0.00  0.00    +0.000 A 
ATOM     28  C   UNL     1       5.806   5.874  18.973  0.00  0.00    +0.000 A 
ATOM     29  C   UNL     1       7.039   5.288  19.263  0.00  0.00    +0.000 A 
ATOM     30  C   UNL     1       7.808   4.755  18.245  0.00  0.00    +0.000 A 
ATOM     31  C   UNL     1       7.338   4.799  16.937  0.00  0.00    +0.000 A 
ATOM     32  C   UNL     1       6.096   5.395  16.619  0.00  0.00    +0.000 A 
BRANCH  32  33
ATOM     33  C   UNL     1       5.716   5.388  15.148  0.00  0.00    +0.000 C 
ATOM     34  F   UNL     1       6.741   5.283  14.260  0.00  0.00    +0.000 F 
ATOM     35  F   UNL     1       4.867   4.363  14.845  0.00  0.00    +0.000 F 
ATOM     36  F   UNL     1       5.048   6.524  14.789  0.00  0.00    +0.000 F 
ENDBRANCH  32  33
ENDBRANCH  26  27
ENDBRANCH   1  26
TORSDOF 12
ENDMDL
MODEL 9
REMARK VINA RESULT:      -7.3      3.084      5.541
REMARK  Name = 
REMARK  12 active torsions:
REMARK  status: ('A' for Active; 'I' for Inactive)
REMARK    1  A    between atoms: N_1  and  C_2
REMARK    2  A    between atoms: C_2  and  C_3
REMARK    3  A    between atoms: C_3  and  N_4
REMARK    4  A    between atoms: C_5  and  C_7
REMARK    5  A    between atoms: C_7  and  C_8
REMARK    6  A    between atoms: C_7  and  C_10
REMARK    7  A    between atoms: C_7  and  C_21
REMARK    8  A    between atoms: C_8  and  N_9
REMARK    9  A    between atoms: C_10  and  C_11
REMARK   10  A    between atoms: C_16  and  C_17
REMARK   11  A    between atoms: C_21  and  C_22
REMARK   12  A    between atoms: C_27  and  C_28
REMARK                            x       y       z     vdW  Elec       q    Type
REMARK                         _______ _______ _______ _____ _____    ______ ____
ROOT
ATOM      1  C   UNL     1       3.215   6.760  18.288  0.00  0.00    +0.000 C 
ENDROOT
BRANCH   1   3
ATOM      2  N   UNL     1       2.452   9.124  17.942  0.00  0.00    +0.000 N 
ATOM      3  C   UNL     1       2.140   7.785  17.863  0.00  0.00    +0.000 C 
ATOM      4  O   UNL     1       1.006   7.449  17.498  0.00  0.00    +0.000 OA
ATOM      5  H   UNL     1       3.355   9.459  18.260  0.00  0.00    +0.000 HD
BRANCH   2   6
ATOM      6  C   UNL     1       1.401  10.134  17.884  0.00  0.00    +0.000 C 
BRANCH   6   7
ATOM      7  C   UNL     1       1.165  10.797  19.250  0.00  0.00    +0.000 C 
BRANCH   7   8
ATOM      8  N   UNL     1       1.055  12.255  19.134  0.00  0.00    +0.000 NA
ATOM      9  H   UNL     1       1.750  12.578  18.456  0.00  0.00    +0.000 HD
ATOM     10  H   UNL     1       1.324  12.677  20.023  0.00  0.00    +0.000 HD
ENDBRANCH   7   8
ENDBRANCH   6   7
ENDBRANCH   2   6
ENDBRANCH   1   3
BRANCH   1  11
ATOM     11  C   UNL     1       3.266   6.796  19.846  0.00  0.00    +0.000 C 
BRANCH  11  12
ATOM     12  N   UNL     1       2.143   7.467  20.502  0.00  0.00    +0.000 NA
ATOM     13  H   UNL     1       1.256   7.069  20.200  0.00  0.00    +0.000 HD
ATOM     14  H   UNL     1       2.119   8.449  20.218  0.00  0.00    +0.000 HD
ENDBRANCH  11  12
ENDBRANCH   1  11
BRANCH   1  15
ATOM     15  C   UNL     1       2.815   5.317  17.784  0.00  0.00    +0.000 C 
BRANCH  15  16
ATOM     16  C   UNL     1       2.265   4.267  18.763  0.00  0.00    +0.000 A 
ATOM     17  C   UNL     1       0.997   4.425  19.360  0.00  0.00    +0.000 A 
ATOM     18  C   UNL     1       0.529   3.615  20.395  0.00  0.00    +0.000 A 
ATOM     19  C   UNL     1       1.318   2.586  20.860  0.00  0.00    +0.000 A 
ATOM     20  C   UNL     1       2.541   2.342  20.245  0.00  0.00    +0.000 A 
ATOM     21  C   UNL     1       3.027   3.149  19.182  0.00  0.00    +0.000 A 
BRANCH  21  22
ATOM     22  C   UNL     1       4.330   2.668  18.568  0.00  0.00    +0.000 C 
ATOM     23  F   UNL     1       5.454   3.338  18.931  0.00  0.00    +0.000 F 
ATOM     24  F   UNL     1       4.581   1.359  18.856  0.00  0.00    +0.000 F 
ATOM     25  F   UNL     1       4.293   2.737  17.204  0.00  0.00    +0.000 F 
ENDBRANCH  21  22
ENDBRANCH  15  16
ENDBRANCH   1  15
BRANCH   1  26
ATOM     26  C   UNL     1       4.633   7.030  17.653  0.00  0.00    +0.000 C 
BRANCH  26  27
ATOM     27  C   UNL     1       5.424   6.089  16.762  0.00  0.00    +0.000 A 
ATOM     28  C   UNL     1       4.952   5.680  15.509  0.00  0.00    +0.000 A 
ATOM     29  C   UNL     1       5.626   4.735  14.735  0.00  0.00    +0.000 A 
ATOM     30  C   UNL     1       6.811   4.188  15.188  0.00  0.00    +0.000 A 
ATOM     31  C   UNL     1       7.329   4.595  16.413  0.00  0.00    +0.000 A 
ATOM     32  C   UNL     1       6.659   5.545  17.218  0.00  0.00    +0.000 A 
BRANCH  32  33
ATOM     33  C   UNL     1       7.329   5.882  18.539  0.00  0.00    +0.000 C 
ATOM     34  F   UNL     1       7.910   7.109  18.625  0.00  0.00    +0.000 F 
ATOM     35  F   UNL     1       6.455   5.821  19.586  0.00  0.00    +0.000 F 
ATOM     36  F   UNL     1       8.320   4.995  18.848  0.00  0.00    +0.000 F 
ENDBRANCH  32  33
ENDBRANCH  26  27
ENDBRANCH   1  26
TORSDOF 12
ENDMDL
