MODEL 1
REMARK VINA RESULT:      -8.0      0.000      0.000
REMARK  Name = 
REMARK  6 active torsions:
REMARK  status: ('A' for Active; 'I' for Inactive)
REMARK    1  A    between atoms: C_1  and  N_2
REMARK    2  A    between atoms: N_2  and  C_18
REMARK    3  A    between atoms: C_3  and  C_5
REMARK    4  A    between atoms: C_5  and  S_6
REMARK    5  A    between atoms: S_6  and  C_7
REMARK    6  A    between atoms: N_11  and  C_12
REMARK                            x       y       z     vdW  Elec       q    Type
REMARK                         _______ _______ _______ _____ _____    ______ ____
ROOT
ATOM      1  S   UNL     1       5.006   6.887  16.168  0.00  0.00    +0.000 S 
ENDROOT
BRANCH   1   2
ATOM      2  C   UNL     1       6.419   6.017  16.676  0.00  0.00    +0.000 A 
ATOM      3  N   UNL     1       6.946   6.038  17.879  0.00  0.00    +0.000 NA
ATOM      4  N   UNL     1       7.839   4.999  17.914  0.00  0.00    +0.000 NA
ATOM      5  N   UNL     1       7.849   4.335  16.766  0.00  0.00    +0.000 NA
ATOM      6  N   UNL     1       7.033   5.027  15.929  0.00  0.00    +0.000 N 
BRANCH   6   7
ATOM      7  C   UNL     1       6.921   4.696  14.558  0.00  0.00    +0.000 A 
ATOM      8  C   UNL     1       7.776   5.306  13.632  0.00  0.00    +0.000 A 
ATOM      9  C   UNL     1       7.717   4.934  12.288  0.00  0.00    +0.000 A 
ATOM     10  C   UNL     1       6.782   3.991  11.861  0.00  0.00    +0.000 A 
ATOM     11  C   UNL     1       5.894   3.423  12.775  0.00  0.00    +0.000 A 
ATOM     12  C   UNL     1       5.965   3.770  14.121  0.00  0.00    +0.000 A 
ENDBRANCH   6   7
ENDBRANCH   1   2
BRANCH   1  13
ATOM     13  C   UNL     1       3.954   6.724  17.633  0.00  0.00    +0.000 C 
BRANCH  13  16
ATOM     14  C   UNL     1       2.361   5.911  19.963  0.00  0.00    +0.000 C 
ATOM     15  N   UNL     1       2.575   5.002  18.845  0.00  0.00    +0.000 N 
ATOM     16  C   UNL     1       3.393   5.307  17.745  0.00  0.00    +0.000 C 
ATOM     17  O   UNL     1       3.678   4.447  16.905  0.00  0.00    +0.000 OA
BRANCH  15  18
ATOM     18  C   UNL     1       2.070   3.603  18.935  0.00  0.00    +0.000 C 
ATOM     19  C   UNL     1       3.192   2.581  19.191  0.00  0.00    +0.000 C 
ATOM     20  C   UNL     1       3.622   2.498  20.652  0.00  0.00    +0.000 C 
ATOM     21  C   UNL     1       2.439   2.247  21.582  0.00  0.00    +0.000 C 
ATOM     22  C   UNL     1       1.284   3.220  21.371  0.00  0.00    +0.000 C 
ATOM     23  C   UNL     1       0.894   3.382  19.902  0.00  0.00    +0.000 C 
ENDBRANCH  15  18
ENDBRANCH  13  16
ENDBRANCH   1  13
TORSDOF 5
ENDMDL
MODEL 2
REMARK VINA RESULT:      -8.0      1.906      2.905
REMARK  Name = 
REMARK  6 active torsions:
REMARK  status: ('A' for Active; 'I' for Inactive)
REMARK    1  A    between atoms: C_1  and  N_2
REMARK    2  A    between atoms: N_2  and  C_18
REMARK    3  A    between atoms: C_3  and  C_5
REMARK    4  A    between atoms: C_5  and  S_6
REMARK    5  A    between atoms: S_6  and  C_7
REMARK    6  A    between atoms: N_11  and  C_12
REMARK                            x       y       z     vdW  Elec       q    Type
REMARK                         _______ _______ _______ _____ _____    ______ ____
ROOT
ATOM      1  S   UNL     1       5.980   3.691  15.724  0.00  0.00    +0.000 S 
ENDROOT
BRANCH   1   2
ATOM      2  C   UNL     1       6.856   4.631  14.559  0.00  0.00    +0.000 A 
ATOM      3  N   UNL     1       7.719   5.585  14.830  0.00  0.00    +0.000 NA
ATOM      4  N   UNL     1       8.379   5.835  13.655  0.00  0.00    +0.000 NA
ATOM      5  N   UNL     1       7.951   5.039  12.684  0.00  0.00    +0.000 NA
ATOM      6  N   UNL     1       6.912   4.339  13.207  0.00  0.00    +0.000 N 
BRANCH   6   7
ATOM      7  C   UNL     1       6.105   3.497  12.407  0.00  0.00    +0.000 A 
ATOM      8  C   UNL     1       4.787   3.876  12.122  0.00  0.00    +0.000 A 
ATOM      9  C   UNL     1       4.008   3.084  11.277  0.00  0.00    +0.000 A 
ATOM     10  C   UNL     1       4.523   1.899  10.754  0.00  0.00    +0.000 A 
ATOM     11  C   UNL     1       5.816   1.493  11.082  0.00  0.00    +0.000 A 
ATOM     12  C   UNL     1       6.609   2.291  11.902  0.00  0.00    +0.000 A 
ENDBRANCH   6   7
ENDBRANCH   1   2
BRANCH   1  13
ATOM     13  C   UNL     1       6.083   4.760  17.182  0.00  0.00    +0.000 C 
BRANCH  13  16
ATOM     14  C   UNL     1       4.517   3.378  19.248  0.00  0.00    +0.000 C 
ATOM     15  N   UNL     1       4.031   4.606  18.633  0.00  0.00    +0.000 N 
ATOM     16  C   UNL     1       4.697   5.263  17.586  0.00  0.00    +0.000 C 
ATOM     17  O   UNL     1       4.167   6.204  16.985  0.00  0.00    +0.000 OA
BRANCH  15  18
ATOM     18  C   UNL     1       2.671   5.107  18.979  0.00  0.00    +0.000 C 
ATOM     19  C   UNL     1       1.559   4.414  18.171  0.00  0.00    +0.000 C 
ATOM     20  C   UNL     1       1.170   3.044  18.715  0.00  0.00    +0.000 C 
ATOM     21  C   UNL     1       0.809   3.099  20.196  0.00  0.00    +0.000 C 
ATOM     22  C   UNL     1       1.866   3.786  21.054  0.00  0.00    +0.000 C 
ATOM     23  C   UNL     1       2.332   5.123  20.479  0.00  0.00    +0.000 C 
ENDBRANCH  15  18
ENDBRANCH  13  16
ENDBRANCH   1  13
TORSDOF 5
ENDMDL
MODEL 3
REMARK VINA RESULT:      -8.0      1.859      2.767
REMARK  Name = 
REMARK  6 active torsions:
REMARK  status: ('A' for Active; 'I' for Inactive)
REMARK    1  A    between atoms: C_1  and  N_2
REMARK    2  A    between atoms: N_2  and  C_18
REMARK    3  A    between atoms: C_3  and  C_5
REMARK    4  A    between atoms: C_5  and  S_6
REMARK    5  A    between atoms: S_6  and  C_7
REMARK    6  A    between atoms: N_11  and  C_12
REMARK                            x       y       z     vdW  Elec       q    Type
REMARK                         _______ _______ _______ _____ _____    ______ ____
ROOT
ATOM      1  S   UNL     1       5.857   3.758  15.727  0.00  0.00    +0.000 S 
ENDROOT
BRANCH   1   2
ATOM      2  C   UNL     1       6.814   4.677  14.609  0.00  0.00    +0.000 A 
ATOM      3  N   UNL     1       7.688   5.606  14.925  0.00  0.00    +0.000 NA
ATOM      4  N   UNL     1       8.411   5.841  13.785  0.00  0.00    +0.000 NA
ATOM      5  N   UNL     1       8.009   5.060  12.791  0.00  0.00    +0.000 NA
ATOM      6  N   UNL     1       6.927   4.388  13.261  0.00  0.00    +0.000 N 
BRANCH   6   7
ATOM      7  C   UNL     1       6.137   3.571  12.419  0.00  0.00    +0.000 A 
ATOM      8  C   UNL     1       6.676   2.383  11.910  0.00  0.00    +0.000 A 
ATOM      9  C   UNL     1       5.880   1.539  11.134  0.00  0.00    +0.000 A 
ATOM     10  C   UNL     1       4.567   1.897  10.829  0.00  0.00    +0.000 A 
ATOM     11  C   UNL     1       4.047   3.107  11.290  0.00  0.00    +0.000 A 
ATOM     12  C   UNL     1       4.827   3.940  12.086  0.00  0.00    +0.000 A 
ENDBRANCH   6   7
ENDBRANCH   1   2
BRANCH   1  13
ATOM     13  C   UNL     1       5.937   4.809  17.199  0.00  0.00    +0.000 C 
BRANCH  13  16
ATOM     14  C   UNL     1       4.520   3.257  19.253  0.00  0.00    +0.000 C 
ATOM     15  N   UNL     1       3.942   4.474  18.698  0.00  0.00    +0.000 N 
ATOM     16  C   UNL     1       4.535   5.209  17.659  0.00  0.00    +0.000 C 
ATOM     17  O   UNL     1       3.930   6.135  17.108  0.00  0.00    +0.000 OA
BRANCH  15  18
ATOM     18  C   UNL     1       2.564   4.875  19.098  0.00  0.00    +0.000 C 
ATOM     19  C   UNL     1       1.478   3.982  18.472  0.00  0.00    +0.000 C 
ATOM     20  C   UNL     1       1.282   2.657  19.201  0.00  0.00    +0.000 C 
ATOM     21  C   UNL     1       1.025   2.857  20.691  0.00  0.00    +0.000 C 
ATOM     22  C   UNL     1       2.060   3.745  21.372  0.00  0.00    +0.000 C 
ATOM     23  C   UNL     1       2.335   5.042  20.611  0.00  0.00    +0.000 C 
ENDBRANCH  15  18
ENDBRANCH  13  16
ENDBRANCH   1  13
TORSDOF 5
ENDMDL
MODEL 4
REMARK VINA RESULT:      -8.0      0.144      1.018
REMARK  Name = 
REMARK  6 active torsions:
REMARK  status: ('A' for Active; 'I' for Inactive)
REMARK    1  A    between atoms: C_1  and  N_2
REMARK    2  A    between atoms: N_2  and  C_18
REMARK    3  A    between atoms: C_3  and  C_5
REMARK    4  A    between atoms: C_5  and  S_6
REMARK    5  A    between atoms: S_6  and  C_7
REMARK    6  A    between atoms: N_11  and  C_12
REMARK                            x       y       z     vdW  Elec       q    Type
REMARK                         _______ _______ _______ _____ _____    ______ ____
ROOT
ATOM      1  S   UNL     1       5.032   6.843  16.246  0.00  0.00    +0.000 S 
ENDROOT
BRANCH   1   2
ATOM      2  C   UNL     1       6.413   5.953  16.802  0.00  0.00    +0.000 A 
ATOM      3  N   UNL     1       6.872   5.932  18.033  0.00  0.00    +0.000 NA
ATOM      4  N   UNL     1       7.761   4.889  18.082  0.00  0.00    +0.000 NA
ATOM      5  N   UNL     1       7.835   4.266  16.914  0.00  0.00    +0.000 NA
ATOM      6  N   UNL     1       7.068   4.987  16.057  0.00  0.00    +0.000 N 
BRANCH   6   7
ATOM      7  C   UNL     1       7.033   4.703  14.672  0.00  0.00    +0.000 A 
ATOM      8  C   UNL     1       6.167   3.711  14.195  0.00  0.00    +0.000 A 
ATOM      9  C   UNL     1       6.078   3.473  12.823  0.00  0.00    +0.000 A 
ATOM     10  C   UNL     1       6.879   4.188  11.933  0.00  0.00    +0.000 A 
ATOM     11  C   UNL     1       7.781   5.138  12.412  0.00  0.00    +0.000 A 
ATOM     12  C   UNL     1       7.855   5.400  13.777  0.00  0.00    +0.000 A 
ENDBRANCH   6   7
ENDBRANCH   1   2
BRANCH   1  13
ATOM     13  C   UNL     1       3.933   6.709  17.679  0.00  0.00    +0.000 C 
BRANCH  13  16
ATOM     14  C   UNL     1       2.292   5.930  19.988  0.00  0.00    +0.000 C 
ATOM     15  N   UNL     1       2.522   5.007  18.884  0.00  0.00    +0.000 N 
ATOM     16  C   UNL     1       3.362   5.296  17.796  0.00  0.00    +0.000 C 
ATOM     17  O   UNL     1       3.658   4.425  16.972  0.00  0.00    +0.000 OA
BRANCH  15  18
ATOM     18  C   UNL     1       2.008   3.612  18.980  0.00  0.00    +0.000 C 
ATOM     19  C   UNL     1       3.130   2.577  19.181  0.00  0.00    +0.000 C 
ATOM     20  C   UNL     1       3.616   2.475  20.623  0.00  0.00    +0.000 C 
ATOM     21  C   UNL     1       2.469   2.225  21.596  0.00  0.00    +0.000 C 
ATOM     22  C   UNL     1       1.316   3.210  21.442  0.00  0.00    +0.000 C 
ATOM     23  C   UNL     1       0.870   3.392  19.991  0.00  0.00    +0.000 C 
ENDBRANCH  15  18
ENDBRANCH  13  16
ENDBRANCH   1  13
TORSDOF 5
ENDMDL
MODEL 5
REMARK VINA RESULT:      -7.8      2.012      2.918
REMARK  Name = 
REMARK  6 active torsions:
REMARK  status: ('A' for Active; 'I' for Inactive)
REMARK    1  A    between atoms: C_1  and  N_2
REMARK    2  A    between atoms: N_2  and  C_18
REMARK    3  A    between atoms: C_3  and  C_5
REMARK    4  A    between atoms: C_5  and  S_6
REMARK    5  A    between atoms: S_6  and  C_7
REMARK    6  A    between atoms: N_11  and  C_12
REMARK                            x       y       z     vdW  Elec       q    Type
REMARK                         _______ _______ _______ _____ _____    ______ ____
ROOT
ATOM      1  S   UNL     1       5.893   3.822  15.645  0.00  0.00    +0.000 S 
ENDROOT
BRANCH   1   2
ATOM      2  C   UNL     1       6.852   4.690  14.490  0.00  0.00    +0.000 A 
ATOM      3  N   UNL     1       7.744   5.615  14.768  0.00  0.00    +0.000 NA
ATOM      4  N   UNL     1       8.459   5.803  13.615  0.00  0.00    +0.000 NA
ATOM      5  N   UNL     1       8.035   4.998  12.650  0.00  0.00    +0.000 NA
ATOM      6  N   UNL     1       6.948   4.357  13.150  0.00  0.00    +0.000 N 
BRANCH   6   7
ATOM      7  C   UNL     1       6.137   3.527  12.342  0.00  0.00    +0.000 A 
ATOM      8  C   UNL     1       6.658   2.321  11.855  0.00  0.00    +0.000 A 
ATOM      9  C   UNL     1       5.842   1.465  11.114  0.00  0.00    +0.000 A 
ATOM     10  C   UNL     1       4.528   1.827  10.820  0.00  0.00    +0.000 A 
ATOM     11  C   UNL     1       4.026   3.053  11.258  0.00  0.00    +0.000 A 
ATOM     12  C   UNL     1       4.825   3.899  12.021  0.00  0.00    +0.000 A 
ENDBRANCH   6   7
ENDBRANCH   1   2
BRANCH   1  13
ATOM     13  C   UNL     1       5.505   5.133  16.831  0.00  0.00    +0.000 C 
BRANCH  13  16
ATOM     14  C   UNL     1       2.769   5.268  17.894  0.00  0.00    +0.000 C 
ATOM     15  N   UNL     1       3.824   4.572  18.620  0.00  0.00    +0.000 N 
ATOM     16  C   UNL     1       5.164   4.545  18.200  0.00  0.00    +0.000 C 
ATOM     17  O   UNL     1       6.050   4.088  18.929  0.00  0.00    +0.000 OA
BRANCH  15  18
ATOM     18  C   UNL     1       3.535   4.016  19.971  0.00  0.00    +0.000 C 
ATOM     19  C   UNL     1       2.475   4.829  20.735  0.00  0.00    +0.000 C 
ATOM     20  C   UNL     1       1.043   4.509  20.320  0.00  0.00    +0.000 C 
ATOM     21  C   UNL     1       0.744   3.016  20.405  0.00  0.00    +0.000 C 
ATOM     22  C   UNL     1       1.766   2.150  19.678  0.00  0.00    +0.000 C 
ATOM     23  C   UNL     1       3.211   2.512  20.015  0.00  0.00    +0.000 C 
ENDBRANCH  15  18
ENDBRANCH  13  16
ENDBRANCH   1  13
TORSDOF 5
ENDMDL
MODEL 6
REMARK VINA RESULT:      -7.8      2.007      2.948
REMARK  Name = 
REMARK  6 active torsions:
REMARK  status: ('A' for Active; 'I' for Inactive)
REMARK    1  A    between atoms: C_1  and  N_2
REMARK    2  A    between atoms: N_2  and  C_18
REMARK    3  A    between atoms: C_3  and  C_5
REMARK    4  A    between atoms: C_5  and  S_6
REMARK    5  A    between atoms: S_6  and  C_7
REMARK    6  A    between atoms: N_11  and  C_12
REMARK                            x       y       z     vdW  Elec       q    Type
REMARK                         _______ _______ _______ _____ _____    ______ ____
ROOT
ATOM      1  S   UNL     1       5.823   3.881  15.706  0.00  0.00    +0.000 S 
ENDROOT
BRANCH   1   2
ATOM      2  C   UNL     1       6.809   4.700  14.538  0.00  0.00    +0.000 A 
ATOM      3  N   UNL     1       7.720   5.610  14.800  0.00  0.00    +0.000 NA
ATOM      4  N   UNL     1       8.446   5.755  13.647  0.00  0.00    +0.000 NA
ATOM      5  N   UNL     1       8.009   4.938  12.698  0.00  0.00    +0.000 NA
ATOM      6  N   UNL     1       6.904   4.334  13.206  0.00  0.00    +0.000 N 
BRANCH   6   7
ATOM      7  C   UNL     1       6.079   3.504  12.412  0.00  0.00    +0.000 A 
ATOM      8  C   UNL     1       4.777   3.920  12.107  0.00  0.00    +0.000 A 
ATOM      9  C   UNL     1       3.981   3.138  11.268  0.00  0.00    +0.000 A 
ATOM     10  C   UNL     1       4.463   1.928  10.771  0.00  0.00    +0.000 A 
ATOM     11  C   UNL     1       5.740   1.488  11.119  0.00  0.00    +0.000 A 
ATOM     12  C   UNL     1       6.549   2.274  11.933  0.00  0.00    +0.000 A 
ENDBRANCH   6   7
ENDBRANCH   1   2
BRANCH   1  13
ATOM     13  C   UNL     1       5.687   5.146  16.995  0.00  0.00    +0.000 C 
BRANCH  13  16
ATOM     14  C   UNL     1       2.872   5.135  17.838  0.00  0.00    +0.000 C 
ATOM     15  N   UNL     1       3.899   4.480  18.638  0.00  0.00    +0.000 N 
ATOM     16  C   UNL     1       5.268   4.523  18.326  0.00  0.00    +0.000 C 
ATOM     17  O   UNL     1       6.115   4.098  19.119  0.00  0.00    +0.000 OA
BRANCH  15  18
ATOM     18  C   UNL     1       3.532   3.892  19.957  0.00  0.00    +0.000 C 
ATOM     19  C   UNL     1       2.493   4.737  20.716  0.00  0.00    +0.000 C 
ATOM     20  C   UNL     1       1.061   4.516  20.242  0.00  0.00    +0.000 C 
ATOM     21  C   UNL     1       0.675   3.041  20.259  0.00  0.00    +0.000 C 
ATOM     22  C   UNL     1       1.671   2.144  19.533  0.00  0.00    +0.000 C 
ATOM     23  C   UNL     1       3.122   2.410  19.931  0.00  0.00    +0.000 C 
ENDBRANCH  15  18
ENDBRANCH  13  16
ENDBRANCH   1  13
TORSDOF 5
ENDMDL
MODEL 7
REMARK VINA RESULT:      -7.3      1.192      1.858
REMARK  Name = 
REMARK  6 active torsions:
REMARK  status: ('A' for Active; 'I' for Inactive)
REMARK    1  A    between atoms: C_1  and  N_2
REMARK    2  A    between atoms: N_2  and  C_18
REMARK    3  A    between atoms: C_3  and  C_5
REMARK    4  A    between atoms: C_5  and  S_6
REMARK    5  A    between atoms: S_6  and  C_7
REMARK    6  A    between atoms: N_11  and  C_12
REMARK                            x       y       z     vdW  Elec       q    Type
REMARK                         _______ _______ _______ _____ _____    ______ ____
ROOT
ATOM      1  S   UNL     1       5.506   7.026  17.248  0.00  0.00    +0.000 S 
ENDROOT
BRANCH   1   2
ATOM      2  C   UNL     1       6.841   5.993  17.646  0.00  0.00    +0.000 A 
ATOM      3  N   UNL     1       7.436   5.918  18.815  0.00  0.00    +0.000 NA
ATOM      4  N   UNL     1       8.209   4.788  18.769  0.00  0.00    +0.000 NA
ATOM      5  N   UNL     1       8.080   4.164  17.606  0.00  0.00    +0.000 NA
ATOM      6  N   UNL     1       7.299   4.966  16.838  0.00  0.00    +0.000 N 
BRANCH   6   7
ATOM      7  C   UNL     1       7.073   4.694  15.469  0.00  0.00    +0.000 A 
ATOM      8  C   UNL     1       6.105   3.749  15.107  0.00  0.00    +0.000 A 
ATOM      9  C   UNL     1       5.829   3.524  13.757  0.00  0.00    +0.000 A 
ATOM     10  C   UNL     1       6.544   4.204  12.772  0.00  0.00    +0.000 A 
ATOM     11  C   UNL     1       7.546   5.105  13.132  0.00  0.00    +0.000 A 
ATOM     12  C   UNL     1       7.808   5.354  14.476  0.00  0.00    +0.000 A 
ENDBRANCH   6   7
ENDBRANCH   1   2
BRANCH   1  13
ATOM     13  C   UNL     1       4.233   5.806  16.835  0.00  0.00    +0.000 C 
BRANCH  13  16
ATOM     14  C   UNL     1       3.105   3.300  17.873  0.00  0.00    +0.000 C 
ATOM     15  N   UNL     1       2.666   4.591  18.386  0.00  0.00    +0.000 N 
ATOM     16  C   UNL     1       3.110   5.820  17.871  0.00  0.00    +0.000 C 
ATOM     17  O   UNL     1       2.587   6.883  18.221  0.00  0.00    +0.000 OA
BRANCH  15  18
ATOM     18  C   UNL     1       1.550   4.643  19.371  0.00  0.00    +0.000 C 
ATOM     19  C   UNL     1       0.684   3.371  19.358  0.00  0.00    +0.000 C 
ATOM     20  C   UNL     1       1.291   2.210  20.138  0.00  0.00    +0.000 C 
ATOM     21  C   UNL     1       1.648   2.607  21.567  0.00  0.00    +0.000 C 
ATOM     22  C   UNL     1       2.497   3.870  21.653  0.00  0.00    +0.000 C 
ATOM     23  C   UNL     1       1.951   5.021  20.808  0.00  0.00    +0.000 C 
ENDBRANCH  15  18
ENDBRANCH  13  16
ENDBRANCH   1  13
TORSDOF 5
ENDMDL
MODEL 8
REMARK VINA RESULT:      -7.2      1.081      1.708
REMARK  Name = 
REMARK  6 active torsions:
REMARK  status: ('A' for Active; 'I' for Inactive)
REMARK    1  A    between atoms: C_1  and  N_2
REMARK    2  A    between atoms: N_2  and  C_18
REMARK    3  A    between atoms: C_3  and  C_5
REMARK    4  A    between atoms: C_5  and  S_6
REMARK    5  A    between atoms: S_6  and  C_7
REMARK    6  A    between atoms: N_11  and  C_12
REMARK                            x       y       z     vdW  Elec       q    Type
REMARK                         _______ _______ _______ _____ _____    ______ ____
ROOT
ATOM      1  S   UNL     1       5.493   7.104  16.644  0.00  0.00    +0.000 S 
ENDROOT
BRANCH   1   2
ATOM      2  C   UNL     1       6.761   6.009  17.093  0.00  0.00    +0.000 A 
ATOM      3  N   UNL     1       7.290   5.891  18.290  0.00  0.00    +0.000 NA
ATOM      4  N   UNL     1       8.016   4.730  18.265  0.00  0.00    +0.000 NA
ATOM      5  N   UNL     1       7.921   4.129  17.086  0.00  0.00    +0.000 NA
ATOM      6  N   UNL     1       7.215   4.975  16.293  0.00  0.00    +0.000 N 
BRANCH   6   7
ATOM      7  C   UNL     1       7.049   4.732  14.909  0.00  0.00    +0.000 A 
ATOM      8  C   UNL     1       7.866   5.403  13.991  0.00  0.00    +0.000 A 
ATOM      9  C   UNL     1       7.754   5.117  12.629  0.00  0.00    +0.000 A 
ATOM     10  C   UNL     1       6.803   4.201  12.180  0.00  0.00    +0.000 A 
ATOM     11  C   UNL     1       5.952   3.574  13.090  0.00  0.00    +0.000 A 
ATOM     12  C   UNL     1       6.076   3.834  14.452  0.00  0.00    +0.000 A 
ENDBRANCH   6   7
ENDBRANCH   1   2
BRANCH   1  13
ATOM     13  C   UNL     1       4.037   6.042  16.820  0.00  0.00    +0.000 C 
BRANCH  13  16
ATOM     14  C   UNL     1       3.989   3.289  17.847  0.00  0.00    +0.000 C 
ATOM     15  N   UNL     1       3.813   4.427  18.739  0.00  0.00    +0.000 N 
ATOM     16  C   UNL     1       3.746   5.757  18.293  0.00  0.00    +0.000 C 
ATOM     17  O   UNL     1       3.429   6.671  19.063  0.00  0.00    +0.000 OA
BRANCH  15  18
ATOM     18  C   UNL     1       3.495   4.186  20.174  0.00  0.00    +0.000 C 
ATOM     19  C   UNL     1       2.259   4.972  20.650  0.00  0.00    +0.000 C 
ATOM     20  C   UNL     1       0.935   4.318  20.268  0.00  0.00    +0.000 C 
ATOM     21  C   UNL     1       0.862   2.865  20.726  0.00  0.00    +0.000 C 
ATOM     22  C   UNL     1       2.065   2.032  20.298  0.00  0.00    +0.000 C 
ATOM     23  C   UNL     1       3.403   2.709  20.595  0.00  0.00    +0.000 C 
ENDBRANCH  15  18
ENDBRANCH  13  16
ENDBRANCH   1  13
TORSDOF 5
ENDMDL
MODEL 9
REMARK VINA RESULT:      -7.1      5.287      8.203
REMARK  Name = 
REMARK  6 active torsions:
REMARK  status: ('A' for Active; 'I' for Inactive)
REMARK    1  A    between atoms: C_1  and  N_2
REMARK    2  A    between atoms: N_2  and  C_18
REMARK    3  A    between atoms: C_3  and  C_5
REMARK    4  A    between atoms: C_5  and  S_6
REMARK    5  A    between atoms: S_6  and  C_7
REMARK    6  A    between atoms: N_11  and  C_12
REMARK                            x       y       z     vdW  Elec       q    Type
REMARK                         _______ _______ _______ _____ _____    ______ ____
ROOT
ATOM      1  S   UNL     1      -0.119   8.830  21.187  0.00  0.00    +0.000 S 
ENDROOT
BRANCH   1   2
ATOM      2  C   UNL     1       0.278  10.501  20.948  0.00  0.00    +0.000 A 
ATOM      3  N   UNL     1       1.177  11.184  21.622  0.00  0.00    +0.000 NA
ATOM      4  N   UNL     1       1.372  12.342  20.916  0.00  0.00    +0.000 NA
ATOM      5  N   UNL     1       0.628  12.368  19.819  0.00  0.00    +0.000 NA
ATOM      6  N   UNL     1      -0.152  11.257  19.872  0.00  0.00    +0.000 N 
BRANCH   6   7
ATOM      7  C   UNL     1      -1.189  11.032  18.936  0.00  0.00    +0.000 A 
ATOM      8  C   UNL     1      -0.978  10.140  17.878  0.00  0.00    +0.000 A 
ATOM      9  C   UNL     1      -2.019   9.861  16.991  0.00  0.00    +0.000 A 
ATOM     10  C   UNL     1      -3.250  10.501  17.130  0.00  0.00    +0.000 A 
ATOM     11  C   UNL     1      -3.442  11.431  18.152  0.00  0.00    +0.000 A 
ATOM     12  C   UNL     1      -2.418  11.694  19.056  0.00  0.00    +0.000 A 
ENDBRANCH   6   7
ENDBRANCH   1   2
BRANCH   1  13
ATOM     13  C   UNL     1       1.529   8.080  21.203  0.00  0.00    +0.000 C 
BRANCH  13  16
ATOM     14  C   UNL     1       2.072   5.233  20.719  0.00  0.00    +0.000 C 
ATOM     15  N   UNL     1       2.084   6.197  19.626  0.00  0.00    +0.000 N 
ATOM     16  C   UNL     1       1.912   7.578  19.811  0.00  0.00    +0.000 C 
ATOM     17  O   UNL     1       2.096   8.372  18.882  0.00  0.00    +0.000 OA
BRANCH  15  18
ATOM     18  C   UNL     1       2.485   5.749  18.263  0.00  0.00    +0.000 C 
ATOM     19  C   UNL     1       4.007   5.563  18.121  0.00  0.00    +0.000 C 
ATOM     20  C   UNL     1       4.515   4.240  18.683  0.00  0.00    +0.000 C 
ATOM     21  C   UNL     1       3.767   3.046  18.099  0.00  0.00    +0.000 C 
ATOM     22  C   UNL     1       2.251   3.172  18.195  0.00  0.00    +0.000 C 
ATOM     23  C   UNL     1       1.728   4.526  17.717  0.00  0.00    +0.000 C 
ENDBRANCH  15  18
ENDBRANCH  13  16
ENDBRANCH   1  13
TORSDOF 5
ENDMDL
