MODEL 1
REMARK VINA RESULT:      -7.9      0.000      0.000
REMARK  Name = 
REMARK  7 active torsions:
REMARK  status: ('A' for Active; 'I' for Inactive)
REMARK    1  A    between atoms: C_1  and  N_2
REMARK    2  A    between atoms: N_2  and  C_3
REMARK    3  A    between atoms: N_2  and  C_4
REMARK    4  A    between atoms: C_7  and  C_8
REMARK    5  A    between atoms: N_9  and  N_10
REMARK    6  A    between atoms: C_11  and  S_12
REMARK    7  A    between atoms: C_15  and  C_16
REMARK                            x       y       z     vdW  Elec       q    Type
REMARK                         _______ _______ _______ _____ _____    ______ ____
ROOT
ATOM      1  N   UNL     1       3.337   3.998  19.636  0.00  0.00    +0.000 N 
ATOM      2  C   UNL     1       3.037   3.041  20.602  0.00  0.00    +0.000 A 
ATOM      3  N   UNL     1       3.966   2.118  20.645  0.00  0.00    +0.000 NA
ATOM      4  N   UNL     1       4.878   2.406  19.673  0.00  0.00    +0.000 NA
ATOM      5  C   UNL     1       4.517   3.525  19.055  0.00  0.00    +0.000 A 
ENDROOT
BRANCH   5   6
ATOM      6  C   UNL     1       5.304   4.138  17.977  0.00  0.00    +0.000 A 
ATOM      7  C   UNL     1       4.891   3.935  16.646  0.00  0.00    +0.000 A 
ATOM      8  C   UNL     1       5.647   4.404  15.571  0.00  0.00    +0.000 A 
ATOM      9  C   UNL     1       6.838   5.091  15.808  0.00  0.00    +0.000 A 
ATOM     10  C   UNL     1       7.255   5.309  17.120  0.00  0.00    +0.000 A 
ATOM     11  C   UNL     1       6.494   4.835  18.195  0.00  0.00    +0.000 A 
ENDBRANCH   5   6
BRANCH   1  13
ATOM     12  C   UNL     1       3.043   6.244  19.539  0.00  0.00    +0.000 C 
ATOM     13  N   UNL     1       2.591   5.079  19.196  0.00  0.00    +0.000 NA
BRANCH  12  17
ATOM     14  C   UNL     1       0.833   9.911  18.940  0.00  0.00    +0.000 A 
ATOM     15  C   UNL     1       1.478   9.258  17.872  0.00  0.00    +0.000 A 
ATOM     16  C   UNL     1       2.199   8.068  18.044  0.00  0.00    +0.000 A 
ATOM     17  C   UNL     1       2.284   7.489  19.305  0.00  0.00    +0.000 A 
ATOM     18  C   UNL     1       1.610   8.071  20.376  0.00  0.00    +0.000 A 
ATOM     19  C   UNL     1       0.893   9.260  20.186  0.00  0.00    +0.000 A 
BRANCH  14  21
ATOM     20  C   UNL     1       0.635  12.322  19.449  0.00  0.00    +0.000 C 
ATOM     21  N   UNL     1       0.149  11.119  18.780  0.00  0.00    +0.000 N 
ATOM     22  C   UNL     1      -1.280  11.081  18.472  0.00  0.00    +0.000 C 
ENDBRANCH  14  21
ENDBRANCH  12  17
ENDBRANCH   1  13
BRANCH   2  23
ATOM     23  S   UNL     1       1.597   2.969  21.571  0.00  0.00    +0.000 S 
ATOM     24  H   UNL     1       0.673   3.045  20.607  0.00  0.00    +0.000 HD
ENDBRANCH   2  23
TORSDOF 5
ENDMDL
MODEL 2
REMARK VINA RESULT:      -7.9      0.541      1.176
REMARK  Name = 
REMARK  7 active torsions:
REMARK  status: ('A' for Active; 'I' for Inactive)
REMARK    1  A    between atoms: C_1  and  N_2
REMARK    2  A    between atoms: N_2  and  C_3
REMARK    3  A    between atoms: N_2  and  C_4
REMARK    4  A    between atoms: C_7  and  C_8
REMARK    5  A    between atoms: N_9  and  N_10
REMARK    6  A    between atoms: C_11  and  S_12
REMARK    7  A    between atoms: C_15  and  C_16
REMARK                            x       y       z     vdW  Elec       q    Type
REMARK                         _______ _______ _______ _____ _____    ______ ____
ROOT
ATOM      1  N   UNL     1       3.356   4.155  19.632  0.00  0.00    +0.000 N 
ATOM      2  C   UNL     1       2.941   3.098  20.438  0.00  0.00    +0.000 A 
ATOM      3  N   UNL     1       3.902   2.218  20.582  0.00  0.00    +0.000 NA
ATOM      4  N   UNL     1       4.959   2.638  19.830  0.00  0.00    +0.000 NA
ATOM      5  C   UNL     1       4.651   3.792  19.251  0.00  0.00    +0.000 A 
ENDROOT
BRANCH   5   6
ATOM      6  C   UNL     1       5.587   4.540  18.399  0.00  0.00    +0.000 A 
ATOM      7  C   UNL     1       6.516   5.398  19.016  0.00  0.00    +0.000 A 
ATOM      8  C   UNL     1       7.365   6.211  18.264  0.00  0.00    +0.000 A 
ATOM      9  C   UNL     1       7.301   6.180  16.871  0.00  0.00    +0.000 A 
ATOM     10  C   UNL     1       6.393   5.327  16.244  0.00  0.00    +0.000 A 
ATOM     11  C   UNL     1       5.543   4.515  17.003  0.00  0.00    +0.000 A 
ENDBRANCH   5   6
BRANCH   1  13
ATOM     12  C   UNL     1       2.958   6.386  19.656  0.00  0.00    +0.000 C 
ATOM     13  N   UNL     1       2.640   5.238  19.149  0.00  0.00    +0.000 NA
BRANCH  12  17
ATOM     14  C   UNL     1       0.700  10.004  18.950  0.00  0.00    +0.000 A 
ATOM     15  C   UNL     1       1.374   9.343  17.905  0.00  0.00    +0.000 A 
ATOM     16  C   UNL     1       2.111   8.168  18.111  0.00  0.00    +0.000 A 
ATOM     17  C   UNL     1       2.183   7.614  19.385  0.00  0.00    +0.000 A 
ATOM     18  C   UNL     1       1.482   8.205  20.433  0.00  0.00    +0.000 A 
ATOM     19  C   UNL     1       0.749   9.378  20.209  0.00  0.00    +0.000 A 
BRANCH  14  21
ATOM     20  C   UNL     1       0.587  12.463  19.188  0.00  0.00    +0.000 C 
ATOM     21  N   UNL     1      -0.000  11.198  18.755  0.00  0.00    +0.000 N 
ATOM     22  C   UNL     1      -1.461  11.151  18.684  0.00  0.00    +0.000 C 
ENDBRANCH  14  21
ENDBRANCH  12  17
ENDBRANCH   1  13
BRANCH   2  23
ATOM     23  S   UNL     1       1.353   2.869  21.103  0.00  0.00    +0.000 S 
ATOM     24  H   UNL     1       1.680   2.513  22.350  0.00  0.00    +0.000 HD
ENDBRANCH   2  23
TORSDOF 5
ENDMDL
MODEL 3
REMARK VINA RESULT:      -7.9      0.421      1.480
REMARK  Name = 
REMARK  7 active torsions:
REMARK  status: ('A' for Active; 'I' for Inactive)
REMARK    1  A    between atoms: C_1  and  N_2
REMARK    2  A    between atoms: N_2  and  C_3
REMARK    3  A    between atoms: N_2  and  C_4
REMARK    4  A    between atoms: C_7  and  C_8
REMARK    5  A    between atoms: N_9  and  N_10
REMARK    6  A    between atoms: C_11  and  S_12
REMARK    7  A    between atoms: C_15  and  C_16
REMARK                            x       y       z     vdW  Elec       q    Type
REMARK                         _______ _______ _______ _____ _____    ______ ____
ROOT
ATOM      1  N   UNL     1       3.380   4.048  19.648  0.00  0.00    +0.000 N 
ATOM      2  C   UNL     1       3.024   3.018  20.514  0.00  0.00    +0.000 A 
ATOM      3  N   UNL     1       3.980   2.125  20.593  0.00  0.00    +0.000 NA
ATOM      4  N   UNL     1       4.971   2.508  19.738  0.00  0.00    +0.000 NA
ATOM      5  C   UNL     1       4.630   3.653  19.161  0.00  0.00    +0.000 A 
ENDROOT
BRANCH   5   6
ATOM      6  C   UNL     1       5.496   4.364  18.210  0.00  0.00    +0.000 A 
ATOM      7  C   UNL     1       6.524   5.179  18.719  0.00  0.00    +0.000 A 
ATOM      8  C   UNL     1       7.318   5.958  17.877  0.00  0.00    +0.000 A 
ATOM      9  C   UNL     1       7.098   5.936  16.500  0.00  0.00    +0.000 A 
ATOM     10  C   UNL     1       6.090   5.126  15.978  0.00  0.00    +0.000 A 
ATOM     11  C   UNL     1       5.296   4.347  16.828  0.00  0.00    +0.000 A 
ENDBRANCH   5   6
BRANCH   1  13
ATOM     12  C   UNL     1       2.997   6.281  19.682  0.00  0.00    +0.000 C 
ATOM     13  N   UNL     1       2.640   5.131  19.205  0.00  0.00    +0.000 NA
BRANCH  12  17
ATOM     14  C   UNL     1       0.693   9.860  18.927  0.00  0.00    +0.000 A 
ATOM     15  C   UNL     1       0.771   9.295  20.213  0.00  0.00    +0.000 A 
ATOM     16  C   UNL     1       1.512   8.135  20.481  0.00  0.00    +0.000 A 
ATOM     17  C   UNL     1       2.212   7.512  19.454  0.00  0.00    +0.000 A 
ATOM     18  C   UNL     1       2.210   8.074  18.180  0.00  0.00    +0.000 A 
ATOM     19  C   UNL     1       1.464   9.234  17.930  0.00  0.00    +0.000 A 
BRANCH  14  21
ATOM     20  C   UNL     1       0.432  12.319  18.985  0.00  0.00    +0.000 C 
ATOM     21  N   UNL     1      -0.079  10.992  18.649  0.00  0.00    +0.000 N 
ATOM     22  C   UNL     1      -1.533  10.853  18.590  0.00  0.00    +0.000 C 
ENDBRANCH  14  21
ENDBRANCH  12  17
ENDBRANCH   1  13
BRANCH   2  23
ATOM     23  S   UNL     1       1.499   2.832  21.325  0.00  0.00    +0.000 S 
ATOM     24  H   UNL     1       0.723   3.560  20.514  0.00  0.00    +0.000 HD
ENDBRANCH   2  23
TORSDOF 5
ENDMDL
MODEL 4
REMARK VINA RESULT:      -7.9      0.251      1.261
REMARK  Name = 
REMARK  7 active torsions:
REMARK  status: ('A' for Active; 'I' for Inactive)
REMARK    1  A    between atoms: C_1  and  N_2
REMARK    2  A    between atoms: N_2  and  C_3
REMARK    3  A    between atoms: N_2  and  C_4
REMARK    4  A    between atoms: C_7  and  C_8
REMARK    5  A    between atoms: N_9  and  N_10
REMARK    6  A    between atoms: C_11  and  S_12
REMARK    7  A    between atoms: C_15  and  C_16
REMARK                            x       y       z     vdW  Elec       q    Type
REMARK                         _______ _______ _______ _____ _____    ______ ____
ROOT
ATOM      1  N   UNL     1       3.340   4.078  19.544  0.00  0.00    +0.000 N 
ATOM      2  C   UNL     1       3.048   3.096  20.487  0.00  0.00    +0.000 A 
ATOM      3  N   UNL     1       3.972   2.166  20.490  0.00  0.00    +0.000 NA
ATOM      4  N   UNL     1       4.870   2.476  19.512  0.00  0.00    +0.000 NA
ATOM      5  C   UNL     1       4.508   3.614  18.932  0.00  0.00    +0.000 A 
ENDROOT
BRANCH   5   6
ATOM      6  C   UNL     1       5.283   4.252  17.859  0.00  0.00    +0.000 A 
ATOM      7  C   UNL     1       4.972   3.931  16.525  0.00  0.00    +0.000 A 
ATOM      8  C   UNL     1       5.731   4.423  15.463  0.00  0.00    +0.000 A 
ATOM      9  C   UNL     1       6.823   5.253  15.717  0.00  0.00    +0.000 A 
ATOM     10  C   UNL     1       7.138   5.590  17.033  0.00  0.00    +0.000 A 
ATOM     11  C   UNL     1       6.373   5.092  18.095  0.00  0.00    +0.000 A 
ENDBRANCH   5   6
BRANCH   1  13
ATOM     12  C   UNL     1       2.967   6.312  19.645  0.00  0.00    +0.000 C 
ATOM     13  N   UNL     1       2.594   5.176  19.146  0.00  0.00    +0.000 NA
BRANCH  12  17
ATOM     14  C   UNL     1       0.665   9.919  19.035  0.00  0.00    +0.000 A 
ATOM     15  C   UNL     1       0.751   9.308  20.300  0.00  0.00    +0.000 A 
ATOM     16  C   UNL     1       1.492   8.138  20.520  0.00  0.00    +0.000 A 
ATOM     17  C   UNL     1       2.183   7.551  19.466  0.00  0.00    +0.000 A 
ATOM     18  C   UNL     1       2.173   8.159  18.214  0.00  0.00    +0.000 A 
ATOM     19  C   UNL     1       1.427   9.328  18.011  0.00  0.00    +0.000 A 
BRANCH  14  21
ATOM     20  C   UNL     1      -1.385  10.944  18.105  0.00  0.00    +0.000 C 
ATOM     21  N   UNL     1      -0.107  11.062  18.803  0.00  0.00    +0.000 N 
ATOM     22  C   UNL     1       0.566  12.357  18.711  0.00  0.00    +0.000 C 
ENDBRANCH  14  21
ENDBRANCH  12  17
ENDBRANCH   1  13
BRANCH   2  23
ATOM     23  S   UNL     1       1.622   3.005  21.475  0.00  0.00    +0.000 S 
ATOM     24  H   UNL     1       1.070   4.187  21.182  0.00  0.00    +0.000 HD
ENDBRANCH   2  23
TORSDOF 5
ENDMDL
MODEL 5
REMARK VINA RESULT:      -7.8      1.215      2.040
REMARK  Name = 
REMARK  7 active torsions:
REMARK  status: ('A' for Active; 'I' for Inactive)
REMARK    1  A    between atoms: C_1  and  N_2
REMARK    2  A    between atoms: N_2  and  C_3
REMARK    3  A    between atoms: N_2  and  C_4
REMARK    4  A    between atoms: C_7  and  C_8
REMARK    5  A    between atoms: N_9  and  N_10
REMARK    6  A    between atoms: C_11  and  S_12
REMARK    7  A    between atoms: C_15  and  C_16
REMARK                            x       y       z     vdW  Elec       q    Type
REMARK                         _______ _______ _______ _____ _____    ______ ____
ROOT
ATOM      1  N   UNL     1       3.334   4.645  19.368  0.00  0.00    +0.000 N 
ATOM      2  C   UNL     1       2.852   3.465  19.928  0.00  0.00    +0.000 A 
ATOM      3  N   UNL     1       3.824   2.602  20.098  0.00  0.00    +0.000 NA
ATOM      4  N   UNL     1       4.964   3.163  19.603  0.00  0.00    +0.000 NA
ATOM      5  C   UNL     1       4.691   4.383  19.158  0.00  0.00    +0.000 A 
ENDROOT
BRANCH   5   6
ATOM      6  C   UNL     1       5.709   5.280  18.594  0.00  0.00    +0.000 A 
ATOM      7  C   UNL     1       6.922   5.440  19.290  0.00  0.00    +0.000 A 
ATOM      8  C   UNL     1       7.890   6.349  18.864  0.00  0.00    +0.000 A 
ATOM      9  C   UNL     1       7.663   7.122  17.725  0.00  0.00    +0.000 A 
ATOM     10  C   UNL     1       6.471   6.968  17.018  0.00  0.00    +0.000 A 
ATOM     11  C   UNL     1       5.503   6.055  17.450  0.00  0.00    +0.000 A 
ENDBRANCH   5   6
BRANCH   1  13
ATOM     12  C   UNL     1       2.672   6.780  19.747  0.00  0.00    +0.000 C 
ATOM     13  N   UNL     1       2.647   5.769  18.938  0.00  0.00    +0.000 NA
BRANCH  12  17
ATOM     14  C   UNL     1       0.270  10.300  19.021  0.00  0.00    +0.000 A 
ATOM     15  C   UNL     1       0.368   9.729  20.305  0.00  0.00    +0.000 A 
ATOM     16  C   UNL     1       1.142   8.588  20.562  0.00  0.00    +0.000 A 
ATOM     17  C   UNL     1       1.854   7.990  19.528  0.00  0.00    +0.000 A 
ATOM     18  C   UNL     1       1.831   8.559  18.258  0.00  0.00    +0.000 A 
ATOM     19  C   UNL     1       1.053   9.700  18.018  0.00  0.00    +0.000 A 
BRANCH  14  21
ATOM     20  C   UNL     1      -1.772  11.247  17.998  0.00  0.00    +0.000 C 
ATOM     21  N   UNL     1      -0.533  11.412  18.753  0.00  0.00    +0.000 N 
ATOM     22  C   UNL     1       0.093  12.732  18.690  0.00  0.00    +0.000 C 
ENDBRANCH  14  21
ENDBRANCH  12  17
ENDBRANCH   1  13
BRANCH   2  23
ATOM     23  S   UNL     1       1.193   3.091  20.277  0.00  0.00    +0.000 S 
ATOM     24  H   UNL     1       1.346   2.463  21.449  0.00  0.00    +0.000 HD
ENDBRANCH   2  23
TORSDOF 5
ENDMDL
MODEL 6
REMARK VINA RESULT:      -7.7      1.191      1.321
REMARK  Name = 
REMARK  7 active torsions:
REMARK  status: ('A' for Active; 'I' for Inactive)
REMARK    1  A    between atoms: C_1  and  N_2
REMARK    2  A    between atoms: N_2  and  C_3
REMARK    3  A    between atoms: N_2  and  C_4
REMARK    4  A    between atoms: C_7  and  C_8
REMARK    5  A    between atoms: N_9  and  N_10
REMARK    6  A    between atoms: C_11  and  S_12
REMARK    7  A    between atoms: C_15  and  C_16
REMARK                            x       y       z     vdW  Elec       q    Type
REMARK                         _______ _______ _______ _____ _____    ______ ____
ROOT
ATOM      1  N   UNL     1       3.594   4.569  19.984  0.00  0.00    +0.000 N 
ATOM      2  C   UNL     1       3.094   3.296  20.242  0.00  0.00    +0.000 A 
ATOM      3  N   UNL     1       3.930   2.375  19.827  0.00  0.00    +0.000 NA
ATOM      4  N   UNL     1       4.979   3.011  19.232  0.00  0.00    +0.000 NA
ATOM      5  C   UNL     1       4.795   4.323  19.311  0.00  0.00    +0.000 A 
ENDROOT
BRANCH   5   6
ATOM      6  C   UNL     1       5.763   5.303  18.799  0.00  0.00    +0.000 A 
ATOM      7  C   UNL     1       5.465   5.976  17.599  0.00  0.00    +0.000 A 
ATOM      8  C   UNL     1       6.381   6.844  17.005  0.00  0.00    +0.000 A 
ATOM      9  C   UNL     1       7.622   7.059  17.605  0.00  0.00    +0.000 A 
ATOM     10  C   UNL     1       7.929   6.408  18.800  0.00  0.00    +0.000 A 
ATOM     11  C   UNL     1       7.006   5.537  19.391  0.00  0.00    +0.000 A 
ENDBRANCH   5   6
BRANCH   1  13
ATOM     12  C   UNL     1       2.512   6.353  19.099  0.00  0.00    +0.000 C 
ATOM     13  N   UNL     1       3.004   5.809  20.166  0.00  0.00    +0.000 NA
BRANCH  12  17
ATOM     14  C   UNL     1       1.040  10.418  19.130  0.00  0.00    +0.000 A 
ATOM     15  C   UNL     1       1.555   9.832  17.958  0.00  0.00    +0.000 A 
ATOM     16  C   UNL     1       2.037   8.516  17.925  0.00  0.00    +0.000 A 
ATOM     17  C   UNL     1       2.004   7.740  19.080  0.00  0.00    +0.000 A 
ATOM     18  C   UNL     1       1.447   8.263  20.243  0.00  0.00    +0.000 A 
ATOM     19  C   UNL     1       0.969   9.581  20.258  0.00  0.00    +0.000 A 
BRANCH  14  21
ATOM     20  C   UNL     1       1.206  12.679  20.117  0.00  0.00    +0.000 C 
ATOM     21  N   UNL     1       0.598  11.743  19.175  0.00  0.00    +0.000 N 
ATOM     22  C   UNL     1      -0.772  12.041  18.759  0.00  0.00    +0.000 C 
ENDBRANCH  14  21
ENDBRANCH  12  17
ENDBRANCH   1  13
BRANCH   2  23
ATOM     23  S   UNL     1       1.541   2.915  20.921  0.00  0.00    +0.000 S 
ATOM     24  H   UNL     1       1.090   4.152  21.156  0.00  0.00    +0.000 HD
ENDBRANCH   2  23
TORSDOF 5
ENDMDL
MODEL 7
REMARK VINA RESULT:      -7.7      1.130      1.611
REMARK  Name = 
REMARK  7 active torsions:
REMARK  status: ('A' for Active; 'I' for Inactive)
REMARK    1  A    between atoms: C_1  and  N_2
REMARK    2  A    between atoms: N_2  and  C_3
REMARK    3  A    between atoms: N_2  and  C_4
REMARK    4  A    between atoms: C_7  and  C_8
REMARK    5  A    between atoms: N_9  and  N_10
REMARK    6  A    between atoms: C_11  and  S_12
REMARK    7  A    between atoms: C_15  and  C_16
REMARK                            x       y       z     vdW  Elec       q    Type
REMARK                         _______ _______ _______ _____ _____    ______ ____
ROOT
ATOM      1  N   UNL     1       3.577   4.521  19.985  0.00  0.00    +0.000 N 
ATOM      2  C   UNL     1       3.069   3.252  20.247  0.00  0.00    +0.000 A 
ATOM      3  N   UNL     1       3.892   2.325  19.822  0.00  0.00    +0.000 NA
ATOM      4  N   UNL     1       4.941   2.953  19.218  0.00  0.00    +0.000 NA
ATOM      5  C   UNL     1       4.769   4.267  19.301  0.00  0.00    +0.000 A 
ENDROOT
BRANCH   5   6
ATOM      6  C   UNL     1       5.740   5.240  18.781  0.00  0.00    +0.000 A 
ATOM      7  C   UNL     1       5.467   5.867  17.551  0.00  0.00    +0.000 A 
ATOM      8  C   UNL     1       6.391   6.725  16.953  0.00  0.00    +0.000 A 
ATOM      9  C   UNL     1       7.613   6.974  17.577  0.00  0.00    +0.000 A 
ATOM     10  C   UNL     1       7.894   6.368  18.801  0.00  0.00    +0.000 A 
ATOM     11  C   UNL     1       6.964   5.508  19.397  0.00  0.00    +0.000 A 
ENDBRANCH   5   6
BRANCH   1  13
ATOM     12  C   UNL     1       2.511   6.321  19.113  0.00  0.00    +0.000 C 
ATOM     13  N   UNL     1       2.999   5.766  20.176  0.00  0.00    +0.000 NA
BRANCH  12  17
ATOM     14  C   UNL     1       1.054  10.389  18.991  0.00  0.00    +0.000 A 
ATOM     15  C   UNL     1       0.959   9.610  20.159  0.00  0.00    +0.000 A 
ATOM     16  C   UNL     1       1.425   8.289  20.221  0.00  0.00    +0.000 A 
ATOM     17  C   UNL     1       2.017   7.713  19.101  0.00  0.00    +0.000 A 
ATOM     18  C   UNL     1       2.184   8.471  17.946  0.00  0.00    +0.000 A 
ATOM     19  C   UNL     1       1.713   9.790  17.902  0.00  0.00    +0.000 A 
BRANCH  14  21
ATOM     20  C   UNL     1       1.315  12.798  19.487  0.00  0.00    +0.000 C 
ATOM     21  N   UNL     1       0.552  11.692  18.914  0.00  0.00    +0.000 N 
ATOM     22  C   UNL     1      -0.895  11.882  18.819  0.00  0.00    +0.000 C 
ENDBRANCH  14  21
ENDBRANCH  12  17
ENDBRANCH   1  13
BRANCH   2  23
ATOM     23  S   UNL     1       1.519   2.883  20.939  0.00  0.00    +0.000 S 
ATOM     24  H   UNL     1       0.729   3.553  20.092  0.00  0.00    +0.000 HD
ENDBRANCH   2  23
TORSDOF 5
ENDMDL
MODEL 8
REMARK VINA RESULT:      -7.7      1.222      1.831
REMARK  Name = 
REMARK  7 active torsions:
REMARK  status: ('A' for Active; 'I' for Inactive)
REMARK    1  A    between atoms: C_1  and  N_2
REMARK    2  A    between atoms: N_2  and  C_3
REMARK    3  A    between atoms: N_2  and  C_4
REMARK    4  A    between atoms: C_7  and  C_8
REMARK    5  A    between atoms: N_9  and  N_10
REMARK    6  A    between atoms: C_11  and  S_12
REMARK    7  A    between atoms: C_15  and  C_16
REMARK                            x       y       z     vdW  Elec       q    Type
REMARK                         _______ _______ _______ _____ _____    ______ ____
ROOT
ATOM      1  N   UNL     1       3.292   4.600  19.319  0.00  0.00    +0.000 N 
ATOM      2  C   UNL     1       2.804   3.382  19.784  0.00  0.00    +0.000 A 
ATOM      3  N   UNL     1       3.782   2.529  19.968  0.00  0.00    +0.000 NA
ATOM      4  N   UNL     1       4.937   3.138  19.576  0.00  0.00    +0.000 NA
ATOM      5  C   UNL     1       4.666   4.376  19.181  0.00  0.00    +0.000 A 
ENDROOT
BRANCH   5   6
ATOM      6  C   UNL     1       5.696   5.321  18.731  0.00  0.00    +0.000 A 
ATOM      7  C   UNL     1       5.478   6.032  17.536  0.00  0.00    +0.000 A 
ATOM      8  C   UNL     1       6.456   6.870  17.000  0.00  0.00    +0.000 A 
ATOM      9  C   UNL     1       7.680   7.014  17.653  0.00  0.00    +0.000 A 
ATOM     10  C   UNL     1       7.908   6.325  18.843  0.00  0.00    +0.000 A 
ATOM     11  C   UNL     1       6.924   5.485  19.377  0.00  0.00    +0.000 A 
ENDBRANCH   5   6
BRANCH   1  13
ATOM     12  C   UNL     1       2.669   6.742  19.716  0.00  0.00    +0.000 C 
ATOM     13  N   UNL     1       2.608   5.732  18.908  0.00  0.00    +0.000 NA
BRANCH  12  17
ATOM     14  C   UNL     1       0.295  10.294  19.056  0.00  0.00    +0.000 A 
ATOM     15  C   UNL     1       0.396   9.705  20.330  0.00  0.00    +0.000 A 
ATOM     16  C   UNL     1       1.161   8.553  20.567  0.00  0.00    +0.000 A 
ATOM     17  C   UNL     1       1.861   7.963  19.520  0.00  0.00    +0.000 A 
ATOM     18  C   UNL     1       1.834   8.550  18.258  0.00  0.00    +0.000 A 
ATOM     19  C   UNL     1       1.066   9.702  18.039  0.00  0.00    +0.000 A 
BRANCH  14  21
ATOM     20  C   UNL     1      -1.772  11.265  18.108  0.00  0.00    +0.000 C 
ATOM     21  N   UNL     1      -0.500  11.417  18.808  0.00  0.00    +0.000 N 
ATOM     22  C   UNL     1       0.146  12.725  18.703  0.00  0.00    +0.000 C 
ENDBRANCH  14  21
ENDBRANCH  12  17
ENDBRANCH   1  13
BRANCH   2  23
ATOM     23  S   UNL     1       1.135   2.957  20.009  0.00  0.00    +0.000 S 
ATOM     24  H   UNL     1       1.208   1.638  19.800  0.00  0.00    +0.000 HD
ENDBRANCH   2  23
TORSDOF 5
ENDMDL
MODEL 9
REMARK VINA RESULT:      -7.5      2.292      3.831
REMARK  Name = 
REMARK  7 active torsions:
REMARK  status: ('A' for Active; 'I' for Inactive)
REMARK    1  A    between atoms: C_1  and  N_2
REMARK    2  A    between atoms: N_2  and  C_3
REMARK    3  A    between atoms: N_2  and  C_4
REMARK    4  A    between atoms: C_7  and  C_8
REMARK    5  A    between atoms: N_9  and  N_10
REMARK    6  A    between atoms: C_11  and  S_12
REMARK    7  A    between atoms: C_15  and  C_16
REMARK                            x       y       z     vdW  Elec       q    Type
REMARK                         _______ _______ _______ _____ _____    ______ ____
ROOT
ATOM      1  N   UNL     1       4.607   5.581  18.232  0.00  0.00    +0.000 N 
ATOM      2  C   UNL     1       5.985   5.588  18.033  0.00  0.00    +0.000 A 
ATOM      3  N   UNL     1       6.518   4.459  18.434  0.00  0.00    +0.000 NA
ATOM      4  N   UNL     1       5.518   3.697  18.962  0.00  0.00    +0.000 NA
ATOM      5  C   UNL     1       4.368   4.352  18.855  0.00  0.00    +0.000 A 
ENDROOT
BRANCH   5   6
ATOM      6  C   UNL     1       3.081   3.795  19.294  0.00  0.00    +0.000 A 
ATOM      7  C   UNL     1       2.261   3.167  18.338  0.00  0.00    +0.000 A 
ATOM      8  C   UNL     1       0.986   2.706  18.665  0.00  0.00    +0.000 A 
ATOM      9  C   UNL     1       0.503   2.863  19.965  0.00  0.00    +0.000 A 
ATOM     10  C   UNL     1       1.308   3.473  20.926  0.00  0.00    +0.000 A 
ATOM     11  C   UNL     1       2.586   3.935  20.592  0.00  0.00    +0.000 A 
ENDBRANCH   5   6
BRANCH   1  13
ATOM     12  C   UNL     1       3.247   7.160  19.123  0.00  0.00    +0.000 C 
ATOM     13  N   UNL     1       3.678   6.590  18.043  0.00  0.00    +0.000 NA
BRANCH  12  17
ATOM     14  C   UNL     1      -0.028   9.980  19.020  0.00  0.00    +0.000 A 
ATOM     15  C   UNL     1       0.391   9.385  20.225  0.00  0.00    +0.000 A 
ATOM     16  C   UNL     1       1.451   8.468  20.282  0.00  0.00    +0.000 A 
ATOM     17  C   UNL     1       2.133   8.130  19.117  0.00  0.00    +0.000 A 
ATOM     18  C   UNL     1       1.787   8.742  17.916  0.00  0.00    +0.000 A 
ATOM     19  C   UNL     1       0.726   9.656  17.878  0.00  0.00    +0.000 A 
BRANCH  14  21
ATOM     20  C   UNL     1      -1.415  11.722  20.095  0.00  0.00    +0.000 C 
ATOM     21  N   UNL     1      -1.111  10.861  18.955  0.00  0.00    +0.000 N 
ATOM     22  C   UNL     1      -2.231  10.534  18.073  0.00  0.00    +0.000 C 
ENDBRANCH  14  21
ENDBRANCH  12  17
ENDBRANCH   1  13
BRANCH   2  23
ATOM     23  S   UNL     1       6.935   6.914  17.438  0.00  0.00    +0.000 S 
ATOM     24  H   UNL     1       8.010   6.246  17.007  0.00  0.00    +0.000 HD
ENDBRANCH   2  23
TORSDOF 5
ENDMDL
