MODEL 1
REMARK VINA RESULT:      -6.9      0.000      0.000
REMARK  Name = 
REMARK  2 active torsions:
REMARK  status: ('A' for Active; 'I' for Inactive)
REMARK    1  A    between atoms: C_6  and  C_7
REMARK    2  A    between atoms: N_13  and  O_14
REMARK                            x       y       z     vdW  Elec       q    Type
REMARK                         _______ _______ _______ _____ _____    ______ ____
ROOT
ATOM      1  O   UNL     1       7.828   4.681  16.215  0.00  0.00    +0.000 OA
ATOM      2  C   UNL     1       6.977   4.730  17.093  0.00  0.00    +0.000 A 
ATOM      3  C   UNL     1       7.223   5.524  18.329  0.00  0.00    +0.000 A 
ATOM      4  C   UNL     1       6.330   5.467  19.325  0.00  0.00    +0.000 A 
ATOM      5  C   UNL     1       5.085   4.738  19.178  0.00  0.00    +0.000 A 
ATOM      6  C   UNL     1       4.752   4.139  18.014  0.00  0.00    +0.000 A 
ATOM      7  N   UNL     1       5.735   4.118  17.034  0.00  0.00    +0.000 N 
ENDROOT
BRANCH   6   8
ATOM      8  C   UNL     1       3.295   3.780  17.638  0.00  0.00    +0.000 C 
ATOM      9  C   UNL     1       2.723   2.363  17.894  0.00  0.00    +0.000 C 
ATOM     10  C   UNL     1       2.130   2.127  19.278  0.00  0.00    +0.000 C 
ATOM     11  C   UNL     1       1.155   3.223  19.682  0.00  0.00    +0.000 C 
ATOM     12  C   UNL     1       1.789   4.599  19.534  0.00  0.00    +0.000 C 
ATOM     13  C   UNL     1       2.232   4.816  18.087  0.00  0.00    +0.000 C 
ENDBRANCH   6   8
BRANCH   7  14
ATOM     14  O   UNL     1       5.533   3.245  15.949  0.00  0.00    +0.000 OA
ATOM     15  H   UNL     1       4.919   3.752  15.391  0.00  0.00    +0.000 HD
ENDBRANCH   7  14
TORSDOF 2
ENDMDL
MODEL 2
REMARK VINA RESULT:      -6.9      1.572      2.462
REMARK  Name = 
REMARK  2 active torsions:
REMARK  status: ('A' for Active; 'I' for Inactive)
REMARK    1  A    between atoms: C_6  and  C_7
REMARK    2  A    between atoms: N_13  and  O_14
REMARK                            x       y       z     vdW  Elec       q    Type
REMARK                         _______ _______ _______ _____ _____    ______ ____
ROOT
ATOM      1  O   UNL     1       8.313   4.400  17.413  0.00  0.00    +0.000 OA
ATOM      2  C   UNL     1       7.116   4.429  17.161  0.00  0.00    +0.000 A 
ATOM      3  C   UNL     1       6.647   4.338  15.751  0.00  0.00    +0.000 A 
ATOM      4  C   UNL     1       5.342   4.490  15.491  0.00  0.00    +0.000 A 
ATOM      5  C   UNL     1       4.373   4.634  16.560  0.00  0.00    +0.000 A 
ATOM      6  C   UNL     1       4.740   4.559  17.858  0.00  0.00    +0.000 A 
ATOM      7  N   UNL     1       6.105   4.509  18.106  0.00  0.00    +0.000 N 
ENDROOT
BRANCH   6   8
ATOM      8  C   UNL     1       3.747   4.222  18.996  0.00  0.00    +0.000 C 
ATOM      9  C   UNL     1       2.276   4.707  18.949  0.00  0.00    +0.000 C 
ATOM     10  C   UNL     1       1.302   3.799  18.207  0.00  0.00    +0.000 C 
ATOM     11  C   UNL     1       1.417   2.347  18.649  0.00  0.00    +0.000 C 
ATOM     12  C   UNL     1       2.858   1.865  18.568  0.00  0.00    +0.000 C 
ATOM     13  C   UNL     1       3.751   2.739  19.447  0.00  0.00    +0.000 C 
ENDBRANCH   6   8
BRANCH   7  14
ATOM     14  O   UNL     1       6.520   4.744  19.430  0.00  0.00    +0.000 OA
ATOM     15  H   UNL     1       7.483   4.626  19.365  0.00  0.00    +0.000 HD
ENDBRANCH   7  14
TORSDOF 2
ENDMDL
MODEL 3
REMARK VINA RESULT:      -6.7      1.674      1.900
REMARK  Name = 
REMARK  2 active torsions:
REMARK  status: ('A' for Active; 'I' for Inactive)
REMARK    1  A    between atoms: C_6  and  C_7
REMARK    2  A    between atoms: N_13  and  O_14
REMARK                            x       y       z     vdW  Elec       q    Type
REMARK                         _______ _______ _______ _____ _____    ______ ____
ROOT
ATOM      1  O   UNL     1       6.232   5.523  14.772  0.00  0.00    +0.000 OA
ATOM      2  C   UNL     1       5.536   5.517  15.778  0.00  0.00    +0.000 A 
ATOM      3  C   UNL     1       4.924   6.782  16.271  0.00  0.00    +0.000 A 
ATOM      4  C   UNL     1       4.266   6.773  17.436  0.00  0.00    +0.000 A 
ATOM      5  C   UNL     1       4.048   5.540  18.168  0.00  0.00    +0.000 A 
ATOM      6  C   UNL     1       4.446   4.348  17.673  0.00  0.00    +0.000 A 
ATOM      7  N   UNL     1       5.219   4.391  16.521  0.00  0.00    +0.000 N 
ENDROOT
BRANCH   6   8
ATOM      8  C   UNL     1       3.842   3.000  18.134  0.00  0.00    +0.000 C 
ATOM      9  C   UNL     1       3.859   2.579  19.626  0.00  0.00    +0.000 C 
ATOM     10  C   UNL     1       2.689   3.074  20.467  0.00  0.00    +0.000 C 
ATOM     11  C   UNL     1       1.346   2.800  19.807  0.00  0.00    +0.000 C 
ATOM     12  C   UNL     1       1.320   3.334  18.382  0.00  0.00    +0.000 C 
ATOM     13  C   UNL     1       2.435   2.687  17.562  0.00  0.00    +0.000 C 
ENDBRANCH   6   8
BRANCH   7  14
ATOM     14  O   UNL     1       5.899   3.211  16.166  0.00  0.00    +0.000 OA
ATOM     15  H   UNL     1       6.826   3.505  16.160  0.00  0.00    +0.000 HD
ENDBRANCH   7  14
TORSDOF 2
ENDMDL
MODEL 4
REMARK VINA RESULT:      -6.6      2.656      4.767
REMARK  Name = 
REMARK  2 active torsions:
REMARK  status: ('A' for Active; 'I' for Inactive)
REMARK    1  A    between atoms: C_6  and  C_7
REMARK    2  A    between atoms: N_13  and  O_14
REMARK                            x       y       z     vdW  Elec       q    Type
REMARK                         _______ _______ _______ _____ _____    ______ ____
ROOT
ATOM      1  O   UNL     1       2.843   2.454  21.389  0.00  0.00    +0.000 OA
ATOM      2  C   UNL     1       2.813   2.977  20.283  0.00  0.00    +0.000 A 
ATOM      3  C   UNL     1       1.533   3.513  19.744  0.00  0.00    +0.000 A 
ATOM      4  C   UNL     1       1.501   3.973  18.487  0.00  0.00    +0.000 A 
ATOM      5  C   UNL     1       2.706   4.056  17.685  0.00  0.00    +0.000 A 
ATOM      6  C   UNL     1       3.915   3.731  18.194  0.00  0.00    +0.000 A 
ATOM      7  N   UNL     1       3.912   3.157  19.458  0.00  0.00    +0.000 N 
ENDROOT
BRANCH   6   8
ATOM      8  C   UNL     1       5.247   4.238  17.591  0.00  0.00    +0.000 C 
ATOM      9  C   UNL     1       5.676   3.856  16.152  0.00  0.00    +0.000 C 
ATOM     10  C   UNL     1       5.151   4.759  15.042  0.00  0.00    +0.000 C 
ATOM     11  C   UNL     1       5.383   6.233  15.340  0.00  0.00    +0.000 C 
ATOM     12  C   UNL     1       4.840   6.604  16.713  0.00  0.00    +0.000 C 
ATOM     13  C   UNL     1       5.515   5.753  17.788  0.00  0.00    +0.000 C 
ENDBRANCH   6   8
BRANCH   7  14
ATOM     14  O   UNL     1       5.102   2.532  19.875  0.00  0.00    +0.000 OA
ATOM     15  H   UNL     1       5.749   2.883  19.241  0.00  0.00    +0.000 HD
ENDBRANCH   7  14
TORSDOF 2
ENDMDL
MODEL 5
REMARK VINA RESULT:      -6.6      1.702      2.237
REMARK  Name = 
REMARK  2 active torsions:
REMARK  status: ('A' for Active; 'I' for Inactive)
REMARK    1  A    between atoms: C_6  and  C_7
REMARK    2  A    between atoms: N_13  and  O_14
REMARK                            x       y       z     vdW  Elec       q    Type
REMARK                         _______ _______ _______ _____ _____    ______ ____
ROOT
ATOM      1  O   UNL     1       7.320   5.935  16.453  0.00  0.00    +0.000 OA
ATOM      2  C   UNL     1       6.211   5.922  16.969  0.00  0.00    +0.000 A 
ATOM      3  C   UNL     1       5.196   6.943  16.589  0.00  0.00    +0.000 A 
ATOM      4  C   UNL     1       4.033   6.981  17.252  0.00  0.00    +0.000 A 
ATOM      5  C   UNL     1       3.705   5.984  18.252  0.00  0.00    +0.000 A 
ATOM      6  C   UNL     1       4.531   4.946  18.510  0.00  0.00    +0.000 A 
ATOM      7  N   UNL     1       5.773   4.985  17.893  0.00  0.00    +0.000 N 
ENDROOT
BRANCH   6   8
ATOM      8  C   UNL     1       4.051   3.633  19.173  0.00  0.00    +0.000 C 
ATOM      9  C   UNL     1       2.956   3.639  20.270  0.00  0.00    +0.000 C 
ATOM     10  C   UNL     1       1.518   3.585  19.770  0.00  0.00    +0.000 C 
ATOM     11  C   UNL     1       1.303   2.479  18.747  0.00  0.00    +0.000 C 
ATOM     12  C   UNL     1       2.321   2.574  17.619  0.00  0.00    +0.000 C 
ATOM     13  C   UNL     1       3.737   2.481  18.185  0.00  0.00    +0.000 C 
ENDBRANCH   6   8
BRANCH   7  14
ATOM     14  O   UNL     1       6.753   4.100  18.379  0.00  0.00    +0.000 OA
ATOM     15  H   UNL     1       6.884   4.420  19.288  0.00  0.00    +0.000 HD
ENDBRANCH   7  14
TORSDOF 2
ENDMDL
MODEL 6
REMARK VINA RESULT:      -6.6      1.768      1.911
REMARK  Name = 
REMARK  2 active torsions:
REMARK  status: ('A' for Active; 'I' for Inactive)
REMARK    1  A    between atoms: C_6  and  C_7
REMARK    2  A    between atoms: N_13  and  O_14
REMARK                            x       y       z     vdW  Elec       q    Type
REMARK                         _______ _______ _______ _____ _____    ______ ____
ROOT
ATOM      1  O   UNL     1       7.764   7.620  16.741  0.00  0.00    +0.000 OA
ATOM      2  C   UNL     1       7.115   6.841  17.425  0.00  0.00    +0.000 A 
ATOM      3  C   UNL     1       7.678   6.317  18.700  0.00  0.00    +0.000 A 
ATOM      4  C   UNL     1       7.000   5.376  19.370  0.00  0.00    +0.000 A 
ATOM      5  C   UNL     1       5.687   4.941  18.935  0.00  0.00    +0.000 A 
ATOM      6  C   UNL     1       5.072   5.509  17.875  0.00  0.00    +0.000 A 
ATOM      7  N   UNL     1       5.833   6.402  17.133  0.00  0.00    +0.000 N 
ENDROOT
BRANCH   6   8
ATOM      8  C   UNL     1       3.541   5.450  17.658  0.00  0.00    +0.000 C 
ATOM      9  C   UNL     1       2.780   4.100  17.668  0.00  0.00    +0.000 C 
ATOM     10  C   UNL     1       2.325   3.605  19.036  0.00  0.00    +0.000 C 
ATOM     11  C   UNL     1       1.598   4.683  19.827  0.00  0.00    +0.000 C 
ATOM     12  C   UNL     1       2.427   5.958  19.902  0.00  0.00    +0.000 C 
ATOM     13  C   UNL     1       2.725   6.470  18.493  0.00  0.00    +0.000 C 
ENDBRANCH   6   8
BRANCH   7  14
ATOM     14  O   UNL     1       5.335   6.763  15.867  0.00  0.00    +0.000 OA
ATOM     15  H   UNL     1       4.883   7.603  16.058  0.00  0.00    +0.000 HD
ENDBRANCH   7  14
TORSDOF 2
ENDMDL
MODEL 7
REMARK VINA RESULT:      -6.5      2.736      5.157
REMARK  Name = 
REMARK  2 active torsions:
REMARK  status: ('A' for Active; 'I' for Inactive)
REMARK    1  A    between atoms: C_6  and  C_7
REMARK    2  A    between atoms: N_13  and  O_14
REMARK                            x       y       z     vdW  Elec       q    Type
REMARK                         _______ _______ _______ _____ _____    ______ ____
ROOT
ATOM      1  O   UNL     1       0.685   3.845  20.214  0.00  0.00    +0.000 OA
ATOM      2  C   UNL     1       1.627   3.654  19.457  0.00  0.00    +0.000 A 
ATOM      3  C   UNL     1       1.566   2.563  18.447  0.00  0.00    +0.000 A 
ATOM      4  C   UNL     1       2.653   2.297  17.711  0.00  0.00    +0.000 A 
ATOM      5  C   UNL     1       3.844   3.119  17.806  0.00  0.00    +0.000 A 
ATOM      6  C   UNL     1       3.882   4.217  18.593  0.00  0.00    +0.000 A 
ATOM      7  N   UNL     1       2.788   4.411  19.424  0.00  0.00    +0.000 N 
ENDROOT
BRANCH   6   8
ATOM      8  C   UNL     1       4.892   5.369  18.382  0.00  0.00    +0.000 C 
ATOM      9  C   UNL     1       6.414   5.151  18.578  0.00  0.00    +0.000 C 
ATOM     10  C   UNL     1       7.172   4.635  17.360  0.00  0.00    +0.000 C 
ATOM     11  C   UNL     1       6.862   5.438  16.105  0.00  0.00    +0.000 C 
ATOM     12  C   UNL     1       5.360   5.531  15.874  0.00  0.00    +0.000 C 
ATOM     13  C   UNL     1       4.687   6.186  17.080  0.00  0.00    +0.000 C 
ENDBRANCH   6   8
BRANCH   7  14
ATOM     14  O   UNL     1       2.936   5.352  20.461  0.00  0.00    +0.000 OA
ATOM     15  H   UNL     1       2.024   5.443  20.785  0.00  0.00    +0.000 HD
ENDBRANCH   7  14
TORSDOF 2
ENDMDL
MODEL 8
REMARK VINA RESULT:      -6.5      0.965      1.228
REMARK  Name = 
REMARK  2 active torsions:
REMARK  status: ('A' for Active; 'I' for Inactive)
REMARK    1  A    between atoms: C_6  and  C_7
REMARK    2  A    between atoms: N_13  and  O_14
REMARK                            x       y       z     vdW  Elec       q    Type
REMARK                         _______ _______ _______ _____ _____    ______ ____
ROOT
ATOM      1  O   UNL     1       7.632   5.181  15.258  0.00  0.00    +0.000 OA
ATOM      2  C   UNL     1       7.069   5.170  16.345  0.00  0.00    +0.000 A 
ATOM      3  C   UNL     1       7.369   6.224  17.353  0.00  0.00    +0.000 A 
ATOM      4  C   UNL     1       6.832   6.124  18.576  0.00  0.00    +0.000 A 
ATOM      5  C   UNL     1       5.886   5.073  18.898  0.00  0.00    +0.000 A 
ATOM      6  C   UNL     1       5.464   4.194  17.963  0.00  0.00    +0.000 A 
ATOM      7  N   UNL     1       6.112   4.248  16.737  0.00  0.00    +0.000 N 
ENDROOT
BRANCH   6   8
ATOM      8  C   UNL     1       4.148   3.392  18.094  0.00  0.00    +0.000 C 
ATOM      9  C   UNL     1       3.669   2.849  19.465  0.00  0.00    +0.000 C 
ATOM     10  C   UNL     1       2.841   3.813  20.307  0.00  0.00    +0.000 C 
ATOM     11  C   UNL     1       1.709   4.448  19.511  0.00  0.00    +0.000 C 
ATOM     12  C   UNL     1       2.231   5.078  18.228  0.00  0.00    +0.000 C 
ATOM     13  C   UNL     1       2.928   4.020  17.373  0.00  0.00    +0.000 C 
ENDBRANCH   6   8
BRANCH   7  14
ATOM     14  O   UNL     1       5.916   3.159  15.866  0.00  0.00    +0.000 OA
ATOM     15  H   UNL     1       5.189   2.681  16.299  0.00  0.00    +0.000 HD
ENDBRANCH   7  14
TORSDOF 2
ENDMDL
MODEL 9
REMARK VINA RESULT:      -6.3      2.462      4.952
REMARK  Name = 
REMARK  2 active torsions:
REMARK  status: ('A' for Active; 'I' for Inactive)
REMARK    1  A    between atoms: C_6  and  C_7
REMARK    2  A    between atoms: N_13  and  O_14
REMARK                            x       y       z     vdW  Elec       q    Type
REMARK                         _______ _______ _______ _____ _____    ______ ____
ROOT
ATOM      1  O   UNL     1       0.215   2.416  18.866  0.00  0.00    +0.000 OA
ATOM      2  C   UNL     1       1.115   3.200  19.137  0.00  0.00    +0.000 A 
ATOM      3  C   UNL     1       1.175   3.834  20.483  0.00  0.00    +0.000 A 
ATOM      4  C   UNL     1       2.098   4.775  20.716  0.00  0.00    +0.000 A 
ATOM      5  C   UNL     1       3.101   5.108  19.722  0.00  0.00    +0.000 A 
ATOM      6  C   UNL     1       3.179   4.441  18.550  0.00  0.00    +0.000 A 
ATOM      7  N   UNL     1       2.152   3.547  18.285  0.00  0.00    +0.000 N 
ENDROOT
BRANCH   6   8
ATOM      8  C   UNL     1       4.464   4.401  17.688  0.00  0.00    +0.000 C 
ATOM      9  C   UNL     1       4.723   5.455  16.582  0.00  0.00    +0.000 C 
ATOM     10  C   UNL     1       5.402   6.741  17.038  0.00  0.00    +0.000 C 
ATOM     11  C   UNL     1       6.642   6.472  17.879  0.00  0.00    +0.000 C 
ATOM     12  C   UNL     1       6.325   5.528  19.030  0.00  0.00    +0.000 C 
ATOM     13  C   UNL     1       5.779   4.208  18.487  0.00  0.00    +0.000 C 
ENDBRANCH   6   8
BRANCH   7  14
ATOM     14  O   UNL     1       2.040   3.080  16.962  0.00  0.00    +0.000 OA
ATOM     15  H   UNL     1       2.045   3.908  16.452  0.00  0.00    +0.000 HD
ENDBRANCH   7  14
TORSDOF 2
ENDMDL
