MODEL 1
REMARK VINA RESULT:      -6.3      0.000      0.000
REMARK  Name = 
REMARK  8 active torsions:
REMARK  status: ('A' for Active; 'I' for Inactive)
REMARK    1  A    between atoms: C_1  and  C_2
REMARK    2  A    between atoms: C_2  and  N_3
REMARK    3  A    between atoms: C_7  and  C_8
REMARK    4  A    between atoms: C_8  and  N_9
REMARK    5  A    between atoms: N_9  and  C_10
REMARK    6  A    between atoms: N_9  and  C_11
REMARK    7  A    between atoms: C_11  and  C_12
REMARK    8  A    between atoms: C_16  and  C_17
REMARK                            x       y       z     vdW  Elec       q    Type
REMARK                         _______ _______ _______ _____ _____    ______ ____
ROOT
ATOM      1  N   UNL     1       3.456   2.868  17.565  0.00  0.00    +0.000 NA
ATOM      2  C   UNL     1       3.389   1.712  18.466  0.00  0.00    +0.000 C 
ENDROOT
BRANCH   1   3
ATOM      3  C   UNL     1       4.650   3.698  17.838  0.00  0.00    +0.000 C 
BRANCH   3   8
ATOM      4  N   UNL     1       6.769   4.580  16.719  0.00  0.00    +0.000 N 
ATOM      5  C   UNL     1       7.152   4.923  15.451  0.00  0.00    +0.000 A 
ATOM      6  C   UNL     1       6.054   4.696  14.663  0.00  0.00    +0.000 A 
ATOM      7  N   UNL     1       5.017   4.225  15.413  0.00  0.00    +0.000 NA
ATOM      8  C   UNL     1       5.464   4.134  16.657  0.00  0.00    +0.000 A 
BRANCH   4  10
ATOM      9  C   UNL     1       7.641   6.072  18.490  0.00  0.00    +0.000 C 
ATOM     10  C   UNL     1       7.631   4.681  17.881  0.00  0.00    +0.000 C 
ENDBRANCH   4  10
ENDBRANCH   3   8
ENDBRANCH   1   3
BRANCH   1  11
ATOM     11  C   UNL     1       2.189   3.607  17.606  0.00  0.00    +0.000 C 
BRANCH  11  12
ATOM     12  C   UNL     1       2.099   4.671  18.680  0.00  0.00    +0.000 A 
ATOM     13  S   UNL     1       2.648   6.252  18.252  0.00  0.00    +0.000 S 
ATOM     14  C   UNL     1       2.294   6.875  19.793  0.00  0.00    +0.000 A 
ATOM     15  C   UNL     1       1.798   5.910  20.635  0.00  0.00    +0.000 A 
ATOM     16  C   UNL     1       1.694   4.619  20.013  0.00  0.00    +0.000 A 
ATOM     17  C   UNL     1       1.213   3.411  20.757  0.00  0.00    +0.000 C 
ENDBRANCH  11  12
ENDBRANCH   1  11
TORSDOF 5
ENDMDL
MODEL 2
REMARK VINA RESULT:      -6.1      1.928      3.302
REMARK  Name = 
REMARK  8 active torsions:
REMARK  status: ('A' for Active; 'I' for Inactive)
REMARK    1  A    between atoms: C_1  and  C_2
REMARK    2  A    between atoms: C_2  and  N_3
REMARK    3  A    between atoms: C_7  and  C_8
REMARK    4  A    between atoms: C_8  and  N_9
REMARK    5  A    between atoms: N_9  and  C_10
REMARK    6  A    between atoms: N_9  and  C_11
REMARK    7  A    between atoms: C_11  and  C_12
REMARK    8  A    between atoms: C_16  and  C_17
REMARK                            x       y       z     vdW  Elec       q    Type
REMARK                         _______ _______ _______ _____ _____    ______ ____
ROOT
ATOM      1  N   UNL     1       3.480   6.469  18.229  0.00  0.00    +0.000 NA
ATOM      2  C   UNL     1       2.397   7.457  18.228  0.00  0.00    +0.000 C 
ENDROOT
BRANCH   1   3
ATOM      3  C   UNL     1       4.589   6.882  17.340  0.00  0.00    +0.000 C 
BRANCH   3   8
ATOM      4  N   UNL     1       6.174   5.161  16.317  0.00  0.00    +0.000 N 
ATOM      5  C   UNL     1       7.326   4.526  16.694  0.00  0.00    +0.000 A 
ATOM      6  C   UNL     1       7.616   5.005  17.945  0.00  0.00    +0.000 A 
ATOM      7  N   UNL     1       6.677   5.913  18.337  0.00  0.00    +0.000 NA
ATOM      8  C   UNL     1       5.818   6.022  17.335  0.00  0.00    +0.000 A 
BRANCH   4  10
ATOM      9  C   UNL     1       6.232   3.944  14.163  0.00  0.00    +0.000 C 
ATOM     10  C   UNL     1       5.501   4.935  15.052  0.00  0.00    +0.000 C 
ENDBRANCH   4  10
ENDBRANCH   3   8
ENDBRANCH   1   3
BRANCH   1  11
ATOM     11  C   UNL     1       2.940   5.136  17.936  0.00  0.00    +0.000 C 
BRANCH  11  12
ATOM     12  C   UNL     1       3.054   4.133  19.066  0.00  0.00    +0.000 A 
ATOM     13  S   UNL     1       4.414   3.070  19.023  0.00  0.00    +0.000 S 
ATOM     14  C   UNL     1       3.943   2.287  20.456  0.00  0.00    +0.000 A 
ATOM     15  C   UNL     1       2.765   2.790  20.952  0.00  0.00    +0.000 A 
ATOM     16  C   UNL     1       2.223   3.851  20.149  0.00  0.00    +0.000 A 
ATOM     17  C   UNL     1       0.926   4.521  20.482  0.00  0.00    +0.000 C 
ENDBRANCH  11  12
ENDBRANCH   1  11
TORSDOF 5
ENDMDL
MODEL 3
REMARK VINA RESULT:      -6.1      1.962      5.465
REMARK  Name = 
REMARK  8 active torsions:
REMARK  status: ('A' for Active; 'I' for Inactive)
REMARK    1  A    between atoms: C_1  and  C_2
REMARK    2  A    between atoms: C_2  and  N_3
REMARK    3  A    between atoms: C_7  and  C_8
REMARK    4  A    between atoms: C_8  and  N_9
REMARK    5  A    between atoms: N_9  and  C_10
REMARK    6  A    between atoms: N_9  and  C_11
REMARK    7  A    between atoms: C_11  and  C_12
REMARK    8  A    between atoms: C_16  and  C_17
REMARK                            x       y       z     vdW  Elec       q    Type
REMARK                         _______ _______ _______ _____ _____    ______ ____
ROOT
ATOM      1  N   UNL     1       3.441   6.486  17.816  0.00  0.00    +0.000 NA
ATOM      2  C   UNL     1       2.540   7.576  18.207  0.00  0.00    +0.000 C 
ENDROOT
BRANCH   1   3
ATOM      3  C   UNL     1       3.575   5.483  18.895  0.00  0.00    +0.000 C 
BRANCH   3   8
ATOM      4  N   UNL     1       2.177   3.413  19.430  0.00  0.00    +0.000 N 
ATOM      5  C   UNL     1       1.968   2.185  18.865  0.00  0.00    +0.000 A 
ATOM      6  C   UNL     1       2.745   2.163  17.737  0.00  0.00    +0.000 A 
ATOM      7  N   UNL     1       3.418   3.341  17.598  0.00  0.00    +0.000 NA
ATOM      8  C   UNL     1       3.051   4.105  18.616  0.00  0.00    +0.000 A 
BRANCH   4  10
ATOM      9  C   UNL     1       1.407   2.741  21.684  0.00  0.00    +0.000 C 
ATOM     10  C   UNL     1       1.554   3.856  20.663  0.00  0.00    +0.000 C 
ENDBRANCH   4  10
ENDBRANCH   3   8
ENDBRANCH   1   3
BRANCH   1  11
ATOM     11  C   UNL     1       4.717   7.038  17.347  0.00  0.00    +0.000 C 
BRANCH  11  12
ATOM     12  C   UNL     1       5.752   6.009  16.938  0.00  0.00    +0.000 A 
ATOM     13  S   UNL     1       5.561   5.298  15.376  0.00  0.00    +0.000 S 
ATOM     14  C   UNL     1       6.941   4.324  15.567  0.00  0.00    +0.000 A 
ATOM     15  C   UNL     1       7.527   4.501  16.797  0.00  0.00    +0.000 A 
ATOM     16  C   UNL     1       6.841   5.463  17.615  0.00  0.00    +0.000 A 
ATOM     17  C   UNL     1       7.285   5.786  19.008  0.00  0.00    +0.000 C 
ENDBRANCH  11  12
ENDBRANCH   1  11
TORSDOF 5
ENDMDL
MODEL 4
REMARK VINA RESULT:      -6.1      2.026      5.638
REMARK  Name = 
REMARK  8 active torsions:
REMARK  status: ('A' for Active; 'I' for Inactive)
REMARK    1  A    between atoms: C_1  and  C_2
REMARK    2  A    between atoms: C_2  and  N_3
REMARK    3  A    between atoms: C_7  and  C_8
REMARK    4  A    between atoms: C_8  and  N_9
REMARK    5  A    between atoms: N_9  and  C_10
REMARK    6  A    between atoms: N_9  and  C_11
REMARK    7  A    between atoms: C_11  and  C_12
REMARK    8  A    between atoms: C_16  and  C_17
REMARK                            x       y       z     vdW  Elec       q    Type
REMARK                         _______ _______ _______ _____ _____    ______ ____
ROOT
ATOM      1  N   UNL     1       3.075   6.095  17.983  0.00  0.00    +0.000 NA
ATOM      2  C   UNL     1       2.707   7.429  18.468  0.00  0.00    +0.000 C 
ENDROOT
BRANCH   1   3
ATOM      3  C   UNL     1       1.916   5.175  18.000  0.00  0.00    +0.000 C 
BRANCH   3   8
ATOM      4  N   UNL     1       1.998   2.909  19.175  0.00  0.00    +0.000 N 
ATOM      5  C   UNL     1       1.734   2.432  20.430  0.00  0.00    +0.000 A 
ATOM      6  C   UNL     1       1.337   3.522  21.160  0.00  0.00    +0.000 A 
ATOM      7  N   UNL     1       1.354   4.646  20.387  0.00  0.00    +0.000 NA
ATOM      8  C   UNL     1       1.779   4.271  19.190  0.00  0.00    +0.000 A 
BRANCH   4  10
ATOM      9  C   UNL     1       3.760   1.384  18.342  0.00  0.00    +0.000 C 
ATOM     10  C   UNL     1       2.438   2.080  18.069  0.00  0.00    +0.000 C 
ENDBRANCH   4  10
ENDBRANCH   3   8
ENDBRANCH   1   3
BRANCH   1  11
ATOM     11  C   UNL     1       4.245   5.602  18.718  0.00  0.00    +0.000 C 
BRANCH  11  12
ATOM     12  C   UNL     1       5.410   5.164  17.854  0.00  0.00    +0.000 A 
ATOM     13  S   UNL     1       5.019   4.409  16.351  0.00  0.00    +0.000 S 
ATOM     14  C   UNL     1       6.656   4.195  15.946  0.00  0.00    +0.000 A 
ATOM     15  C   UNL     1       7.493   4.653  16.934  0.00  0.00    +0.000 A 
ATOM     16  C   UNL     1       6.789   5.204  18.059  0.00  0.00    +0.000 A 
ATOM     17  C   UNL     1       7.501   5.728  19.267  0.00  0.00    +0.000 C 
ENDBRANCH  11  12
ENDBRANCH   1  11
TORSDOF 5
ENDMDL
MODEL 5
REMARK VINA RESULT:      -6.1      1.831      2.835
REMARK  Name = 
REMARK  8 active torsions:
REMARK  status: ('A' for Active; 'I' for Inactive)
REMARK    1  A    between atoms: C_1  and  C_2
REMARK    2  A    between atoms: C_2  and  N_3
REMARK    3  A    between atoms: C_7  and  C_8
REMARK    4  A    between atoms: C_8  and  N_9
REMARK    5  A    between atoms: N_9  and  C_10
REMARK    6  A    between atoms: N_9  and  C_11
REMARK    7  A    between atoms: C_11  and  C_12
REMARK    8  A    between atoms: C_16  and  C_17
REMARK                            x       y       z     vdW  Elec       q    Type
REMARK                         _______ _______ _______ _____ _____    ______ ____
ROOT
ATOM      1  N   UNL     1       3.239   6.464  18.369  0.00  0.00    +0.000 NA
ATOM      2  C   UNL     1       2.392   7.488  18.989  0.00  0.00    +0.000 C 
ENDROOT
BRANCH   1   3
ATOM      3  C   UNL     1       4.208   7.064  17.424  0.00  0.00    +0.000 C 
BRANCH   3   8
ATOM      4  N   UNL     1       6.175   5.435  17.447  0.00  0.00    +0.000 N 
ATOM      5  C   UNL     1       6.896   4.738  16.516  0.00  0.00    +0.000 A 
ATOM      6  C   UNL     1       6.342   5.062  15.306  0.00  0.00    +0.000 A 
ATOM      7  N   UNL     1       5.306   5.933  15.473  0.00  0.00    +0.000 NA
ATOM      8  C   UNL     1       5.194   6.138  16.777  0.00  0.00    +0.000 A 
BRANCH   4  10
ATOM      9  C   UNL     1       7.802   5.953  19.239  0.00  0.00    +0.000 C 
ATOM     10  C   UNL     1       6.437   5.394  18.873  0.00  0.00    +0.000 C 
ENDBRANCH   4  10
ENDBRANCH   3   8
ENDBRANCH   1   3
BRANCH   1  11
ATOM     11  C   UNL     1       2.402   5.412  17.782  0.00  0.00    +0.000 C 
BRANCH  11  12
ATOM     12  C   UNL     1       2.533   4.049  18.432  0.00  0.00    +0.000 A 
ATOM     13  S   UNL     1       3.513   2.890  17.608  0.00  0.00    +0.000 S 
ATOM     14  C   UNL     1       3.233   1.701  18.790  0.00  0.00    +0.000 A 
ATOM     15  C   UNL     1       2.391   2.149  19.779  0.00  0.00    +0.000 A 
ATOM     16  C   UNL     1       1.960   3.505  19.580  0.00  0.00    +0.000 A 
ATOM     17  C   UNL     1       1.009   4.185  20.516  0.00  0.00    +0.000 C 
ENDBRANCH  11  12
ENDBRANCH   1  11
TORSDOF 5
ENDMDL
MODEL 6
REMARK VINA RESULT:      -6.0      1.666      2.526
REMARK  Name = 
REMARK  8 active torsions:
REMARK  status: ('A' for Active; 'I' for Inactive)
REMARK    1  A    between atoms: C_1  and  C_2
REMARK    2  A    between atoms: C_2  and  N_3
REMARK    3  A    between atoms: C_7  and  C_8
REMARK    4  A    between atoms: C_8  and  N_9
REMARK    5  A    between atoms: N_9  and  C_10
REMARK    6  A    between atoms: N_9  and  C_11
REMARK    7  A    between atoms: C_11  and  C_12
REMARK    8  A    between atoms: C_16  and  C_17
REMARK                            x       y       z     vdW  Elec       q    Type
REMARK                         _______ _______ _______ _____ _____    ______ ____
ROOT
ATOM      1  N   UNL     1       4.026   5.942  18.855  0.00  0.00    +0.000 NA
ATOM      2  C   UNL     1       2.736   6.438  19.347  0.00  0.00    +0.000 C 
ENDROOT
BRANCH   1   3
ATOM      3  C   UNL     1       4.199   6.224  17.413  0.00  0.00    +0.000 C 
BRANCH   3   8
ATOM      4  N   UNL     1       6.601   5.637  16.776  0.00  0.00    +0.000 N 
ATOM      5  C   UNL     1       7.216   4.750  15.935  0.00  0.00    +0.000 A 
ATOM      6  C   UNL     1       6.201   4.049  15.337  0.00  0.00    +0.000 A 
ATOM      7  N   UNL     1       4.990   4.482  15.791  0.00  0.00    +0.000 NA
ATOM      8  C   UNL     1       5.240   5.430  16.682  0.00  0.00    +0.000 A 
BRANCH   4  10
ATOM      9  C   UNL     1       7.785   6.001  18.918  0.00  0.00    +0.000 C 
ATOM     10  C   UNL     1       7.311   6.595  17.603  0.00  0.00    +0.000 C 
ENDBRANCH   4  10
ENDBRANCH   3   8
ENDBRANCH   1   3
BRANCH   1  11
ATOM     11  C   UNL     1       4.186   4.528  19.214  0.00  0.00    +0.000 C 
BRANCH  11  12
ATOM     12  C   UNL     1       2.898   3.733  19.290  0.00  0.00    +0.000 A 
ATOM     13  S   UNL     1       2.235   3.189  17.791  0.00  0.00    +0.000 S 
ATOM     14  C   UNL     1       0.916   2.442  18.558  0.00  0.00    +0.000 A 
ATOM     15  C   UNL     1       0.947   2.619  19.920  0.00  0.00    +0.000 A 
ATOM     16  C   UNL     1       2.081   3.382  20.363  0.00  0.00    +0.000 A 
ATOM     17  C   UNL     1       2.297   3.728  21.804  0.00  0.00    +0.000 C 
ENDBRANCH  11  12
ENDBRANCH   1  11
TORSDOF 5
ENDMDL
MODEL 7
REMARK VINA RESULT:      -6.0      1.802      3.285
REMARK  Name = 
REMARK  8 active torsions:
REMARK  status: ('A' for Active; 'I' for Inactive)
REMARK    1  A    between atoms: C_1  and  C_2
REMARK    2  A    between atoms: C_2  and  N_3
REMARK    3  A    between atoms: C_7  and  C_8
REMARK    4  A    between atoms: C_8  and  N_9
REMARK    5  A    between atoms: N_9  and  C_10
REMARK    6  A    between atoms: N_9  and  C_11
REMARK    7  A    between atoms: C_11  and  C_12
REMARK    8  A    between atoms: C_16  and  C_17
REMARK                            x       y       z     vdW  Elec       q    Type
REMARK                         _______ _______ _______ _____ _____    ______ ____
ROOT
ATOM      1  N   UNL     1       3.371   6.167  18.248  0.00  0.00    +0.000 NA
ATOM      2  C   UNL     1       2.494   7.340  18.325  0.00  0.00    +0.000 C 
ENDROOT
BRANCH   1   3
ATOM      3  C   UNL     1       4.406   6.333  17.204  0.00  0.00    +0.000 C 
BRANCH   3   8
ATOM      4  N   UNL     1       6.338   4.698  16.866  0.00  0.00    +0.000 N 
ATOM      5  C   UNL     1       7.562   4.478  17.435  0.00  0.00    +0.000 A 
ATOM      6  C   UNL     1       7.685   5.426  18.417  0.00  0.00    +0.000 A 
ATOM      7  N   UNL     1       6.574   6.216  18.460  0.00  0.00    +0.000 NA
ATOM      8  C   UNL     1       5.770   5.784  17.500  0.00  0.00    +0.000 A 
BRANCH   4  10
ATOM      9  C   UNL     1       6.170   4.435  14.411  0.00  0.00    +0.000 C 
ATOM     10  C   UNL     1       5.793   3.902  15.782  0.00  0.00    +0.000 C 
ENDBRANCH   4  10
ENDBRANCH   3   8
ENDBRANCH   1   3
BRANCH   1  11
ATOM     11  C   UNL     1       2.563   4.950  18.105  0.00  0.00    +0.000 C 
BRANCH  11  12
ATOM     12  C   UNL     1       2.442   4.107  19.359  0.00  0.00    +0.000 A 
ATOM     13  S   UNL     1       0.988   4.286  20.273  0.00  0.00    +0.000 S 
ATOM     14  C   UNL     1       1.491   3.153  21.437  0.00  0.00    +0.000 A 
ATOM     15  C   UNL     1       2.746   2.664  21.167  0.00  0.00    +0.000 A 
ATOM     16  C   UNL     1       3.322   3.219  19.974  0.00  0.00    +0.000 A 
ATOM     17  C   UNL     1       4.699   2.855  19.509  0.00  0.00    +0.000 C 
ENDBRANCH  11  12
ENDBRANCH   1  11
TORSDOF 5
ENDMDL
MODEL 8
REMARK VINA RESULT:      -6.0      1.683      2.653
REMARK  Name = 
REMARK  8 active torsions:
REMARK  status: ('A' for Active; 'I' for Inactive)
REMARK    1  A    between atoms: C_1  and  C_2
REMARK    2  A    between atoms: C_2  and  N_3
REMARK    3  A    between atoms: C_7  and  C_8
REMARK    4  A    between atoms: C_8  and  N_9
REMARK    5  A    between atoms: N_9  and  C_10
REMARK    6  A    between atoms: N_9  and  C_11
REMARK    7  A    between atoms: C_11  and  C_12
REMARK    8  A    between atoms: C_16  and  C_17
REMARK                            x       y       z     vdW  Elec       q    Type
REMARK                         _______ _______ _______ _____ _____    ______ ____
ROOT
ATOM      1  N   UNL     1       3.460   6.256  18.439  0.00  0.00    +0.000 NA
ATOM      2  C   UNL     1       3.613   7.344  17.467  0.00  0.00    +0.000 C 
ENDROOT
BRANCH   1   3
ATOM      3  C   UNL     1       4.735   5.535  18.648  0.00  0.00    +0.000 C 
BRANCH   3   8
ATOM      4  N   UNL     1       6.591   5.736  16.905  0.00  0.00    +0.000 N 
ATOM      5  C   UNL     1       6.959   5.071  15.768  0.00  0.00    +0.000 A 
ATOM      6  C   UNL     1       6.042   4.064  15.618  0.00  0.00    +0.000 A 
ATOM      7  N   UNL     1       5.129   4.096  16.631  0.00  0.00    +0.000 NA
ATOM      8  C   UNL     1       5.481   5.098  17.422  0.00  0.00    +0.000 A 
BRANCH   4  10
ATOM      9  C   UNL     1       8.074   6.587  18.694  0.00  0.00    +0.000 C 
ATOM     10  C   UNL     1       7.290   6.894  17.430  0.00  0.00    +0.000 C 
ENDBRANCH   4  10
ENDBRANCH   3   8
ENDBRANCH   1   3
BRANCH   1  11
ATOM     11  C   UNL     1       2.339   5.394  18.050  0.00  0.00    +0.000 C 
BRANCH  11  12
ATOM     12  C   UNL     1       2.001   4.293  19.037  0.00  0.00    +0.000 A 
ATOM     13  S   UNL     1       1.562   4.791  20.631  0.00  0.00    +0.000 S 
ATOM     14  C   UNL     1       1.341   3.189  21.152  0.00  0.00    +0.000 A 
ATOM     15  C   UNL     1       1.621   2.283  20.158  0.00  0.00    +0.000 A 
ATOM     16  C   UNL     1       2.023   2.904  18.927  0.00  0.00    +0.000 A 
ATOM     17  C   UNL     1       2.411   2.106  17.720  0.00  0.00    +0.000 C 
ENDBRANCH  11  12
ENDBRANCH   1  11
TORSDOF 5
ENDMDL
MODEL 9
REMARK VINA RESULT:      -6.0      1.787      2.715
REMARK  Name = 
REMARK  8 active torsions:
REMARK  status: ('A' for Active; 'I' for Inactive)
REMARK    1  A    between atoms: C_1  and  C_2
REMARK    2  A    between atoms: C_2  and  N_3
REMARK    3  A    between atoms: C_7  and  C_8
REMARK    4  A    between atoms: C_8  and  N_9
REMARK    5  A    between atoms: N_9  and  C_10
REMARK    6  A    between atoms: N_9  and  C_11
REMARK    7  A    between atoms: C_11  and  C_12
REMARK    8  A    between atoms: C_16  and  C_17
REMARK                            x       y       z     vdW  Elec       q    Type
REMARK                         _______ _______ _______ _____ _____    ______ ____
ROOT
ATOM      1  N   UNL     1       3.575   6.253  18.525  0.00  0.00    +0.000 NA
ATOM      2  C   UNL     1       2.211   5.958  18.072  0.00  0.00    +0.000 C 
ENDROOT
BRANCH   1   3
ATOM      3  C   UNL     1       4.436   6.682  17.401  0.00  0.00    +0.000 C 
BRANCH   3   8
ATOM      4  N   UNL     1       6.719   5.594  17.045  0.00  0.00    +0.000 N 
ATOM      5  C   UNL     1       7.217   4.554  16.310  0.00  0.00    +0.000 A 
ATOM      6  C   UNL     1       6.143   4.032  15.638  0.00  0.00    +0.000 A 
ATOM      7  N   UNL     1       5.008   4.723  15.943  0.00  0.00    +0.000 NA
ATOM      8  C   UNL     1       5.359   5.655  16.816  0.00  0.00    +0.000 A 
BRANCH   4  10
ATOM      9  C   UNL     1       7.855   5.790  19.235  0.00  0.00    +0.000 C 
ATOM     10  C   UNL     1       7.526   6.441  17.903  0.00  0.00    +0.000 C 
ENDBRANCH   4  10
ENDBRANCH   3   8
ENDBRANCH   1   3
BRANCH   1  11
ATOM     11  C   UNL     1       4.104   5.116  19.287  0.00  0.00    +0.000 C 
BRANCH  11  12
ATOM     12  C   UNL     1       3.076   4.078  19.691  0.00  0.00    +0.000 A 
ATOM     13  S   UNL     1       2.202   4.381  21.149  0.00  0.00    +0.000 S 
ATOM     14  C   UNL     1       1.310   2.941  21.003  0.00  0.00    +0.000 A 
ATOM     15  C   UNL     1       1.679   2.220  19.893  0.00  0.00    +0.000 A 
ATOM     16  C   UNL     1       2.716   2.855  19.127  0.00  0.00    +0.000 A 
ATOM     17  C   UNL     1       3.297   2.229  17.898  0.00  0.00    +0.000 C 
ENDBRANCH  11  12
ENDBRANCH   1  11
TORSDOF 5
ENDMDL
