MODEL 1
REMARK VINA RESULT:      -9.3      0.000      0.000
REMARK  Name = 
REMARK  5 active torsions:
REMARK  status: ('A' for Active; 'I' for Inactive)
REMARK    1  A    between atoms: N_1  and  C_2
REMARK    2  A    between atoms: C_4  and  N_5
REMARK    3  A    between atoms: C_8  and  C_9
REMARK    4  A    between atoms: C_17  and  C_18
REMARK    5  A    between atoms: N_22  and  C_23
REMARK                            x       y       z     vdW  Elec       q    Type
REMARK                         _______ _______ _______ _____ _____    ______ ____
ROOT
ATOM      1  C   UNL     1       2.523   3.057  20.960  0.00  0.00    +0.000 A 
ATOM      2  C   UNL     1       3.398   2.686  19.930  0.00  0.00    +0.000 A 
ATOM      3  C   UNL     1       3.649   3.580  18.896  0.00  0.00    +0.000 A 
ATOM      4  N   UNL     1       3.146   4.828  18.939  0.00  0.00    +0.000 NA
ATOM      5  C   UNL     1       2.385   5.236  19.975  0.00  0.00    +0.000 A 
ATOM      6  C   UNL     1       2.057   4.368  21.006  0.00  0.00    +0.000 A 
ENDROOT
BRANCH   3   7
ATOM      7  N   UNL     1       4.478   3.202  17.826  0.00  0.00    +0.000 N 
ATOM      8  C   UNL     1       5.413   4.005  17.153  0.00  0.00    +0.000 A 
ATOM      9  C   UNL     1       6.061   5.085  17.742  0.00  0.00    +0.000 A 
ATOM     10  C   UNL     1       6.856   5.947  16.980  0.00  0.00    +0.000 A 
ATOM     11  C   UNL     1       7.049   5.644  15.638  0.00  0.00    +0.000 A 
ATOM     12  C   UNL     1       6.440   4.507  15.133  0.00  0.00    +0.000 A 
ATOM     13  N   UNL     1       5.627   3.699  15.854  0.00  0.00    +0.000 NA
ATOM     14  H   UNL     1       4.057   2.586  17.148  0.00  0.00    +0.000 HD
BRANCH  10  15
ATOM     15  C   UNL     1       7.428   7.188  17.597  0.00  0.00    +0.000 C 
ATOM     16  F   UNL     1       8.335   7.837  16.810  0.00  0.00    +0.000 F 
ATOM     17  F   UNL     1       6.472   8.112  17.891  0.00  0.00    +0.000 F 
ATOM     18  F   UNL     1       8.075   6.938  18.772  0.00  0.00    +0.000 F 
ENDBRANCH  10  15
ENDBRANCH   3   7
BRANCH   5  19
ATOM     19  C   UNL     1       2.031   6.665  19.947  0.00  0.00    +0.000 A 
ATOM     20  C   UNL     1       1.627   7.334  21.109  0.00  0.00    +0.000 A 
ATOM     21  C   UNL     1       1.217   8.665  21.060  0.00  0.00    +0.000 A 
ATOM     22  C   UNL     1       1.170   9.316  19.836  0.00  0.00    +0.000 A 
ATOM     23  N   UNL     1       0.528  10.550  19.796  0.00  0.00    +0.000 N 
ATOM     24  N   UNL     1       1.596   8.720  18.705  0.00  0.00    +0.000 NA
ATOM     25  C   UNL     1       2.038   7.436  18.791  0.00  0.00    +0.000 A 
ATOM     26  H   UNL     1       0.934  11.237  20.427  0.00  0.00    +0.000 HD
BRANCH  23  27
ATOM     27  C   UNL     1       0.176  11.079  18.483  0.00  0.00    +0.000 C 
ATOM     28  C   UNL     1      -1.202  10.548  18.060  0.00  0.00    +0.000 C 
ATOM     29  C   UNL     1      -1.950  11.740  17.503  0.00  0.00    +0.000 C 
ATOM     30  N   UNL     1      -1.305  12.881  18.066  0.00  0.00    +0.000 N 
ATOM     31  C   UNL     1      -0.067  12.587  18.595  0.00  0.00    +0.000 C 
ATOM     32  O   UNL     1       0.691  13.410  19.084  0.00  0.00    +0.000 OA
ATOM     33  H   UNL     1      -1.636  13.837  18.024  0.00  0.00    +0.000 HD
ENDBRANCH  23  27
ENDBRANCH   5  19
BRANCH   1  34
ATOM     34  N   UNL     1       2.317   2.202  22.053  0.00  0.00    +0.000 N 
ATOM     35  H   UNL     1       1.463   1.653  21.997  0.00  0.00    +0.000 HD
ATOM     36  H   UNL     1       2.421   2.650  22.958  0.00  0.00    +0.000 HD
ENDBRANCH   1  34
TORSDOF 5
ENDMDL
MODEL 2
REMARK VINA RESULT:      -9.2      3.099      3.899
REMARK  Name = 
REMARK  5 active torsions:
REMARK  status: ('A' for Active; 'I' for Inactive)
REMARK    1  A    between atoms: N_1  and  C_2
REMARK    2  A    between atoms: C_4  and  N_5
REMARK    3  A    between atoms: C_8  and  C_9
REMARK    4  A    between atoms: C_17  and  C_18
REMARK    5  A    between atoms: N_22  and  C_23
REMARK                            x       y       z     vdW  Elec       q    Type
REMARK                         _______ _______ _______ _____ _____    ______ ____
ROOT
ATOM      1  C   UNL     1       4.314   3.831  18.109  0.00  0.00    +0.000 A 
ATOM      2  C   UNL     1       5.320   4.202  17.207  0.00  0.00    +0.000 A 
ATOM      3  C   UNL     1       5.321   5.488  16.681  0.00  0.00    +0.000 A 
ATOM      4  N   UNL     1       4.433   6.401  17.115  0.00  0.00    +0.000 NA
ATOM      5  C   UNL     1       3.521   6.091  18.060  0.00  0.00    +0.000 A 
ATOM      6  C   UNL     1       3.439   4.808  18.579  0.00  0.00    +0.000 A 
ENDROOT
BRANCH   3   7
ATOM      7  N   UNL     1       6.288   5.858  15.731  0.00  0.00    +0.000 N 
ATOM      8  C   UNL     1       6.488   5.295  14.460  0.00  0.00    +0.000 A 
ATOM      9  C   UNL     1       5.476   4.691  13.722  0.00  0.00    +0.000 A 
ATOM     10  C   UNL     1       5.764   4.004  12.539  0.00  0.00    +0.000 A 
ATOM     11  C   UNL     1       7.074   4.016  12.078  0.00  0.00    +0.000 A 
ATOM     12  C   UNL     1       8.019   4.707  12.819  0.00  0.00    +0.000 A 
ATOM     13  N   UNL     1       7.755   5.328  13.993  0.00  0.00    +0.000 NA
ATOM     14  H   UNL     1       7.194   6.101  16.105  0.00  0.00    +0.000 HD
BRANCH  10  15
ATOM     15  C   UNL     1       4.688   3.234  11.833  0.00  0.00    +0.000 C 
ATOM     16  F   UNL     1       4.200   3.851  10.718  0.00  0.00    +0.000 F 
ATOM     17  F   UNL     1       5.110   2.008  11.418  0.00  0.00    +0.000 F 
ATOM     18  F   UNL     1       3.603   3.003  12.628  0.00  0.00    +0.000 F 
ENDBRANCH  10  15
ENDBRANCH   3   7
BRANCH   5  19
ATOM     19  C   UNL     1       2.718   7.231  18.531  0.00  0.00    +0.000 A 
ATOM     20  C   UNL     1       2.215   7.272  19.837  0.00  0.00    +0.000 A 
ATOM     21  C   UNL     1       1.389   8.315  20.251  0.00  0.00    +0.000 A 
ATOM     22  C   UNL     1       1.030   9.298  19.342  0.00  0.00    +0.000 A 
ATOM     23  N   UNL     1       0.018  10.177  19.720  0.00  0.00    +0.000 N 
ATOM     24  N   UNL     1       1.531   9.318  18.091  0.00  0.00    +0.000 NA
ATOM     25  C   UNL     1       2.375   8.313  17.729  0.00  0.00    +0.000 A 
ATOM     26  H   UNL     1       0.227  10.691  20.571  0.00  0.00    +0.000 HD
BRANCH  23  27
ATOM     27  C   UNL     1      -0.597  10.981  18.670  0.00  0.00    +0.000 C 
ATOM     28  C   UNL     1      -1.904  10.322  18.205  0.00  0.00    +0.000 C 
ATOM     29  C   UNL     1      -2.919  11.441  18.108  0.00  0.00    +0.000 C 
ATOM     30  N   UNL     1      -2.414  12.475  18.953  0.00  0.00    +0.000 N 
ATOM     31  C   UNL     1      -1.085  12.303  19.269  0.00  0.00    +0.000 C 
ATOM     32  O   UNL     1      -0.424  13.086  19.934  0.00  0.00    +0.000 OA
ATOM     33  H   UNL     1      -2.911  13.309  19.238  0.00  0.00    +0.000 HD
ENDBRANCH  23  27
ENDBRANCH   5  19
BRANCH   1  34
ATOM     34  N   UNL     1       4.339   2.565  18.713  0.00  0.00    +0.000 N 
ATOM     35  H   UNL     1       4.238   1.791  18.062  0.00  0.00    +0.000 HD
ATOM     36  H   UNL     1       3.719   2.472  19.511  0.00  0.00    +0.000 HD
ENDBRANCH   1  34
TORSDOF 5
ENDMDL
MODEL 3
REMARK VINA RESULT:      -9.2      5.547     10.577
REMARK  Name = 
REMARK  5 active torsions:
REMARK  status: ('A' for Active; 'I' for Inactive)
REMARK    1  A    between atoms: N_1  and  C_2
REMARK    2  A    between atoms: C_4  and  N_5
REMARK    3  A    between atoms: C_8  and  C_9
REMARK    4  A    between atoms: C_17  and  C_18
REMARK    5  A    between atoms: N_22  and  C_23
REMARK                            x       y       z     vdW  Elec       q    Type
REMARK                         _______ _______ _______ _____ _____    ______ ____
ROOT
ATOM      1  C   UNL     1      -1.463  11.671  18.643  0.00  0.00    +0.000 A 
ATOM      2  C   UNL     1      -1.146  12.485  19.739  0.00  0.00    +0.000 A 
ATOM      3  C   UNL     1      -0.157  12.076  20.626  0.00  0.00    +0.000 A 
ATOM      4  N   UNL     1       0.564  10.968  20.378  0.00  0.00    +0.000 NA
ATOM      5  C   UNL     1       0.343  10.227  19.272  0.00  0.00    +0.000 A 
ATOM      6  C   UNL     1      -0.669  10.557  18.382  0.00  0.00    +0.000 A 
ENDROOT
BRANCH   3   7
ATOM      7  N   UNL     1       0.132  12.852  21.762  0.00  0.00    +0.000 N 
ATOM      8  C   UNL     1      -0.786  13.385  22.682  0.00  0.00    +0.000 A 
ATOM      9  C   UNL     1      -2.025  12.812  22.947  0.00  0.00    +0.000 A 
ATOM     10  C   UNL     1      -2.963  13.472  23.747  0.00  0.00    +0.000 A 
ATOM     11  C   UNL     1      -2.590  14.672  24.338  0.00  0.00    +0.000 A 
ATOM     12  C   UNL     1      -1.311  15.147  24.098  0.00  0.00    +0.000 A 
ATOM     13  N   UNL     1      -0.418  14.539  23.281  0.00  0.00    +0.000 NA
ATOM     14  H   UNL     1       0.880  13.520  21.652  0.00  0.00    +0.000 HD
BRANCH  10  15
ATOM     15  C   UNL     1      -4.346  12.913  23.904  0.00  0.00    +0.000 C 
ATOM     16  F   UNL     1      -4.465  11.991  24.903  0.00  0.00    +0.000 F 
ATOM     17  F   UNL     1      -5.269  13.874  24.181  0.00  0.00    +0.000 F 
ATOM     18  F   UNL     1      -4.789  12.288  22.775  0.00  0.00    +0.000 F 
ENDBRANCH  10  15
ENDBRANCH   3   7
BRANCH   5  19
ATOM     19  C   UNL     1       1.304   9.131  19.069  0.00  0.00    +0.000 A 
ATOM     20  C   UNL     1       2.041   9.024  17.882  0.00  0.00    +0.000 A 
ATOM     21  C   UNL     1       2.889   7.942  17.664  0.00  0.00    +0.000 A 
ATOM     22  C   UNL     1       2.969   6.939  18.618  0.00  0.00    +0.000 A 
ATOM     23  N   UNL     1       3.630   5.768  18.258  0.00  0.00    +0.000 N 
ATOM     24  N   UNL     1       2.313   7.029  19.792  0.00  0.00    +0.000 NA
ATOM     25  C   UNL     1       1.529   8.123  19.998  0.00  0.00    +0.000 A 
ATOM     26  H   UNL     1       4.595   5.919  17.976  0.00  0.00    +0.000 HD
BRANCH  23  27
ATOM     27  C   UNL     1       3.431   4.599  19.107  0.00  0.00    +0.000 C 
ATOM     28  C   UNL     1       2.394   3.662  18.469  0.00  0.00    +0.000 C 
ATOM     29  C   UNL     1       2.966   2.266  18.596  0.00  0.00    +0.000 C 
ATOM     30  N   UNL     1       4.372   2.453  18.753  0.00  0.00    +0.000 N 
ATOM     31  C   UNL     1       4.703   3.745  19.096  0.00  0.00    +0.000 C 
ATOM     32  O   UNL     1       5.837   4.131  19.334  0.00  0.00    +0.000 OA
ATOM     33  H   UNL     1       5.078   1.729  18.720  0.00  0.00    +0.000 HD
ENDBRANCH  23  27
ENDBRANCH   5  19
BRANCH   1  34
ATOM     34  N   UNL     1      -2.400  12.101  17.693  0.00  0.00    +0.000 N 
ATOM     35  H   UNL     1      -2.347  11.611  16.804  0.00  0.00    +0.000 HD
ATOM     36  H   UNL     1      -2.437  13.107  17.570  0.00  0.00    +0.000 HD
ENDBRANCH   1  34
TORSDOF 5
ENDMDL
MODEL 4
REMARK VINA RESULT:      -9.2      1.307      1.926
REMARK  Name = 
REMARK  5 active torsions:
REMARK  status: ('A' for Active; 'I' for Inactive)
REMARK    1  A    between atoms: N_1  and  C_2
REMARK    2  A    between atoms: C_4  and  N_5
REMARK    3  A    between atoms: C_8  and  C_9
REMARK    4  A    between atoms: C_17  and  C_18
REMARK    5  A    between atoms: N_22  and  C_23
REMARK                            x       y       z     vdW  Elec       q    Type
REMARK                         _______ _______ _______ _____ _____    ______ ____
ROOT
ATOM      1  C   UNL     1       2.439   3.506  20.971  0.00  0.00    +0.000 A 
ATOM      2  C   UNL     1       3.370   3.046  20.030  0.00  0.00    +0.000 A 
ATOM      3  C   UNL     1       3.655   3.827  18.917  0.00  0.00    +0.000 A 
ATOM      4  N   UNL     1       3.126   5.059  18.797  0.00  0.00    +0.000 NA
ATOM      5  C   UNL     1       2.308   5.561  19.745  0.00  0.00    +0.000 A 
ATOM      6  C   UNL     1       1.946   4.803  20.849  0.00  0.00    +0.000 A 
ENDROOT
BRANCH   3   7
ATOM      7  N   UNL     1       4.542   3.355  17.935  0.00  0.00    +0.000 N 
ATOM      8  C   UNL     1       5.528   4.090  17.257  0.00  0.00    +0.000 A 
ATOM      9  C   UNL     1       6.155   5.209  17.796  0.00  0.00    +0.000 A 
ATOM     10  C   UNL     1       7.007   5.997  17.017  0.00  0.00    +0.000 A 
ATOM     11  C   UNL     1       7.277   5.583  15.719  0.00  0.00    +0.000 A 
ATOM     12  C   UNL     1       6.684   4.414  15.271  0.00  0.00    +0.000 A 
ATOM     13  N   UNL     1       5.816   3.676  16.004  0.00  0.00    +0.000 NA
ATOM     14  H   UNL     1       4.154   2.688  17.284  0.00  0.00    +0.000 HD
BRANCH  10  15
ATOM     15  C   UNL     1       7.558   7.279  17.565  0.00  0.00    +0.000 C 
ATOM     16  F   UNL     1       8.244   7.137  18.736  0.00  0.00    +0.000 F 
ATOM     17  F   UNL     1       8.423   7.885  16.706  0.00  0.00    +0.000 F 
ATOM     18  F   UNL     1       6.585   8.200  17.821  0.00  0.00    +0.000 F 
ENDBRANCH  10  15
ENDBRANCH   3   7
BRANCH   5  19
ATOM     19  C   UNL     1       1.929   6.968  19.542  0.00  0.00    +0.000 A 
ATOM     20  C   UNL     1       2.159   7.612  18.320  0.00  0.00    +0.000 A 
ATOM     21  C   UNL     1       1.870   8.965  18.160  0.00  0.00    +0.000 A 
ATOM     22  C   UNL     1       1.391   9.689  19.241  0.00  0.00    +0.000 A 
ATOM     23  N   UNL     1       1.350  11.074  19.113  0.00  0.00    +0.000 N 
ATOM     24  N   UNL     1       1.112   9.095  20.419  0.00  0.00    +0.000 NA
ATOM     25  C   UNL     1       1.357   7.761  20.531  0.00  0.00    +0.000 A 
ATOM     26  H   UNL     1       0.782  11.391  18.331  0.00  0.00    +0.000 HD
BRANCH  23  27
ATOM     27  C   UNL     1       1.177  11.855  20.332  0.00  0.00    +0.000 C 
ATOM     28  C   UNL     1       2.047  13.119  20.271  0.00  0.00    +0.000 C 
ATOM     29  C   UNL     1       1.165  14.251  20.754  0.00  0.00    +0.000 C 
ATOM     30  N   UNL     1      -0.171  13.790  20.561  0.00  0.00    +0.000 N 
ATOM     31  C   UNL     1      -0.242  12.428  20.367  0.00  0.00    +0.000 C 
ATOM     32  O   UNL     1      -1.282  11.801  20.233  0.00  0.00    +0.000 OA
ATOM     33  H   UNL     1      -1.013  14.346  20.641  0.00  0.00    +0.000 HD
ENDBRANCH  23  27
ENDBRANCH   5  19
BRANCH   1  34
ATOM     34  N   UNL     1       2.196   2.772  22.141  0.00  0.00    +0.000 N 
ATOM     35  H   UNL     1       1.652   1.926  21.997  0.00  0.00    +0.000 HD
ATOM     36  H   UNL     1       1.840   3.325  22.914  0.00  0.00    +0.000 HD
ENDBRANCH   1  34
TORSDOF 5
ENDMDL
MODEL 5
REMARK VINA RESULT:      -9.0      3.948      8.839
REMARK  Name = 
REMARK  5 active torsions:
REMARK  status: ('A' for Active; 'I' for Inactive)
REMARK    1  A    between atoms: N_1  and  C_2
REMARK    2  A    between atoms: C_4  and  N_5
REMARK    3  A    between atoms: C_8  and  C_9
REMARK    4  A    between atoms: C_17  and  C_18
REMARK    5  A    between atoms: N_22  and  C_23
REMARK                            x       y       z     vdW  Elec       q    Type
REMARK                         _______ _______ _______ _____ _____    ______ ____
ROOT
ATOM      1  C   UNL     1      -1.315  11.620  18.474  0.00  0.00    +0.000 A 
ATOM      2  C   UNL     1      -0.789  12.613  19.311  0.00  0.00    +0.000 A 
ATOM      3  C   UNL     1       0.344  12.337  20.066  0.00  0.00    +0.000 A 
ATOM      4  N   UNL     1       0.993  11.168  19.915  0.00  0.00    +0.000 NA
ATOM      5  C   UNL     1       0.560  10.239  19.038  0.00  0.00    +0.000 A 
ATOM      6  C   UNL     1      -0.596  10.439  18.299  0.00  0.00    +0.000 A 
ENDROOT
BRANCH   3   7
ATOM      7  N   UNL     1       0.850  13.302  20.954  0.00  0.00    +0.000 N 
ATOM      8  C   UNL     1       2.039  14.036  20.821  0.00  0.00    +0.000 A 
ATOM      9  C   UNL     1       2.618  14.341  19.594  0.00  0.00    +0.000 A 
ATOM     10  C   UNL     1       3.884  14.931  19.526  0.00  0.00    +0.000 A 
ATOM     11  C   UNL     1       4.508  15.281  20.716  0.00  0.00    +0.000 A 
ATOM     12  C   UNL     1       3.840  15.023  21.902  0.00  0.00    +0.000 A 
ATOM     13  N   UNL     1       2.638  14.404  21.975  0.00  0.00    +0.000 NA
ATOM     14  H   UNL     1       0.721  13.100  21.934  0.00  0.00    +0.000 HD
BRANCH  10  15
ATOM     15  C   UNL     1       4.557  15.118  18.199  0.00  0.00    +0.000 C 
ATOM     16  F   UNL     1       3.705  15.433  17.180  0.00  0.00    +0.000 F 
ATOM     17  F   UNL     1       5.485  16.114  18.220  0.00  0.00    +0.000 F 
ATOM     18  F   UNL     1       5.223  14.001  17.787  0.00  0.00    +0.000 F 
ENDBRANCH  10  15
ENDBRANCH   3   7
BRANCH   5  19
ATOM     19  C   UNL     1       1.454   9.080  18.884  0.00  0.00    +0.000 A 
ATOM     20  C   UNL     1       2.166   8.866  17.697  0.00  0.00    +0.000 A 
ATOM     21  C   UNL     1       2.948   7.726  17.530  0.00  0.00    +0.000 A 
ATOM     22  C   UNL     1       2.983   6.773  18.537  0.00  0.00    +0.000 A 
ATOM     23  N   UNL     1       3.571   5.548  18.234  0.00  0.00    +0.000 N 
ATOM     24  N   UNL     1       2.351   6.965  19.711  0.00  0.00    +0.000 NA
ATOM     25  C   UNL     1       1.634   8.112  19.865  0.00  0.00    +0.000 A 
ATOM     26  H   UNL     1       4.539   5.628  17.934  0.00  0.00    +0.000 HD
BRANCH  23  27
ATOM     27  C   UNL     1       3.317   4.440  19.148  0.00  0.00    +0.000 C 
ATOM     28  C   UNL     1       2.238   3.517  18.563  0.00  0.00    +0.000 C 
ATOM     29  C   UNL     1       2.744   2.106  18.771  0.00  0.00    +0.000 C 
ATOM     30  N   UNL     1       4.158   2.236  18.922  0.00  0.00    +0.000 N 
ATOM     31  C   UNL     1       4.548   3.530  19.190  0.00  0.00    +0.000 C 
ATOM     32  O   UNL     1       5.699   3.875  19.409  0.00  0.00    +0.000 OA
ATOM     33  H   UNL     1       4.829   1.480  18.932  0.00  0.00    +0.000 HD
ENDBRANCH  23  27
ENDBRANCH   5  19
BRANCH   1  34
ATOM     34  N   UNL     1      -2.410  11.903  17.643  0.00  0.00    +0.000 N 
ATOM     35  H   UNL     1      -3.055  12.589  18.024  0.00  0.00    +0.000 HD
ATOM     36  H   UNL     1      -2.891  11.080  17.296  0.00  0.00    +0.000 HD
ENDBRANCH   1  34
TORSDOF 5
ENDMDL
MODEL 6
REMARK VINA RESULT:      -9.0      3.964      8.245
REMARK  Name = 
REMARK  5 active torsions:
REMARK  status: ('A' for Active; 'I' for Inactive)
REMARK    1  A    between atoms: N_1  and  C_2
REMARK    2  A    between atoms: C_4  and  N_5
REMARK    3  A    between atoms: C_8  and  C_9
REMARK    4  A    between atoms: C_17  and  C_18
REMARK    5  A    between atoms: N_22  and  C_23
REMARK                            x       y       z     vdW  Elec       q    Type
REMARK                         _______ _______ _______ _____ _____    ______ ____
ROOT
ATOM      1  C   UNL     1       1.268   4.371  20.332  0.00  0.00    +0.000 A 
ATOM      2  C   UNL     1       0.969   5.574  20.985  0.00  0.00    +0.000 A 
ATOM      3  C   UNL     1       1.764   6.690  20.754  0.00  0.00    +0.000 A 
ATOM      4  N   UNL     1       2.743   6.648  19.832  0.00  0.00    +0.000 NA
ATOM      5  C   UNL     1       2.980   5.528  19.118  0.00  0.00    +0.000 A 
ATOM      6  C   UNL     1       2.253   4.368  19.347  0.00  0.00    +0.000 A 
ENDROOT
BRANCH   3   7
ATOM      7  N   UNL     1       1.512   7.887  21.445  0.00  0.00    +0.000 N 
ATOM      8  C   UNL     1       0.917   9.052  20.935  0.00  0.00    +0.000 A 
ATOM      9  C   UNL     1       0.009   9.051  19.882  0.00  0.00    +0.000 A 
ATOM     10  C   UNL     1      -0.426  10.250  19.309  0.00  0.00    +0.000 A 
ATOM     11  C   UNL     1       0.007  11.441  19.876  0.00  0.00    +0.000 A 
ATOM     12  C   UNL     1       0.847  11.371  20.976  0.00  0.00    +0.000 A 
ATOM     13  N   UNL     1       1.313  10.214  21.501  0.00  0.00    +0.000 NA
ATOM     14  H   UNL     1       2.226   8.169  22.101  0.00  0.00    +0.000 HD
BRANCH  10  15
ATOM     15  C   UNL     1      -1.288  10.229  18.082  0.00  0.00    +0.000 C 
ATOM     16  F   UNL     1      -1.523  11.461  17.544  0.00  0.00    +0.000 F 
ATOM     17  F   UNL     1      -0.747   9.488  17.077  0.00  0.00    +0.000 F 
ATOM     18  F   UNL     1      -2.520   9.692  18.317  0.00  0.00    +0.000 F 
ENDBRANCH  10  15
ENDBRANCH   3   7
BRANCH   5  19
ATOM     19  C   UNL     1       3.983   5.683  18.053  0.00  0.00    +0.000 A 
ATOM     20  C   UNL     1       4.089   6.875  17.325  0.00  0.00    +0.000 A 
ATOM     21  C   UNL     1       4.986   6.987  16.266  0.00  0.00    +0.000 A 
ATOM     22  C   UNL     1       5.751   5.888  15.905  0.00  0.00    +0.000 A 
ATOM     23  N   UNL     1       6.446   5.964  14.701  0.00  0.00    +0.000 N 
ATOM     24  N   UNL     1       5.712   4.740  16.610  0.00  0.00    +0.000 NA
ATOM     25  C   UNL     1       4.861   4.676  17.671  0.00  0.00    +0.000 A 
ATOM     26  H   UNL     1       7.097   6.743  14.659  0.00  0.00    +0.000 HD
BRANCH  23  27
ATOM     27  C   UNL     1       6.967   4.718  14.150  0.00  0.00    +0.000 C 
ATOM     28  C   UNL     1       5.826   3.909  13.516  0.00  0.00    +0.000 C 
ATOM     29  C   UNL     1       6.358   3.415  12.188  0.00  0.00    +0.000 C 
ATOM     30  N   UNL     1       7.429   4.299  11.864  0.00  0.00    +0.000 N 
ATOM     31  C   UNL     1       7.860   5.034  12.947  0.00  0.00    +0.000 C 
ATOM     32  O   UNL     1       8.797   5.817  12.924  0.00  0.00    +0.000 OA
ATOM     33  H   UNL     1       7.914   4.351  10.977  0.00  0.00    +0.000 HD
ENDBRANCH  23  27
ENDBRANCH   5  19
BRANCH   1  34
ATOM     34  N   UNL     1       0.432   3.255  20.489  0.00  0.00    +0.000 N 
ATOM     35  H   UNL     1       0.052   3.148  21.425  0.00  0.00    +0.000 HD
ATOM     36  H   UNL     1       0.825   2.388  20.136  0.00  0.00    +0.000 HD
ENDBRANCH   1  34
TORSDOF 5
ENDMDL
MODEL 7
REMARK VINA RESULT:      -8.7      3.242      4.002
REMARK  Name = 
REMARK  5 active torsions:
REMARK  status: ('A' for Active; 'I' for Inactive)
REMARK    1  A    between atoms: N_1  and  C_2
REMARK    2  A    between atoms: C_4  and  N_5
REMARK    3  A    between atoms: C_8  and  C_9
REMARK    4  A    between atoms: C_17  and  C_18
REMARK    5  A    between atoms: N_22  and  C_23
REMARK                            x       y       z     vdW  Elec       q    Type
REMARK                         _______ _______ _______ _____ _____    ______ ____
ROOT
ATOM      1  C   UNL     1       3.496   3.416  17.649  0.00  0.00    +0.000 A 
ATOM      2  C   UNL     1       4.584   3.794  16.850  0.00  0.00    +0.000 A 
ATOM      3  C   UNL     1       4.838   5.144  16.641  0.00  0.00    +0.000 A 
ATOM      4  N   UNL     1       4.116   6.080  17.285  0.00  0.00    +0.000 NA
ATOM      5  C   UNL     1       3.130   5.733  18.139  0.00  0.00    +0.000 A 
ATOM      6  C   UNL     1       2.798   4.402  18.342  0.00  0.00    +0.000 A 
ENDROOT
BRANCH   3   7
ATOM      7  N   UNL     1       5.889   5.539  15.796  0.00  0.00    +0.000 N 
ATOM      8  C   UNL     1       6.178   5.044  14.514  0.00  0.00    +0.000 A 
ATOM      9  C   UNL     1       5.215   4.514  13.662  0.00  0.00    +0.000 A 
ATOM     10  C   UNL     1       5.583   3.888  12.467  0.00  0.00    +0.000 A 
ATOM     11  C   UNL     1       6.926   3.887  12.114  0.00  0.00    +0.000 A 
ATOM     12  C   UNL     1       7.824   4.506  12.969  0.00  0.00    +0.000 A 
ATOM     13  N   UNL     1       7.480   5.066  14.153  0.00  0.00    +0.000 NA
ATOM     14  H   UNL     1       6.766   5.734  16.255  0.00  0.00    +0.000 HD
BRANCH  10  15
ATOM     15  C   UNL     1       4.549   3.192  11.632  0.00  0.00    +0.000 C 
ATOM     16  F   UNL     1       3.384   2.928  12.292  0.00  0.00    +0.000 F 
ATOM     17  F   UNL     1       4.193   3.912  10.535  0.00  0.00    +0.000 F 
ATOM     18  F   UNL     1       4.982   1.987  11.160  0.00  0.00    +0.000 F 
ENDBRANCH  10  15
ENDBRANCH   3   7
BRANCH   5  19
ATOM     19  C   UNL     1       2.532   6.860  18.872  0.00  0.00    +0.000 A 
ATOM     20  C   UNL     1       1.970   6.683  20.142  0.00  0.00    +0.000 A 
ATOM     21  C   UNL     1       1.335   7.736  20.796  0.00  0.00    +0.000 A 
ATOM     22  C   UNL     1       1.223   8.962  20.156  0.00  0.00    +0.000 A 
ATOM     23  N   UNL     1       0.376   9.905  20.732  0.00  0.00    +0.000 N 
ATOM     24  N   UNL     1       1.792   9.185  18.955  0.00  0.00    +0.000 NA
ATOM     25  C   UNL     1       2.448   8.151  18.362  0.00  0.00    +0.000 A 
ATOM     26  H   UNL     1       0.629  10.145  21.687  0.00  0.00    +0.000 HD
BRANCH  23  27
ATOM     27  C   UNL     1      -0.012  11.046  19.910  0.00  0.00    +0.000 C 
ATOM     28  C   UNL     1      -1.542  11.115  19.802  0.00  0.00    +0.000 C 
ATOM     29  C   UNL     1      -1.907  12.568  20.014  0.00  0.00    +0.000 C 
ATOM     30  N   UNL     1      -0.799  13.131  20.716  0.00  0.00    +0.000 N 
ATOM     31  C   UNL     1       0.328  12.341  20.653  0.00  0.00    +0.000 C 
ATOM     32  O   UNL     1       1.411  12.639  21.134  0.00  0.00    +0.000 OA
ATOM     33  H   UNL     1      -0.767  14.046  21.147  0.00  0.00    +0.000 HD
ENDBRANCH  23  27
ENDBRANCH   5  19
BRANCH   1  34
ATOM     34  N   UNL     1       3.269   2.062  17.938  0.00  0.00    +0.000 N 
ATOM     35  H   UNL     1       2.359   1.720  17.641  0.00  0.00    +0.000 HD
ATOM     36  H   UNL     1       3.480   1.800  18.895  0.00  0.00    +0.000 HD
ENDBRANCH   1  34
TORSDOF 5
ENDMDL
MODEL 8
REMARK VINA RESULT:      -8.7      5.429     10.454
REMARK  Name = 
REMARK  5 active torsions:
REMARK  status: ('A' for Active; 'I' for Inactive)
REMARK    1  A    between atoms: N_1  and  C_2
REMARK    2  A    between atoms: C_4  and  N_5
REMARK    3  A    between atoms: C_8  and  C_9
REMARK    4  A    between atoms: C_17  and  C_18
REMARK    5  A    between atoms: N_22  and  C_23
REMARK                            x       y       z     vdW  Elec       q    Type
REMARK                         _______ _______ _______ _____ _____    ______ ____
ROOT
ATOM      1  C   UNL     1      -0.651  11.837  21.385  0.00  0.00    +0.000 A 
ATOM      2  C   UNL     1      -1.606  12.149  20.408  0.00  0.00    +0.000 A 
ATOM      3  C   UNL     1      -1.481  11.604  19.136  0.00  0.00    +0.000 A 
ATOM      4  N   UNL     1      -0.517  10.702  18.875  0.00  0.00    +0.000 NA
ATOM      5  C   UNL     1       0.349  10.311  19.833  0.00  0.00    +0.000 A 
ATOM      6  C   UNL     1       0.305  10.864  21.104  0.00  0.00    +0.000 A 
ENDROOT
BRANCH   3   7
ATOM      7  N   UNL     1      -2.397  11.952  18.129  0.00  0.00    +0.000 N 
ATOM      8  C   UNL     1      -3.798  11.964  18.224  0.00  0.00    +0.000 A 
ATOM      9  C   UNL     1      -4.483  12.170  19.416  0.00  0.00    +0.000 A 
ATOM     10  C   UNL     1      -5.871  12.009  19.482  0.00  0.00    +0.000 A 
ATOM     11  C   UNL     1      -6.553  11.724  18.307  0.00  0.00    +0.000 A 
ATOM     12  C   UNL     1      -5.818  11.613  17.138  0.00  0.00    +0.000 A 
ATOM     13  N   UNL     1      -4.470  11.715  17.079  0.00  0.00    +0.000 NA
ATOM     14  H   UNL     1      -2.155  11.648  17.198  0.00  0.00    +0.000 HD
BRANCH  10  15
ATOM     15  C   UNL     1      -6.577  12.089  20.804  0.00  0.00    +0.000 C 
ATOM     16  F   UNL     1      -7.281  10.966  21.129  0.00  0.00    +0.000 F 
ATOM     17  F   UNL     1      -5.720  12.298  21.841  0.00  0.00    +0.000 F 
ATOM     18  F   UNL     1      -7.477  13.113  20.855  0.00  0.00    +0.000 F 
ENDBRANCH  10  15
ENDBRANCH   3   7
BRANCH   5  19
ATOM     19  C   UNL     1       1.249   9.218  19.433  0.00  0.00    +0.000 A 
ATOM     20  C   UNL     1       1.856   9.203  18.171  0.00  0.00    +0.000 A 
ATOM     21  C   UNL     1       2.643   8.126  17.769  0.00  0.00    +0.000 A 
ATOM     22  C   UNL     1       2.787   7.038  18.617  0.00  0.00    +0.000 A 
ATOM     23  N   UNL     1       3.370   5.890  18.087  0.00  0.00    +0.000 N 
ATOM     24  N   UNL     1       2.259   7.036  19.857  0.00  0.00    +0.000 NA
ATOM     25  C   UNL     1       1.536   8.123  20.241  0.00  0.00    +0.000 A 
ATOM     26  H   UNL     1       4.306   6.045  17.720  0.00  0.00    +0.000 HD
BRANCH  23  27
ATOM     27  C   UNL     1       3.222   4.653  18.845  0.00  0.00    +0.000 C 
ATOM     28  C   UNL     1       2.327   3.672  18.073  0.00  0.00    +0.000 C 
ATOM     29  C   UNL     1       3.017   2.328  18.159  0.00  0.00    +0.000 C 
ATOM     30  N   UNL     1       4.384   2.629  18.437  0.00  0.00    +0.000 N 
ATOM     31  C   UNL     1       4.566   3.920  18.882  0.00  0.00    +0.000 C 
ATOM     32  O   UNL     1       5.638   4.388  19.230  0.00  0.00    +0.000 OA
ATOM     33  H   UNL     1       5.156   1.975  18.415  0.00  0.00    +0.000 HD
ENDBRANCH  23  27
ENDBRANCH   5  19
BRANCH   1  34
ATOM     34  N   UNL     1      -0.802  12.312  22.697  0.00  0.00    +0.000 N 
ATOM     35  H   UNL     1      -0.159  13.059  22.946  0.00  0.00    +0.000 HD
ATOM     36  H   UNL     1      -0.830  11.583  23.403  0.00  0.00    +0.000 HD
ENDBRANCH   1  34
TORSDOF 5
ENDMDL
MODEL 9
REMARK VINA RESULT:      -8.6      5.272     10.344
REMARK  Name = 
REMARK  5 active torsions:
REMARK  status: ('A' for Active; 'I' for Inactive)
REMARK    1  A    between atoms: N_1  and  C_2
REMARK    2  A    between atoms: C_4  and  N_5
REMARK    3  A    between atoms: C_8  and  C_9
REMARK    4  A    between atoms: C_17  and  C_18
REMARK    5  A    between atoms: N_22  and  C_23
REMARK                            x       y       z     vdW  Elec       q    Type
REMARK                         _______ _______ _______ _____ _____    ______ ____
ROOT
ATOM      1  C   UNL     1      -1.073  11.516  18.251  0.00  0.00    +0.000 A 
ATOM      2  C   UNL     1      -0.718  12.383  19.293  0.00  0.00    +0.000 A 
ATOM      3  C   UNL     1       0.207  11.965  20.241  0.00  0.00    +0.000 A 
ATOM      4  N   UNL     1       0.838  10.784  20.101  0.00  0.00    +0.000 NA
ATOM      5  C   UNL     1       0.584   9.980  19.048  0.00  0.00    +0.000 A 
ATOM      6  C   UNL     1      -0.370  10.322  18.102  0.00  0.00    +0.000 A 
ENDROOT
BRANCH   3   7
ATOM      7  N   UNL     1       0.531  12.800  21.324  0.00  0.00    +0.000 N 
ATOM      8  C   UNL     1      -0.356  13.357  22.261  0.00  0.00    +0.000 A 
ATOM      9  C   UNL     1      -1.568  12.771  22.611  0.00  0.00    +0.000 A 
ATOM     10  C   UNL     1      -2.483  13.449  23.422  0.00  0.00    +0.000 A 
ATOM     11  C   UNL     1      -2.112  14.684  23.937  0.00  0.00    +0.000 A 
ATOM     12  C   UNL     1      -0.856  15.173  23.615  0.00  0.00    +0.000 A 
ATOM     13  N   UNL     1       0.012  14.545  22.787  0.00  0.00    +0.000 NA
ATOM     14  H   UNL     1       1.257  13.477  21.149  0.00  0.00    +0.000 HD
BRANCH  10  15
ATOM     15  C   UNL     1      -3.844  12.869  23.670  0.00  0.00    +0.000 C 
ATOM     16  F   UNL     1      -3.853  11.817  24.538  0.00  0.00    +0.000 F 
ATOM     17  F   UNL     1      -4.712  13.779  24.189  0.00  0.00    +0.000 F 
ATOM     18  F   UNL     1      -4.431  12.406  22.528  0.00  0.00    +0.000 F 
ENDBRANCH  10  15
ENDBRANCH   3   7
BRANCH   5  19
ATOM     19  C   UNL     1       1.454   8.796  18.960  0.00  0.00    +0.000 A 
ATOM     20  C   UNL     1       1.549   7.886  20.021  0.00  0.00    +0.000 A 
ATOM     21  C   UNL     1       2.434   6.812  19.963  0.00  0.00    +0.000 A 
ATOM     22  C   UNL     1       3.259   6.672  18.857  0.00  0.00    +0.000 A 
ATOM     23  N   UNL     1       4.290   5.740  18.946  0.00  0.00    +0.000 N 
ATOM     24  N   UNL     1       3.164   7.498  17.797  0.00  0.00    +0.000 NA
ATOM     25  C   UNL     1       2.256   8.510  17.861  0.00  0.00    +0.000 A 
ATOM     26  H   UNL     1       3.965   4.795  19.135  0.00  0.00    +0.000 HD
BRANCH  23  27
ATOM     27  C   UNL     1       5.352   5.820  17.950  0.00  0.00    +0.000 C 
ATOM     28  C   UNL     1       6.720   5.689  18.634  0.00  0.00    +0.000 C 
ATOM     29  C   UNL     1       7.520   4.730  17.778  0.00  0.00    +0.000 C 
ATOM     30  N   UNL     1       6.548   3.983  17.048  0.00  0.00    +0.000 N 
ATOM     31  C   UNL     1       5.303   4.574  17.060  0.00  0.00    +0.000 C 
ATOM     32  O   UNL     1       4.328   4.147  16.463  0.00  0.00    +0.000 OA
ATOM     33  H   UNL     1       6.724   3.158  16.490  0.00  0.00    +0.000 HD
ENDBRANCH  23  27
ENDBRANCH   5  19
BRANCH   1  34
ATOM     34  N   UNL     1      -1.945  11.946  17.240  0.00  0.00    +0.000 N 
ATOM     35  H   UNL     1      -2.239  11.211  16.603  0.00  0.00    +0.000 HD
ATOM     36  H   UNL     1      -1.631  12.775  16.745  0.00  0.00    +0.000 HD
ENDBRANCH   1  34
TORSDOF 5
ENDMDL
