MODEL 1
REMARK VINA RESULT:      -7.9      0.000      0.000
REMARK  Name = 
REMARK  8 active torsions:
REMARK  status: ('A' for Active; 'I' for Inactive)
REMARK    1  A    between atoms: N_1  and  C_2
REMARK    2  A    between atoms: C_2  and  C_3
REMARK    3  A    between atoms: C_2  and  C_18
REMARK    4  A    between atoms: C_2  and  C_21
REMARK    5  A    between atoms: C_3  and  C_4
REMARK    6  A    between atoms: C_18  and  O_20
REMARK    7  A    between atoms: C_23  and  C_24
REMARK    8  A    between atoms: C_24  and  O_26
REMARK                            x       y       z     vdW  Elec       q    Type
REMARK                         _______ _______ _______ _____ _____    ______ ____
ROOT
ATOM      1  C   UNL     1       5.194   5.419  16.456  0.00  0.00    +0.000 C 
ENDROOT
BRANCH   1   2
ATOM      2  N   UNL     1       5.172   6.420  15.365  0.00  0.00    +0.000 NA
ATOM      3  H   UNL     1       5.268   6.019  14.437  0.00  0.00    +0.000 HD
ATOM      4  H   UNL     1       5.881   7.137  15.517  0.00  0.00    +0.000 HD
ENDBRANCH   1   2
BRANCH   1   5
ATOM      5  C   UNL     1       6.235   5.883  17.495  0.00  0.00    +0.000 C 
ATOM      6  C   UNL     1       7.572   5.208  17.715  0.00  0.00    +0.000 C 
ATOM      7  C   UNL     1       7.534   6.607  17.142  0.00  0.00    +0.000 C 
BRANCH   7   8
ATOM      8  C   UNL     1       7.955   7.773  17.960  0.00  0.00    +0.000 C 
ATOM      9  O   UNL     1       7.705   8.927  17.648  0.00  0.00    +0.000 OA
BRANCH   8  10
ATOM     10  O   UNL     1       8.624   7.431  19.083  0.00  0.00    +0.000 OA
ATOM     11  H   UNL     1       9.526   7.798  19.117  0.00  0.00    +0.000 HD
ENDBRANCH   8  10
ENDBRANCH   7   8
ENDBRANCH   1   5
BRANCH   1  12
ATOM     12  C   UNL     1       5.619   4.017  15.909  0.00  0.00    +0.000 C 
ATOM     13  O   UNL     1       6.223   3.838  14.863  0.00  0.00    +0.000 OA
BRANCH  12  14
ATOM     14  O   UNL     1       5.213   2.982  16.687  0.00  0.00    +0.000 OA
ATOM     15  H   UNL     1       5.861   2.780  17.387  0.00  0.00    +0.000 HD
ENDBRANCH  12  14
ENDBRANCH   1  12
BRANCH   1  16
ATOM     16  C   UNL     1       3.825   5.338  17.203  0.00  0.00    +0.000 C 
BRANCH  16  17
ATOM     17  C   UNL     1       3.647   5.834  18.668  0.00  0.00    +0.000 C 
ATOM     18  C   UNL     1       3.313   4.744  19.665  0.00  0.00    +0.000 A 
ATOM     19  C   UNL     1       4.086   3.575  19.762  0.00  0.00    +0.000 A 
ATOM     20  C   UNL     1       3.733   2.556  20.654  0.00  0.00    +0.000 A 
ATOM     21  C   UNL     1       2.617   2.695  21.472  0.00  0.00    +0.000 A 
ATOM     22  C   UNL     1       1.872   3.870  21.425  0.00  0.00    +0.000 A 
ATOM     23  C   UNL     1       2.229   4.890  20.533  0.00  0.00    +0.000 A 
ATOM     24  O   UNL     1       1.443   6.011  20.592  0.00  0.00    +0.000 OA
ATOM     25  C   UNL     1       1.765   7.081  19.802  0.00  0.00    +0.000 A 
ATOM     26  C   UNL     1       0.998   8.230  20.019  0.00  0.00    +0.000 A 
ATOM     27  C   UNL     1       1.206   9.367  19.245  0.00  0.00    +0.000 A 
ATOM     28  C   UNL     1       2.186   9.357  18.258  0.00  0.00    +0.000 A 
ATOM     29  C   UNL     1       2.973   8.219  18.061  0.00  0.00    +0.000 A 
ATOM     30  C   UNL     1       2.768   7.059  18.829  0.00  0.00    +0.000 A 
ENDBRANCH  16  17
ENDBRANCH   1  16
TORSDOF 8
ENDMDL
MODEL 2
REMARK VINA RESULT:      -7.5      3.103      5.630
REMARK  Name = 
REMARK  8 active torsions:
REMARK  status: ('A' for Active; 'I' for Inactive)
REMARK    1  A    between atoms: N_1  and  C_2
REMARK    2  A    between atoms: C_2  and  C_3
REMARK    3  A    between atoms: C_2  and  C_18
REMARK    4  A    between atoms: C_2  and  C_21
REMARK    5  A    between atoms: C_3  and  C_4
REMARK    6  A    between atoms: C_18  and  O_20
REMARK    7  A    between atoms: C_23  and  C_24
REMARK    8  A    between atoms: C_24  and  O_26
REMARK                            x       y       z     vdW  Elec       q    Type
REMARK                         _______ _______ _______ _____ _____    ______ ____
ROOT
ATOM      1  C   UNL     1       5.929   4.192  14.902  0.00  0.00    +0.000 C 
ENDROOT
BRANCH   1   2
ATOM      2  N   UNL     1       5.845   2.857  15.536  0.00  0.00    +0.000 NA
ATOM      3  H   UNL     1       6.748   2.429  15.714  0.00  0.00    +0.000 HD
ATOM      4  H   UNL     1       5.258   2.230  14.985  0.00  0.00    +0.000 HD
ENDBRANCH   1   2
BRANCH   1   5
ATOM      5  C   UNL     1       5.635   4.015  13.398  0.00  0.00    +0.000 C 
ATOM      6  C   UNL     1       6.601   4.396  12.296  0.00  0.00    +0.000 C 
ATOM      7  C   UNL     1       6.274   2.938  12.522  0.00  0.00    +0.000 C 
BRANCH   7   8
ATOM      8  C   UNL     1       5.423   2.193  11.560  0.00  0.00    +0.000 C 
ATOM      9  O   UNL     1       4.420   2.669  11.053  0.00  0.00    +0.000 OA
BRANCH   8  10
ATOM     10  O   UNL     1       5.875   0.947  11.291  0.00  0.00    +0.000 OA
ATOM     11  H   UNL     1       6.795   0.935  10.972  0.00  0.00    +0.000 HD
ENDBRANCH   8  10
ENDBRANCH   7   8
ENDBRANCH   1   5
BRANCH   1  12
ATOM     12  C   UNL     1       7.362   4.792  15.068  0.00  0.00    +0.000 C 
ATOM     13  O   UNL     1       7.860   5.612  14.311  0.00  0.00    +0.000 OA
BRANCH  12  14
ATOM     14  O   UNL     1       8.048   4.283  16.123  0.00  0.00    +0.000 OA
ATOM     15  H   UNL     1       7.584   4.442  16.965  0.00  0.00    +0.000 HD
ENDBRANCH  12  14
ENDBRANCH   1  12
BRANCH   1  16
ATOM     16  C   UNL     1       4.844   5.171  15.454  0.00  0.00    +0.000 C 
BRANCH  16  17
ATOM     17  C   UNL     1       4.649   5.421  16.978  0.00  0.00    +0.000 C 
ATOM     18  C   UNL     1       5.873   5.965  17.687  0.00  0.00    +0.000 A 
ATOM     19  C   UNL     1       6.555   7.096  17.211  0.00  0.00    +0.000 A 
ATOM     20  C   UNL     1       7.713   7.555  17.849  0.00  0.00    +0.000 A 
ATOM     21  C   UNL     1       8.195   6.904  18.980  0.00  0.00    +0.000 A 
ATOM     22  C   UNL     1       7.499   5.814  19.495  0.00  0.00    +0.000 A 
ATOM     23  C   UNL     1       6.339   5.358  18.855  0.00  0.00    +0.000 A 
ATOM     24  O   UNL     1       5.721   4.298  19.464  0.00  0.00    +0.000 OA
ATOM     25  C   UNL     1       4.544   3.834  18.941  0.00  0.00    +0.000 A 
ATOM     26  C   UNL     1       3.911   2.843  19.695  0.00  0.00    +0.000 A 
ATOM     27  C   UNL     1       2.728   2.266  19.242  0.00  0.00    +0.000 A 
ATOM     28  C   UNL     1       2.177   2.686  18.036  0.00  0.00    +0.000 A 
ATOM     29  C   UNL     1       2.795   3.699  17.297  0.00  0.00    +0.000 A 
ATOM     30  C   UNL     1       3.995   4.284  17.737  0.00  0.00    +0.000 A 
ENDBRANCH  16  17
ENDBRANCH   1  16
TORSDOF 8
ENDMDL
MODEL 3
REMARK VINA RESULT:      -7.2      0.779      1.175
REMARK  Name = 
REMARK  8 active torsions:
REMARK  status: ('A' for Active; 'I' for Inactive)
REMARK    1  A    between atoms: N_1  and  C_2
REMARK    2  A    between atoms: C_2  and  C_3
REMARK    3  A    between atoms: C_2  and  C_18
REMARK    4  A    between atoms: C_2  and  C_21
REMARK    5  A    between atoms: C_3  and  C_4
REMARK    6  A    between atoms: C_18  and  O_20
REMARK    7  A    between atoms: C_23  and  C_24
REMARK    8  A    between atoms: C_24  and  O_26
REMARK                            x       y       z     vdW  Elec       q    Type
REMARK                         _______ _______ _______ _____ _____    ______ ____
ROOT
ATOM      1  C   UNL     1       5.232   5.167  16.379  0.00  0.00    +0.000 C 
ENDROOT
BRANCH   1   2
ATOM      2  N   UNL     1       5.500   6.470  15.729  0.00  0.00    +0.000 NA
ATOM      3  H   UNL     1       6.251   6.442  15.046  0.00  0.00    +0.000 HD
ATOM      4  H   UNL     1       5.681   7.192  16.426  0.00  0.00    +0.000 HD
ENDBRANCH   1   2
BRANCH   1   5
ATOM      5  C   UNL     1       6.326   4.941  17.442  0.00  0.00    +0.000 C 
ATOM      6  C   UNL     1       7.742   4.510  17.123  0.00  0.00    +0.000 C 
ATOM      7  C   UNL     1       7.498   5.893  17.682  0.00  0.00    +0.000 C 
BRANCH   7   8
ATOM      8  C   UNL     1       7.882   6.226  19.077  0.00  0.00    +0.000 C 
ATOM      9  O   UNL     1       7.572   5.535  20.034  0.00  0.00    +0.000 OA
BRANCH   8  10
ATOM     10  O   UNL     1       8.617   7.356  19.179  0.00  0.00    +0.000 OA
ATOM     11  H   UNL     1       8.164   8.063  19.672  0.00  0.00    +0.000 HD
ENDBRANCH   8  10
ENDBRANCH   7   8
ENDBRANCH   1   5
BRANCH   1  12
ATOM     12  C   UNL     1       5.297   4.006  15.334  0.00  0.00    +0.000 C 
ATOM     13  O   UNL     1       5.415   2.824  15.620  0.00  0.00    +0.000 OA
BRANCH  12  14
ATOM     14  O   UNL     1       5.258   4.429  14.045  0.00  0.00    +0.000 OA
ATOM     15  H   UNL     1       4.533   4.007  13.549  0.00  0.00    +0.000 HD
ENDBRANCH  12  14
ENDBRANCH   1  12
BRANCH   1  16
ATOM     16  C   UNL     1       3.867   5.161  17.138  0.00  0.00    +0.000 C 
BRANCH  16  17
ATOM     17  C   UNL     1       3.722   5.698  18.592  0.00  0.00    +0.000 C 
ATOM     18  C   UNL     1       3.384   4.639  19.621  0.00  0.00    +0.000 A 
ATOM     19  C   UNL     1       4.137   3.459  19.736  0.00  0.00    +0.000 A 
ATOM     20  C   UNL     1       3.781   2.469  20.658  0.00  0.00    +0.000 A 
ATOM     21  C   UNL     1       2.681   2.649  21.490  0.00  0.00    +0.000 A 
ATOM     22  C   UNL     1       1.957   3.837  21.426  0.00  0.00    +0.000 A 
ATOM     23  C   UNL     1       2.317   4.827  20.503  0.00  0.00    +0.000 A 
ATOM     24  O   UNL     1       1.554   5.963  20.546  0.00  0.00    +0.000 OA
ATOM     25  C   UNL     1       1.882   7.007  19.724  0.00  0.00    +0.000 A 
ATOM     26  C   UNL     1       1.141   8.175  19.924  0.00  0.00    +0.000 A 
ATOM     27  C   UNL     1       1.356   9.289  19.119  0.00  0.00    +0.000 A 
ATOM     28  C   UNL     1       2.320   9.236  18.117  0.00  0.00    +0.000 A 
ATOM     29  C   UNL     1       3.083   8.078  17.936  0.00  0.00    +0.000 A 
ATOM     30  C   UNL     1       2.868   6.942  18.736  0.00  0.00    +0.000 A 
ENDBRANCH  16  17
ENDBRANCH   1  16
TORSDOF 8
ENDMDL
MODEL 4
REMARK VINA RESULT:      -7.0      1.493      4.631
REMARK  Name = 
REMARK  8 active torsions:
REMARK  status: ('A' for Active; 'I' for Inactive)
REMARK    1  A    between atoms: N_1  and  C_2
REMARK    2  A    between atoms: C_2  and  C_3
REMARK    3  A    between atoms: C_2  and  C_18
REMARK    4  A    between atoms: C_2  and  C_21
REMARK    5  A    between atoms: C_3  and  C_4
REMARK    6  A    between atoms: C_18  and  O_20
REMARK    7  A    between atoms: C_23  and  C_24
REMARK    8  A    between atoms: C_24  and  O_26
REMARK                            x       y       z     vdW  Elec       q    Type
REMARK                         _______ _______ _______ _____ _____    ______ ____
ROOT
ATOM      1  C   UNL     1       5.895   4.782  17.524  0.00  0.00    +0.000 C 
ENDROOT
BRANCH   1   2
ATOM      2  N   UNL     1       5.753   3.406  18.050  0.00  0.00    +0.000 NA
ATOM      3  H   UNL     1       6.279   3.235  18.902  0.00  0.00    +0.000 HD
ATOM      4  H   UNL     1       5.998   2.719  17.338  0.00  0.00    +0.000 HD
ENDBRANCH   1   2
BRANCH   1   5
ATOM      5  C   UNL     1       5.315   4.799  16.095  0.00  0.00    +0.000 C 
ATOM      6  C   UNL     1       5.274   6.028  15.211  0.00  0.00    +0.000 C 
ATOM      7  C   UNL     1       6.165   4.869  14.826  0.00  0.00    +0.000 C 
BRANCH   7   8
ATOM      8  C   UNL     1       5.819   3.994  13.677  0.00  0.00    +0.000 C 
ATOM      9  O   UNL     1       4.723   4.006  13.140  0.00  0.00    +0.000 OA
BRANCH   8  10
ATOM     10  O   UNL     1       6.837   3.199  13.279  0.00  0.00    +0.000 OA
ATOM     11  H   UNL     1       7.084   2.533  13.946  0.00  0.00    +0.000 HD
ENDBRANCH   8  10
ENDBRANCH   7   8
ENDBRANCH   1   5
BRANCH   1  12
ATOM     12  C   UNL     1       7.401   5.196  17.461  0.00  0.00    +0.000 C 
ATOM     13  O   UNL     1       7.800   6.350  17.433  0.00  0.00    +0.000 OA
BRANCH  12  14
ATOM     14  O   UNL     1       8.254   4.142  17.394  0.00  0.00    +0.000 OA
ATOM     15  H   UNL     1       8.283   3.648  18.234  0.00  0.00    +0.000 HD
ENDBRANCH  12  14
ENDBRANCH   1  12
BRANCH   1  16
ATOM     16  C   UNL     1       5.065   5.814  18.352  0.00  0.00    +0.000 C 
BRANCH  16  17
ATOM     17  C   UNL     1       3.532   5.658  18.577  0.00  0.00    +0.000 C 
ATOM     18  C   UNL     1       2.778   6.968  18.693  0.00  0.00    +0.000 A 
ATOM     19  C   UNL     1       2.910   7.979  17.728  0.00  0.00    +0.000 A 
ATOM     20  C   UNL     1       2.246   9.202  17.877  0.00  0.00    +0.000 A 
ATOM     21  C   UNL     1       1.428   9.425  18.980  0.00  0.00    +0.000 A 
ATOM     22  C   UNL     1       1.245   8.412  19.917  0.00  0.00    +0.000 A 
ATOM     23  C   UNL     1       1.909   7.189  19.764  0.00  0.00    +0.000 A 
ATOM     24  O   UNL     1       1.634   6.256  20.729  0.00  0.00    +0.000 OA
ATOM     25  C   UNL     1       2.190   5.010  20.616  0.00  0.00    +0.000 A 
ATOM     26  C   UNL     1       1.754   4.079  21.564  0.00  0.00    +0.000 A 
ATOM     27  C   UNL     1       2.281   2.791  21.574  0.00  0.00    +0.000 A 
ATOM     28  C   UNL     1       3.240   2.434  20.632  0.00  0.00    +0.000 A 
ATOM     29  C   UNL     1       3.653   3.355  19.666  0.00  0.00    +0.000 A 
ATOM     30  C   UNL     1       3.137   4.663  19.649  0.00  0.00    +0.000 A 
ENDBRANCH  16  17
ENDBRANCH   1  16
TORSDOF 8
ENDMDL
MODEL 5
REMARK VINA RESULT:      -7.0      1.865      3.463
REMARK  Name = 
REMARK  8 active torsions:
REMARK  status: ('A' for Active; 'I' for Inactive)
REMARK    1  A    between atoms: N_1  and  C_2
REMARK    2  A    between atoms: C_2  and  C_3
REMARK    3  A    between atoms: C_2  and  C_18
REMARK    4  A    between atoms: C_2  and  C_21
REMARK    5  A    between atoms: C_3  and  C_4
REMARK    6  A    between atoms: C_18  and  O_20
REMARK    7  A    between atoms: C_23  and  C_24
REMARK    8  A    between atoms: C_24  and  O_26
REMARK                            x       y       z     vdW  Elec       q    Type
REMARK                         _______ _______ _______ _____ _____    ______ ____
ROOT
ATOM      1  C   UNL     1       5.602   4.426  16.138  0.00  0.00    +0.000 C 
ENDROOT
BRANCH   1   2
ATOM      2  N   UNL     1       5.866   2.999  16.431  0.00  0.00    +0.000 NA
ATOM      3  H   UNL     1       6.310   2.839  17.330  0.00  0.00    +0.000 HD
ATOM      4  H   UNL     1       6.412   2.571  15.684  0.00  0.00    +0.000 HD
ENDBRANCH   1   2
BRANCH   1   5
ATOM      5  C   UNL     1       5.496   4.577  14.606  0.00  0.00    +0.000 C 
ATOM      6  C   UNL     1       6.596   5.143  13.733  0.00  0.00    +0.000 C 
ATOM      7  C   UNL     1       6.227   3.683  13.605  0.00  0.00    +0.000 C 
BRANCH   7   8
ATOM      8  C   UNL     1       5.493   3.187  12.412  0.00  0.00    +0.000 C 
ATOM      9  O   UNL     1       4.493   3.732  11.974  0.00  0.00    +0.000 OA
BRANCH   8  10
ATOM     10  O   UNL     1       6.049   2.087  11.856  0.00  0.00    +0.000 OA
ATOM     11  H   UNL     1       5.478   1.301  11.913  0.00  0.00    +0.000 HD
ENDBRANCH   8  10
ENDBRANCH   7   8
ENDBRANCH   1   5
BRANCH   1  12
ATOM     12  C   UNL     1       6.777   5.320  16.652  0.00  0.00    +0.000 C 
ATOM     13  O   UNL     1       6.809   6.538  16.561  0.00  0.00    +0.000 OA
BRANCH  12  14
ATOM     14  O   UNL     1       7.809   4.616  17.181  0.00  0.00    +0.000 OA
ATOM     15  H   UNL     1       8.385   4.244  16.489  0.00  0.00    +0.000 HD
ENDBRANCH  12  14
ENDBRANCH   1  12
BRANCH   1  16
ATOM     16  C   UNL     1       4.236   4.902  16.727  0.00  0.00    +0.000 C 
BRANCH  16  17
ATOM     17  C   UNL     1       4.107   5.470  18.170  0.00  0.00    +0.000 C 
ATOM     18  C   UNL     1       3.786   4.434  19.227  0.00  0.00    +0.000 A 
ATOM     19  C   UNL     1       4.546   3.260  19.359  0.00  0.00    +0.000 A 
ATOM     20  C   UNL     1       4.205   2.289  20.308  0.00  0.00    +0.000 A 
ATOM     21  C   UNL     1       3.114   2.483  21.149  0.00  0.00    +0.000 A 
ATOM     22  C   UNL     1       2.384   3.666  21.067  0.00  0.00    +0.000 A 
ATOM     23  C   UNL     1       2.729   4.637  20.117  0.00  0.00    +0.000 A 
ATOM     24  O   UNL     1       1.961   5.771  20.144  0.00  0.00    +0.000 OA
ATOM     25  C   UNL     1       2.274   6.797  19.294  0.00  0.00    +0.000 A 
ATOM     26  C   UNL     1       1.530   7.966  19.477  0.00  0.00    +0.000 A 
ATOM     27  C   UNL     1       1.731   9.063  18.644  0.00  0.00    +0.000 A 
ATOM     28  C   UNL     1       2.682   8.991  17.632  0.00  0.00    +0.000 A 
ATOM     29  C   UNL     1       3.448   7.833  17.469  0.00  0.00    +0.000 A 
ATOM     30  C   UNL     1       3.249   6.714  18.296  0.00  0.00    +0.000 A 
ENDBRANCH  16  17
ENDBRANCH   1  16
TORSDOF 8
ENDMDL
MODEL 6
REMARK VINA RESULT:      -6.9      1.969      4.436
REMARK  Name = 
REMARK  8 active torsions:
REMARK  status: ('A' for Active; 'I' for Inactive)
REMARK    1  A    between atoms: N_1  and  C_2
REMARK    2  A    between atoms: C_2  and  C_3
REMARK    3  A    between atoms: C_2  and  C_18
REMARK    4  A    between atoms: C_2  and  C_21
REMARK    5  A    between atoms: C_3  and  C_4
REMARK    6  A    between atoms: C_18  and  O_20
REMARK    7  A    between atoms: C_23  and  C_24
REMARK    8  A    between atoms: C_24  and  O_26
REMARK                            x       y       z     vdW  Elec       q    Type
REMARK                         _______ _______ _______ _____ _____    ______ ____
ROOT
ATOM      1  C   UNL     1       4.805   4.418  17.531  0.00  0.00    +0.000 C 
ENDROOT
BRANCH   1   2
ATOM      2  N   UNL     1       4.709   2.958  17.299  0.00  0.00    +0.000 NA
ATOM      3  H   UNL     1       4.335   2.441  18.089  0.00  0.00    +0.000 HD
ATOM      4  H   UNL     1       5.612   2.576  17.020  0.00  0.00    +0.000 HD
ENDBRANCH   1   2
BRANCH   1   5
ATOM      5  C   UNL     1       5.981   4.949  16.686  0.00  0.00    +0.000 C 
ATOM      6  C   UNL     1       7.433   4.612  16.949  0.00  0.00    +0.000 C 
ATOM      7  C   UNL     1       6.772   4.101  15.690  0.00  0.00    +0.000 C 
BRANCH   7   8
ATOM      8  C   UNL     1       7.114   4.678  14.365  0.00  0.00    +0.000 C 
ATOM      9  O   UNL     1       7.926   5.579  14.222  0.00  0.00    +0.000 OA
BRANCH   8  10
ATOM     10  O   UNL     1       6.453   4.099  13.338  0.00  0.00    +0.000 OA
ATOM     11  H   UNL     1       6.944   4.136  12.498  0.00  0.00    +0.000 HD
ENDBRANCH   8  10
ENDBRANCH   7   8
ENDBRANCH   1   5
BRANCH   1  12
ATOM     12  C   UNL     1       5.091   4.719  19.037  0.00  0.00    +0.000 C 
ATOM     13  O   UNL     1       5.180   5.841  19.513  0.00  0.00    +0.000 OA
BRANCH  12  14
ATOM     14  O   UNL     1       5.283   3.606  19.790  0.00  0.00    +0.000 OA
ATOM     15  H   UNL     1       5.923   3.762  20.508  0.00  0.00    +0.000 HD
ENDBRANCH  12  14
ENDBRANCH   1  12
BRANCH   1  16
ATOM     16  C   UNL     1       3.529   5.172  17.040  0.00  0.00    +0.000 C 
BRANCH  16  17
ATOM     17  C   UNL     1       2.264   5.335  17.934  0.00  0.00    +0.000 C 
ATOM     18  C   UNL     1       2.074   6.724  18.508  0.00  0.00    +0.000 A 
ATOM     19  C   UNL     1       2.098   7.865  17.690  0.00  0.00    +0.000 A 
ATOM     20  C   UNL     1       1.970   9.145  18.243  0.00  0.00    +0.000 A 
ATOM     21  C   UNL     1       1.801   9.302  19.615  0.00  0.00    +0.000 A 
ATOM     22  C   UNL     1       1.721   8.177  20.431  0.00  0.00    +0.000 A 
ATOM     23  C   UNL     1       1.847   6.898  19.875  0.00  0.00    +0.000 A 
ATOM     24  O   UNL     1       1.725   5.864  20.766  0.00  0.00    +0.000 OA
ATOM     25  C   UNL     1       1.767   4.580  20.293  0.00  0.00    +0.000 A 
ATOM     26  C   UNL     1       1.501   3.591  21.244  0.00  0.00    +0.000 A 
ATOM     27  C   UNL     1       1.557   2.246  20.890  0.00  0.00    +0.000 A 
ATOM     28  C   UNL     1       1.873   1.893  19.582  0.00  0.00    +0.000 A 
ATOM     29  C   UNL     1       2.109   2.884  18.624  0.00  0.00    +0.000 A 
ATOM     30  C   UNL     1       2.066   4.246  18.970  0.00  0.00    +0.000 A 
ENDBRANCH  16  17
ENDBRANCH   1  16
TORSDOF 8
ENDMDL
MODEL 7
REMARK VINA RESULT:      -6.6      2.435      5.707
REMARK  Name = 
REMARK  8 active torsions:
REMARK  status: ('A' for Active; 'I' for Inactive)
REMARK    1  A    between atoms: N_1  and  C_2
REMARK    2  A    between atoms: C_2  and  C_3
REMARK    3  A    between atoms: C_2  and  C_18
REMARK    4  A    between atoms: C_2  and  C_21
REMARK    5  A    between atoms: C_3  and  C_4
REMARK    6  A    between atoms: C_18  and  O_20
REMARK    7  A    between atoms: C_23  and  C_24
REMARK    8  A    between atoms: C_24  and  O_26
REMARK                            x       y       z     vdW  Elec       q    Type
REMARK                         _______ _______ _______ _____ _____    ______ ____
ROOT
ATOM      1  C   UNL     1       2.333   3.618  19.145  0.00  0.00    +0.000 C 
ENDROOT
BRANCH   1   2
ATOM      2  N   UNL     1       2.414   3.997  17.716  0.00  0.00    +0.000 NA
ATOM      3  H   UNL     1       3.294   4.430  17.454  0.00  0.00    +0.000 HD
ATOM      4  H   UNL     1       1.632   4.598  17.456  0.00  0.00    +0.000 HD
ENDBRANCH   1   2
BRANCH   1   5
ATOM      5  C   UNL     1       3.017   2.245  19.303  0.00  0.00    +0.000 C 
ATOM      6  C   UNL     1       3.723   1.514  18.180  0.00  0.00    +0.000 C 
ATOM      7  C   UNL     1       4.531   2.041  19.344  0.00  0.00    +0.000 C 
BRANCH   7   8
ATOM      8  C   UNL     1       5.107   1.113  20.349  0.00  0.00    +0.000 C 
ATOM      9  O   UNL     1       5.268   1.419  21.520  0.00  0.00    +0.000 OA
BRANCH   8  10
ATOM     10  O   UNL     1       5.421  -0.102  19.845  0.00  0.00    +0.000 OA
ATOM     11  H   UNL     1       6.058  -0.591  20.395  0.00  0.00    +0.000 HD
ENDBRANCH   8  10
ENDBRANCH   7   8
ENDBRANCH   1   5
BRANCH   1  12
ATOM     12  C   UNL     1       0.842   3.493  19.598  0.00  0.00    +0.000 C 
ATOM     13  O   UNL     1       0.032   2.723  19.106  0.00  0.00    +0.000 OA
BRANCH  12  14
ATOM     14  O   UNL     1       0.495   4.365  20.579  0.00  0.00    +0.000 OA
ATOM     15  H   UNL     1      -0.462   4.344  20.758  0.00  0.00    +0.000 HD
ENDBRANCH  12  14
ENDBRANCH   1  12
BRANCH   1  16
ATOM     16  C   UNL     1       3.116   4.613  20.059  0.00  0.00    +0.000 C 
BRANCH  16  17
ATOM     17  C   UNL     1       3.797   5.896  19.499  0.00  0.00    +0.000 C 
ATOM     18  C   UNL     1       2.852   7.055  19.260  0.00  0.00    +0.000 A 
ATOM     19  C   UNL     1       1.976   7.507  20.260  0.00  0.00    +0.000 A 
ATOM     20  C   UNL     1       1.074   8.547  20.005  0.00  0.00    +0.000 A 
ATOM     21  C   UNL     1       1.045   9.160  18.757  0.00  0.00    +0.000 A 
ATOM     22  C   UNL     1       1.944   8.759  17.773  0.00  0.00    +0.000 A 
ATOM     23  C   UNL     1       2.847   7.720  18.031  0.00  0.00    +0.000 A 
ATOM     24  O   UNL     1       3.702   7.427  17.002  0.00  0.00    +0.000 OA
ATOM     25  C   UNL     1       4.662   6.470  17.196  0.00  0.00    +0.000 A 
ATOM     26  C   UNL     1       5.576   6.327  16.149  0.00  0.00    +0.000 A 
ATOM     27  C   UNL     1       6.571   5.356  16.215  0.00  0.00    +0.000 A 
ATOM     28  C   UNL     1       6.654   4.533  17.334  0.00  0.00    +0.000 A 
ATOM     29  C   UNL     1       5.759   4.697  18.395  0.00  0.00    +0.000 A 
ATOM     30  C   UNL     1       4.742   5.666  18.337  0.00  0.00    +0.000 A 
ENDBRANCH  16  17
ENDBRANCH   1  16
TORSDOF 8
ENDMDL
MODEL 8
REMARK VINA RESULT:      -6.6      1.287      4.693
REMARK  Name = 
REMARK  8 active torsions:
REMARK  status: ('A' for Active; 'I' for Inactive)
REMARK    1  A    between atoms: N_1  and  C_2
REMARK    2  A    between atoms: C_2  and  C_3
REMARK    3  A    between atoms: C_2  and  C_18
REMARK    4  A    between atoms: C_2  and  C_21
REMARK    5  A    between atoms: C_3  and  C_4
REMARK    6  A    between atoms: C_18  and  O_20
REMARK    7  A    between atoms: C_23  and  C_24
REMARK    8  A    between atoms: C_24  and  O_26
REMARK                            x       y       z     vdW  Elec       q    Type
REMARK                         _______ _______ _______ _____ _____    ______ ____
ROOT
ATOM      1  C   UNL     1       6.487   5.578  17.547  0.00  0.00    +0.000 C 
ENDROOT
BRANCH   1   2
ATOM      2  N   UNL     1       7.423   4.451  17.762  0.00  0.00    +0.000 NA
ATOM      3  H   UNL     1       6.987   3.537  17.693  0.00  0.00    +0.000 HD
ATOM      4  H   UNL     1       7.907   4.547  18.654  0.00  0.00    +0.000 HD
ENDBRANCH   1   2
BRANCH   1   5
ATOM      5  C   UNL     1       5.573   5.208  16.362  0.00  0.00    +0.000 C 
ATOM      6  C   UNL     1       4.986   6.217  15.397  0.00  0.00    +0.000 C 
ATOM      7  C   UNL     1       6.016   5.229  14.899  0.00  0.00    +0.000 C 
BRANCH   7   8
ATOM      8  C   UNL     1       5.623   4.107  14.010  0.00  0.00    +0.000 C 
ATOM      9  O   UNL     1       4.538   4.048  13.454  0.00  0.00    +0.000 OA
BRANCH   8  10
ATOM     10  O   UNL     1       6.586   3.168  13.869  0.00  0.00    +0.000 OA
ATOM     11  H   UNL     1       7.197   3.132  14.626  0.00  0.00    +0.000 HD
ENDBRANCH   8  10
ENDBRANCH   7   8
ENDBRANCH   1   5
BRANCH   1  12
ATOM     12  C   UNL     1       7.270   6.884  17.191  0.00  0.00    +0.000 C 
ATOM     13  O   UNL     1       8.177   6.945  16.375  0.00  0.00    +0.000 OA
BRANCH  12  14
ATOM     14  O   UNL     1       6.883   7.967  17.912  0.00  0.00    +0.000 OA
ATOM     15  H   UNL     1       6.214   8.495  17.440  0.00  0.00    +0.000 HD
ENDBRANCH  12  14
ENDBRANCH   1  12
BRANCH   1  16
ATOM     16  C   UNL     1       5.551   5.804  18.777  0.00  0.00    +0.000 C 
BRANCH  16  17
ATOM     17  C   UNL     1       4.023   5.512  18.723  0.00  0.00    +0.000 C 
ATOM     18  C   UNL     1       3.147   6.748  18.715  0.00  0.00    +0.000 A 
ATOM     19  C   UNL     1       3.357   7.791  17.798  0.00  0.00    +0.000 A 
ATOM     20  C   UNL     1       2.570   8.948  17.838  0.00  0.00    +0.000 A 
ATOM     21  C   UNL     1       1.554   9.073  18.780  0.00  0.00    +0.000 A 
ATOM     22  C   UNL     1       1.299   8.025  19.660  0.00  0.00    +0.000 A 
ATOM     23  C   UNL     1       2.087   6.867  19.616  0.00  0.00    +0.000 A 
ATOM     24  O   UNL     1       1.730   5.891  20.508  0.00  0.00    +0.000 OA
ATOM     25  C   UNL     1       2.405   4.700  20.485  0.00  0.00    +0.000 A 
ATOM     26  C   UNL     1       1.893   3.712  21.331  0.00  0.00    +0.000 A 
ATOM     27  C   UNL     1       2.522   2.474  21.424  0.00  0.00    +0.000 A 
ATOM     28  C   UNL     1       3.660   2.224  20.665  0.00  0.00    +0.000 A 
ATOM     29  C   UNL     1       4.155   3.201  19.796  0.00  0.00    +0.000 A 
ATOM     30  C   UNL     1       3.535   4.460  19.699  0.00  0.00    +0.000 A 
ENDBRANCH  16  17
ENDBRANCH   1  16
TORSDOF 8
ENDMDL
MODEL 9
REMARK VINA RESULT:      -6.5      5.864      8.873
REMARK  Name = 
REMARK  8 active torsions:
REMARK  status: ('A' for Active; 'I' for Inactive)
REMARK    1  A    between atoms: N_1  and  C_2
REMARK    2  A    between atoms: C_2  and  C_3
REMARK    3  A    between atoms: C_2  and  C_18
REMARK    4  A    between atoms: C_2  and  C_21
REMARK    5  A    between atoms: C_3  and  C_4
REMARK    6  A    between atoms: C_18  and  O_20
REMARK    7  A    between atoms: C_23  and  C_24
REMARK    8  A    between atoms: C_24  and  O_26
REMARK                            x       y       z     vdW  Elec       q    Type
REMARK                         _______ _______ _______ _____ _____    ______ ____
ROOT
ATOM      1  C   UNL     1       0.927  11.491  19.440  0.00  0.00    +0.000 C 
ENDROOT
BRANCH   1   2
ATOM      2  N   UNL     1       1.618  12.292  20.476  0.00  0.00    +0.000 NA
ATOM      3  H   UNL     1       2.608  12.083  20.565  0.00  0.00    +0.000 HD
ATOM      4  H   UNL     1       1.153  12.198  21.378  0.00  0.00    +0.000 HD
ENDBRANCH   1   2
BRANCH   1   5
ATOM      5  C   UNL     1       0.545  10.138  20.074  0.00  0.00    +0.000 C 
ATOM      6  C   UNL     1       1.549   9.108  20.544  0.00  0.00    +0.000 C 
ATOM      7  C   UNL     1       0.687   9.818  21.562  0.00  0.00    +0.000 C 
BRANCH   7   8
ATOM      8  C   UNL     1      -0.414   9.103  22.255  0.00  0.00    +0.000 C 
ATOM      9  O   UNL     1      -0.850   8.028  21.876  0.00  0.00    +0.000 OA
BRANCH   8  10
ATOM     10  O   UNL     1      -0.873   9.751  23.349  0.00  0.00    +0.000 OA
ATOM     11  H   UNL     1      -1.763  10.127  23.225  0.00  0.00    +0.000 HD
ENDBRANCH   8  10
ENDBRANCH   7   8
ENDBRANCH   1   5
BRANCH   1  12
ATOM     12  C   UNL     1       1.874  11.227  18.225  0.00  0.00    +0.000 C 
ATOM     13  O   UNL     1       2.818  11.939  17.917  0.00  0.00    +0.000 OA
BRANCH  12  14
ATOM     14  O   UNL     1       1.529  10.140  17.490  0.00  0.00    +0.000 OA
ATOM     15  H   UNL     1       0.793   9.647  17.897  0.00  0.00    +0.000 HD
ENDBRANCH  12  14
ENDBRANCH   1  12
BRANCH   1  16
ATOM     16  C   UNL     1      -0.407  12.158  18.977  0.00  0.00    +0.000 C 
BRANCH  16  17
ATOM     17  C   UNL     1      -1.795  11.496  19.219  0.00  0.00    +0.000 C 
ATOM     18  C   UNL     1      -2.549  11.139  17.954  0.00  0.00    +0.000 A 
ATOM     19  C   UNL     1      -1.953  10.385  16.931  0.00  0.00    +0.000 A 
ATOM     20  C   UNL     1      -2.647  10.107  15.748  0.00  0.00    +0.000 A 
ATOM     21  C   UNL     1      -3.950  10.563  15.577  0.00  0.00    +0.000 A 
ATOM     22  C   UNL     1      -4.574  11.266  16.605  0.00  0.00    +0.000 A 
ATOM     23  C   UNL     1      -3.877  11.540  17.788  0.00  0.00    +0.000 A 
ATOM     24  O   UNL     1      -4.596  12.213  18.740  0.00  0.00    +0.000 OA
ATOM     25  C   UNL     1      -4.011  12.461  19.953  0.00  0.00    +0.000 A 
ATOM     26  C   UNL     1      -4.854  13.029  20.912  0.00  0.00    +0.000 A 
ATOM     27  C   UNL     1      -4.359  13.365  22.169  0.00  0.00    +0.000 A 
ATOM     28  C   UNL     1      -3.022  13.125  22.467  0.00  0.00    +0.000 A 
ATOM     29  C   UNL     1      -2.187  12.528  21.518  0.00  0.00    +0.000 A 
ATOM     30  C   UNL     1      -2.670  12.193  20.241  0.00  0.00    +0.000 A 
ENDBRANCH  16  17
ENDBRANCH   1  16
TORSDOF 8
ENDMDL
