MODEL 1
REMARK VINA RESULT:      -8.7      0.000      0.000
REMARK  Name = 
REMARK  8 active torsions:
REMARK  status: ('A' for Active; 'I' for Inactive)
REMARK    1  A    between atoms: C_1  and  O_2
REMARK    2  A    between atoms: O_2  and  C_3
REMARK    3  A    between atoms: C_3  and  C_5
REMARK    4  A    between atoms: C_5  and  N_6
REMARK    5  A    between atoms: C_5  and  C_26
REMARK    6  A    between atoms: C_7  and  C_9
REMARK    7  A    between atoms: C_11  and  C_12
REMARK    8  A    between atoms: C_17  and  C_18
REMARK                            x       y       z     vdW  Elec       q    Type
REMARK                         _______ _______ _______ _____ _____    ______ ____
ROOT
ATOM      1  C   UNL     1       2.897   6.578  18.918  0.00  0.00    +0.000 A 
ATOM      2  C   UNL     1       2.277   7.703  19.474  0.00  0.00    +0.000 A 
ATOM      3  C   UNL     1       1.294   7.534  20.437  0.00  0.00    +0.000 A 
ATOM      4  N   UNL     1       0.912   6.295  20.813  0.00  0.00    +0.000 NA
ATOM      5  C   UNL     1       1.490   5.207  20.283  0.00  0.00    +0.000 A 
ATOM      6  C   UNL     1       1.083   3.966  20.752  0.00  0.00    +0.000 A 
ATOM      7  C   UNL     1       1.633   2.777  20.275  0.00  0.00    +0.000 A 
ATOM      8  C   UNL     1       2.614   2.823  19.297  0.00  0.00    +0.000 A 
ATOM      9  C   UNL     1       3.049   4.059  18.818  0.00  0.00    +0.000 A 
ATOM     10  C   UNL     1       2.503   5.275  19.305  0.00  0.00    +0.000 A 
ENDROOT
BRANCH   3  11
ATOM     11  C   UNL     1       0.644   8.680  21.133  0.00  0.00    +0.000 A 
ATOM     12  C   UNL     1       0.528   8.670  22.543  0.00  0.00    +0.000 A 
ATOM     13  C   UNL     1      -0.114   9.693  23.248  0.00  0.00    +0.000 A 
ATOM     14  C   UNL     1      -0.646  10.774  22.563  0.00  0.00    +0.000 A 
ATOM     15  C   UNL     1      -0.537  10.830  21.178  0.00  0.00    +0.000 A 
ATOM     16  C   UNL     1       0.093   9.799  20.450  0.00  0.00    +0.000 A 
ATOM     17  C   UNL     1       0.135   9.941  18.949  0.00  0.00    +0.000 C 
ENDBRANCH   3  11
BRANCH   1  19
ATOM     18  N   UNL     1       5.193   6.161  18.270  0.00  0.00    +0.000 N 
ATOM     19  C   UNL     1       4.015   6.801  17.955  0.00  0.00    +0.000 C 
ATOM     20  O   UNL     1       3.886   7.494  16.957  0.00  0.00    +0.000 OA
ATOM     21  H   UNL     1       5.288   5.654  19.138  0.00  0.00    +0.000 HD
BRANCH  18  22
ATOM     22  C   UNL     1       6.394   6.313  17.455  0.00  0.00    +0.000 C 
BRANCH  22  23
ATOM     23  C   UNL     1       6.308   5.383  16.255  0.00  0.00    +0.000 A 
ATOM     24  C   UNL     1       7.088   5.608  15.106  0.00  0.00    +0.000 A 
ATOM     25  C   UNL     1       6.996   4.757  14.004  0.00  0.00    +0.000 A 
ATOM     26  C   UNL     1       6.126   3.671  14.036  0.00  0.00    +0.000 A 
ATOM     27  C   UNL     1       5.360   3.425  15.173  0.00  0.00    +0.000 A 
ATOM     28  C   UNL     1       5.452   4.273  16.280  0.00  0.00    +0.000 A 
ENDBRANCH  22  23
BRANCH  22  29
ATOM     29  C   UNL     1       7.650   6.018  18.298  0.00  0.00    +0.000 C 
ATOM     30  O   UNL     1       8.073   4.894  18.555  0.00  0.00    +0.000 OA
BRANCH  29  32
ATOM     31  C   UNL     1       7.992   8.284  17.791  0.00  0.00    +0.000 C 
ATOM     32  O   UNL     1       8.266   7.184  18.659  0.00  0.00    +0.000 OA
ENDBRANCH  29  32
ENDBRANCH  22  29
ENDBRANCH  18  22
ENDBRANCH   1  19
TORSDOF 6
ENDMDL
MODEL 2
REMARK VINA RESULT:      -8.5      0.544      1.023
REMARK  Name = 
REMARK  8 active torsions:
REMARK  status: ('A' for Active; 'I' for Inactive)
REMARK    1  A    between atoms: C_1  and  O_2
REMARK    2  A    between atoms: O_2  and  C_3
REMARK    3  A    between atoms: C_3  and  C_5
REMARK    4  A    between atoms: C_5  and  N_6
REMARK    5  A    between atoms: C_5  and  C_26
REMARK    6  A    between atoms: C_7  and  C_9
REMARK    7  A    between atoms: C_11  and  C_12
REMARK    8  A    between atoms: C_17  and  C_18
REMARK                            x       y       z     vdW  Elec       q    Type
REMARK                         _______ _______ _______ _____ _____    ______ ____
ROOT
ATOM      1  C   UNL     1       3.126   6.341  18.753  0.00  0.00    +0.000 A 
ATOM      2  C   UNL     1       2.532   7.501  19.265  0.00  0.00    +0.000 A 
ATOM      3  C   UNL     1       1.528   7.391  20.215  0.00  0.00    +0.000 A 
ATOM      4  N   UNL     1       1.100   6.176  20.618  0.00  0.00    +0.000 NA
ATOM      5  C   UNL     1       1.652   5.056  20.130  0.00  0.00    +0.000 A 
ATOM      6  C   UNL     1       1.197   3.843  20.627  0.00  0.00    +0.000 A 
ATOM      7  C   UNL     1       1.717   2.623  20.194  0.00  0.00    +0.000 A 
ATOM      8  C   UNL     1       2.716   2.610  19.233  0.00  0.00    +0.000 A 
ATOM      9  C   UNL     1       3.198   3.817  18.727  0.00  0.00    +0.000 A 
ATOM     10  C   UNL     1       2.683   5.063  19.170  0.00  0.00    +0.000 A 
ENDROOT
BRANCH   3  11
ATOM     11  C   UNL     1       0.904   8.577  20.866  0.00  0.00    +0.000 A 
ATOM     12  C   UNL     1       0.751   8.606  22.272  0.00  0.00    +0.000 A 
ATOM     13  C   UNL     1       0.129   9.668  22.935  0.00  0.00    +0.000 A 
ATOM     14  C   UNL     1      -0.345  10.752  22.211  0.00  0.00    +0.000 A 
ATOM     15  C   UNL     1      -0.197  10.770  20.828  0.00  0.00    +0.000 A 
ATOM     16  C   UNL     1       0.413   9.698  20.142  0.00  0.00    +0.000 A 
ATOM     17  C   UNL     1       0.499   9.802  18.640  0.00  0.00    +0.000 C 
ENDBRANCH   3  11
BRANCH   1  19
ATOM     18  N   UNL     1       5.371   5.730  18.086  0.00  0.00    +0.000 N 
ATOM     19  C   UNL     1       4.267   6.501  17.804  0.00  0.00    +0.000 C 
ATOM     20  O   UNL     1       4.214   7.255  16.844  0.00  0.00    +0.000 OA
ATOM     21  H   UNL     1       5.410   5.171  18.926  0.00  0.00    +0.000 HD
BRANCH  18  22
ATOM     22  C   UNL     1       6.587   5.802  17.281  0.00  0.00    +0.000 C 
BRANCH  22  23
ATOM     23  C   UNL     1       6.364   5.073  15.967  0.00  0.00    +0.000 A 
ATOM     24  C   UNL     1       5.382   4.072  15.850  0.00  0.00    +0.000 A 
ATOM     25  C   UNL     1       5.190   3.399  14.643  0.00  0.00    +0.000 A 
ATOM     26  C   UNL     1       5.975   3.717  13.538  0.00  0.00    +0.000 A 
ATOM     27  C   UNL     1       6.939   4.717  13.633  0.00  0.00    +0.000 A 
ATOM     28  C   UNL     1       7.132   5.396  14.839  0.00  0.00    +0.000 A 
ENDBRANCH  22  23
BRANCH  22  29
ATOM     29  C   UNL     1       7.775   5.201  18.057  0.00  0.00    +0.000 C 
ATOM     30  O   UNL     1       8.300   4.119  17.806  0.00  0.00    +0.000 OA
BRANCH  29  32
ATOM     31  C   UNL     1       8.250   7.436  18.594  0.00  0.00    +0.000 C 
ATOM     32  O   UNL     1       8.209   6.073  19.017  0.00  0.00    +0.000 OA
ENDBRANCH  29  32
ENDBRANCH  22  29
ENDBRANCH  18  22
ENDBRANCH   1  19
TORSDOF 6
ENDMDL
MODEL 3
REMARK VINA RESULT:      -8.5      3.119      5.686
REMARK  Name = 
REMARK  8 active torsions:
REMARK  status: ('A' for Active; 'I' for Inactive)
REMARK    1  A    between atoms: C_1  and  O_2
REMARK    2  A    between atoms: O_2  and  C_3
REMARK    3  A    between atoms: C_3  and  C_5
REMARK    4  A    between atoms: C_5  and  N_6
REMARK    5  A    between atoms: C_5  and  C_26
REMARK    6  A    between atoms: C_7  and  C_9
REMARK    7  A    between atoms: C_11  and  C_12
REMARK    8  A    between atoms: C_17  and  C_18
REMARK                            x       y       z     vdW  Elec       q    Type
REMARK                         _______ _______ _______ _____ _____    ______ ____
ROOT
ATOM      1  C   UNL     1       1.226   9.906  19.090  0.00  0.00    +0.000 A 
ATOM      2  C   UNL     1       1.629  11.149  18.586  0.00  0.00    +0.000 A 
ATOM      3  C   UNL     1       1.473  12.284  19.367  0.00  0.00    +0.000 A 
ATOM      4  N   UNL     1       0.906  12.200  20.589  0.00  0.00    +0.000 NA
ATOM      5  C   UNL     1       0.508  11.019  21.082  0.00  0.00    +0.000 A 
ATOM      6  C   UNL     1      -0.021  10.999  22.364  0.00  0.00    +0.000 A 
ATOM      7  C   UNL     1      -0.450   9.819  22.972  0.00  0.00    +0.000 A 
ATOM      8  C   UNL     1      -0.357   8.622  22.278  0.00  0.00    +0.000 A 
ATOM      9  C   UNL     1       0.181   8.614  20.991  0.00  0.00    +0.000 A 
ATOM     10  C   UNL     1       0.631   9.809  20.370  0.00  0.00    +0.000 A 
ENDROOT
BRANCH   3  11
ATOM     11  C   UNL     1       1.948  13.629  18.935  0.00  0.00    +0.000 A 
ATOM     12  C   UNL     1       3.304  13.810  18.573  0.00  0.00    +0.000 A 
ATOM     13  C   UNL     1       3.819  15.058  18.207  0.00  0.00    +0.000 A 
ATOM     14  C   UNL     1       2.986  16.165  18.170  0.00  0.00    +0.000 A 
ATOM     15  C   UNL     1       1.643  16.024  18.501  0.00  0.00    +0.000 A 
ATOM     16  C   UNL     1       1.111  14.777  18.889  0.00  0.00    +0.000 A 
ATOM     17  C   UNL     1      -0.352  14.736  19.254  0.00  0.00    +0.000 C 
ENDBRANCH   3  11
BRANCH   1  19
ATOM     18  N   UNL     1       2.393   7.804  18.805  0.00  0.00    +0.000 N 
ATOM     19  C   UNL     1       1.497   8.696  18.260  0.00  0.00    +0.000 C 
ATOM     20  O   UNL     1       0.953   8.510  17.182  0.00  0.00    +0.000 OA
ATOM     21  H   UNL     1       2.879   8.020  19.663  0.00  0.00    +0.000 HD
BRANCH  18  22
ATOM     22  C   UNL     1       2.799   6.592  18.100  0.00  0.00    +0.000 C 
BRANCH  22  23
ATOM     23  C   UNL     1       2.134   5.388  18.746  0.00  0.00    +0.000 A 
ATOM     24  C   UNL     1       1.774   4.261  17.983  0.00  0.00    +0.000 A 
ATOM     25  C   UNL     1       1.154   3.164  18.581  0.00  0.00    +0.000 A 
ATOM     26  C   UNL     1       0.887   3.176  19.947  0.00  0.00    +0.000 A 
ATOM     27  C   UNL     1       1.253   4.276  20.718  0.00  0.00    +0.000 A 
ATOM     28  C   UNL     1       1.877   5.376  20.125  0.00  0.00    +0.000 A 
ENDBRANCH  22  23
BRANCH  22  29
ATOM     29  C   UNL     1       4.335   6.456  18.117  0.00  0.00    +0.000 C 
ATOM     30  O   UNL     1       4.971   5.818  18.952  0.00  0.00    +0.000 OA
BRANCH  29  32
ATOM     31  C   UNL     1       5.313   6.198  15.999  0.00  0.00    +0.000 C 
ATOM     32  O   UNL     1       4.881   7.084  17.032  0.00  0.00    +0.000 OA
ENDBRANCH  29  32
ENDBRANCH  22  29
ENDBRANCH  18  22
ENDBRANCH   1  19
TORSDOF 6
ENDMDL
MODEL 4
REMARK VINA RESULT:      -8.4      3.137      5.691
REMARK  Name = 
REMARK  8 active torsions:
REMARK  status: ('A' for Active; 'I' for Inactive)
REMARK    1  A    between atoms: C_1  and  O_2
REMARK    2  A    between atoms: O_2  and  C_3
REMARK    3  A    between atoms: C_3  and  C_5
REMARK    4  A    between atoms: C_5  and  N_6
REMARK    5  A    between atoms: C_5  and  C_26
REMARK    6  A    between atoms: C_7  and  C_9
REMARK    7  A    between atoms: C_11  and  C_12
REMARK    8  A    between atoms: C_17  and  C_18
REMARK                            x       y       z     vdW  Elec       q    Type
REMARK                         _______ _______ _______ _____ _____    ______ ____
ROOT
ATOM      1  C   UNL     1       1.256   9.936  19.063  0.00  0.00    +0.000 A 
ATOM      2  C   UNL     1       1.641  11.197  18.592  0.00  0.00    +0.000 A 
ATOM      3  C   UNL     1       1.446  12.313  19.392  0.00  0.00    +0.000 A 
ATOM      4  N   UNL     1       0.859  12.193  20.601  0.00  0.00    +0.000 NA
ATOM      5  C   UNL     1       0.477  10.994  21.063  0.00  0.00    +0.000 A 
ATOM      6  C   UNL     1      -0.074  10.937  22.335  0.00  0.00    +0.000 A 
ATOM      7  C   UNL     1      -0.490   9.737  22.911  0.00  0.00    +0.000 A 
ATOM      8  C   UNL     1      -0.359   8.556  22.196  0.00  0.00    +0.000 A 
ATOM      9  C   UNL     1       0.203   8.585  20.919  0.00  0.00    +0.000 A 
ATOM     10  C   UNL     1       0.639   9.801  20.330  0.00  0.00    +0.000 A 
ENDROOT
BRANCH   3  11
ATOM     11  C   UNL     1       1.901  13.675  18.995  0.00  0.00    +0.000 A 
ATOM     12  C   UNL     1       3.256  13.889  18.647  0.00  0.00    +0.000 A 
ATOM     13  C   UNL     1       3.752  15.154  18.314  0.00  0.00    +0.000 A 
ATOM     14  C   UNL     1       2.900  16.247  18.298  0.00  0.00    +0.000 A 
ATOM     15  C   UNL     1       1.557  16.075  18.616  0.00  0.00    +0.000 A 
ATOM     16  C   UNL     1       1.044  14.810  18.971  0.00  0.00    +0.000 A 
ATOM     17  C   UNL     1      -0.420  14.735  19.325  0.00  0.00    +0.000 C 
ENDBRANCH   3  11
BRANCH   1  19
ATOM     18  N   UNL     1       2.365   7.799  18.813  0.00  0.00    +0.000 N 
ATOM     19  C   UNL     1       1.567   8.749  18.215  0.00  0.00    +0.000 C 
ATOM     20  O   UNL     1       1.135   8.629  17.079  0.00  0.00    +0.000 OA
ATOM     21  H   UNL     1       2.763   7.960  19.726  0.00  0.00    +0.000 HD
BRANCH  18  22
ATOM     22  C   UNL     1       2.797   6.599  18.103  0.00  0.00    +0.000 C 
BRANCH  22  23
ATOM     23  C   UNL     1       2.142   5.380  18.730  0.00  0.00    +0.000 A 
ATOM     24  C   UNL     1       1.819   5.353  20.100  0.00  0.00    +0.000 A 
ATOM     25  C   UNL     1       1.228   4.226  20.671  0.00  0.00    +0.000 A 
ATOM     26  C   UNL     1       0.949   3.113  19.883  0.00  0.00    +0.000 A 
ATOM     27  C   UNL     1       1.247   3.130  18.523  0.00  0.00    +0.000 A 
ATOM     28  C   UNL     1       1.835   4.258  17.946  0.00  0.00    +0.000 A 
ENDBRANCH  22  23
BRANCH  22  29
ATOM     29  C   UNL     1       4.334   6.485  18.138  0.00  0.00    +0.000 C 
ATOM     30  O   UNL     1       5.094   7.026  17.338  0.00  0.00    +0.000 OA
BRANCH  29  32
ATOM     31  C   UNL     1       5.829   4.878  18.968  0.00  0.00    +0.000 C 
ATOM     32  O   UNL     1       4.734   5.758  19.224  0.00  0.00    +0.000 OA
ENDBRANCH  29  32
ENDBRANCH  22  29
ENDBRANCH  18  22
ENDBRANCH   1  19
TORSDOF 6
ENDMDL
MODEL 5
REMARK VINA RESULT:      -8.3      3.964      9.380
REMARK  Name = 
REMARK  8 active torsions:
REMARK  status: ('A' for Active; 'I' for Inactive)
REMARK    1  A    between atoms: C_1  and  O_2
REMARK    2  A    between atoms: O_2  and  C_3
REMARK    3  A    between atoms: C_3  and  C_5
REMARK    4  A    between atoms: C_5  and  N_6
REMARK    5  A    between atoms: C_5  and  C_26
REMARK    6  A    between atoms: C_7  and  C_9
REMARK    7  A    between atoms: C_11  and  C_12
REMARK    8  A    between atoms: C_17  and  C_18
REMARK                            x       y       z     vdW  Elec       q    Type
REMARK                         _______ _______ _______ _____ _____    ______ ____
ROOT
ATOM      1  C   UNL     1       0.061  10.158  19.232  0.00  0.00    +0.000 A 
ATOM      2  C   UNL     1       0.958   9.267  18.631  0.00  0.00    +0.000 A 
ATOM      3  C   UNL     1       1.672   8.380  19.422  0.00  0.00    +0.000 A 
ATOM      4  N   UNL     1       1.530   8.396  20.764  0.00  0.00    +0.000 NA
ATOM      5  C   UNL     1       0.682   9.249  21.356  0.00  0.00    +0.000 A 
ATOM      6  C   UNL     1       0.550   9.176  22.735  0.00  0.00    +0.000 A 
ATOM      7  C   UNL     1      -0.317  10.010  23.442  0.00  0.00    +0.000 A 
ATOM      8  C   UNL     1      -1.070  10.950  22.756  0.00  0.00    +0.000 A 
ATOM      9  C   UNL     1      -0.963  11.034  21.367  0.00  0.00    +0.000 A 
ATOM     10  C   UNL     1      -0.093  10.182  20.639  0.00  0.00    +0.000 A 
ENDROOT
BRANCH   3  11
ATOM     11  C   UNL     1       2.584   7.349  18.852  0.00  0.00    +0.000 A 
ATOM     12  C   UNL     1       3.423   7.680  17.762  0.00  0.00    +0.000 A 
ATOM     13  C   UNL     1       4.264   6.742  17.154  0.00  0.00    +0.000 A 
ATOM     14  C   UNL     1       4.308   5.442  17.632  0.00  0.00    +0.000 A 
ATOM     15  C   UNL     1       3.511   5.081  18.713  0.00  0.00    +0.000 A 
ATOM     16  C   UNL     1       2.645   6.010  19.327  0.00  0.00    +0.000 A 
ATOM     17  C   UNL     1       1.803   5.511  20.475  0.00  0.00    +0.000 C 
ENDBRANCH   3  11
BRANCH   1  19
ATOM     18  N   UNL     1      -1.903  10.451  17.848  0.00  0.00    +0.000 N 
ATOM     19  C   UNL     1      -0.757  11.032  18.341  0.00  0.00    +0.000 C 
ATOM     20  O   UNL     1      -0.434  12.181  18.081  0.00  0.00    +0.000 OA
ATOM     21  H   UNL     1      -2.105   9.478  18.024  0.00  0.00    +0.000 HD
BRANCH  18  22
ATOM     22  C   UNL     1      -2.790  11.156  16.928  0.00  0.00    +0.000 C 
BRANCH  22  23
ATOM     23  C   UNL     1      -3.995  11.679  17.692  0.00  0.00    +0.000 A 
ATOM     24  C   UNL     1      -3.923  11.936  19.074  0.00  0.00    +0.000 A 
ATOM     25  C   UNL     1      -5.036  12.406  19.771  0.00  0.00    +0.000 A 
ATOM     26  C   UNL     1      -6.235  12.626  19.098  0.00  0.00    +0.000 A 
ATOM     27  C   UNL     1      -6.317  12.393  17.728  0.00  0.00    +0.000 A 
ATOM     28  C   UNL     1      -5.204  11.926  17.025  0.00  0.00    +0.000 A 
ENDBRANCH  22  23
BRANCH  22  29
ATOM     29  C   UNL     1      -3.221  10.220  15.782  0.00  0.00    +0.000 C 
ATOM     30  O   UNL     1      -3.564   9.049  15.926  0.00  0.00    +0.000 OA
BRANCH  29  32
ATOM     31  C   UNL     1      -3.580  10.090  13.466  0.00  0.00    +0.000 C 
ATOM     32  O   UNL     1      -3.237  10.896  14.594  0.00  0.00    +0.000 OA
ENDBRANCH  29  32
ENDBRANCH  22  29
ENDBRANCH  18  22
ENDBRANCH   1  19
TORSDOF 6
ENDMDL
MODEL 6
REMARK VINA RESULT:      -8.2      0.564      1.284
REMARK  Name = 
REMARK  8 active torsions:
REMARK  status: ('A' for Active; 'I' for Inactive)
REMARK    1  A    between atoms: C_1  and  O_2
REMARK    2  A    between atoms: O_2  and  C_3
REMARK    3  A    between atoms: C_3  and  C_5
REMARK    4  A    between atoms: C_5  and  N_6
REMARK    5  A    between atoms: C_5  and  C_26
REMARK    6  A    between atoms: C_7  and  C_9
REMARK    7  A    between atoms: C_11  and  C_12
REMARK    8  A    between atoms: C_17  and  C_18
REMARK                            x       y       z     vdW  Elec       q    Type
REMARK                         _______ _______ _______ _____ _____    ______ ____
ROOT
ATOM      1  C   UNL     1       2.753   6.876  18.769  0.00  0.00    +0.000 A 
ATOM      2  C   UNL     1       2.094   7.966  19.353  0.00  0.00    +0.000 A 
ATOM      3  C   UNL     1       1.246   7.752  20.429  0.00  0.00    +0.000 A 
ATOM      4  N   UNL     1       1.029   6.503  20.891  0.00  0.00    +0.000 NA
ATOM      5  C   UNL     1       1.646   5.449  20.337  0.00  0.00    +0.000 A 
ATOM      6  C   UNL     1       1.415   4.200  20.894  0.00  0.00    +0.000 A 
ATOM      7  C   UNL     1       2.019   3.044  20.400  0.00  0.00    +0.000 A 
ATOM      8  C   UNL     1       2.875   3.133  19.313  0.00  0.00    +0.000 A 
ATOM      9  C   UNL     1       3.133   4.380  18.743  0.00  0.00    +0.000 A 
ATOM     10  C   UNL     1       2.531   5.563  19.246  0.00  0.00    +0.000 A 
ENDROOT
BRANCH   3  11
ATOM     11  C   UNL     1       0.572   8.866  21.154  0.00  0.00    +0.000 A 
ATOM     12  C   UNL     1       0.501   8.842  22.567  0.00  0.00    +0.000 A 
ATOM     13  C   UNL     1      -0.160   9.833  23.300  0.00  0.00    +0.000 A 
ATOM     14  C   UNL     1      -0.758  10.896  22.640  0.00  0.00    +0.000 A 
ATOM     15  C   UNL     1      -0.695  10.965  21.253  0.00  0.00    +0.000 A 
ATOM     16  C   UNL     1      -0.046   9.966  20.498  0.00  0.00    +0.000 A 
ATOM     17  C   UNL     1      -0.058  10.119  18.997  0.00  0.00    +0.000 C 
ENDBRANCH   3  11
BRANCH   1  19
ATOM     18  N   UNL     1       4.983   6.620  17.863  0.00  0.00    +0.000 N 
ATOM     19  C   UNL     1       3.729   7.156  17.675  0.00  0.00    +0.000 C 
ATOM     20  O   UNL     1       3.428   7.803  16.684  0.00  0.00    +0.000 OA
ATOM     21  H   UNL     1       5.220   6.151  18.724  0.00  0.00    +0.000 HD
BRANCH  18  22
ATOM     22  C   UNL     1       6.064   6.839  16.907  0.00  0.00    +0.000 C 
BRANCH  22  23
ATOM     23  C   UNL     1       6.078   5.705  15.895  0.00  0.00    +0.000 A 
ATOM     24  C   UNL     1       5.224   4.595  16.037  0.00  0.00    +0.000 A 
ATOM     25  C   UNL     1       5.251   3.553  15.109  0.00  0.00    +0.000 A 
ATOM     26  C   UNL     1       6.127   3.606  14.030  0.00  0.00    +0.000 A 
ATOM     27  C   UNL     1       6.966   4.705  13.866  0.00  0.00    +0.000 A 
ATOM     28  C   UNL     1       6.941   5.753  14.790  0.00  0.00    +0.000 A 
ENDBRANCH  22  23
BRANCH  22  29
ATOM     29  C   UNL     1       7.414   6.943  17.645  0.00  0.00    +0.000 C 
ATOM     30  O   UNL     1       8.040   7.986  17.815  0.00  0.00    +0.000 OA
BRANCH  29  32
ATOM     31  C   UNL     1       7.938   5.699  19.566  0.00  0.00    +0.000 C 
ATOM     32  O   UNL     1       7.778   5.725  18.147  0.00  0.00    +0.000 OA
ENDBRANCH  29  32
ENDBRANCH  22  29
ENDBRANCH  18  22
ENDBRANCH   1  19
TORSDOF 6
ENDMDL
MODEL 7
REMARK VINA RESULT:      -8.0      2.116      8.309
REMARK  Name = 
REMARK  8 active torsions:
REMARK  status: ('A' for Active; 'I' for Inactive)
REMARK    1  A    between atoms: C_1  and  O_2
REMARK    2  A    between atoms: O_2  and  C_3
REMARK    3  A    between atoms: C_3  and  C_5
REMARK    4  A    between atoms: C_5  and  N_6
REMARK    5  A    between atoms: C_5  and  C_26
REMARK    6  A    between atoms: C_7  and  C_9
REMARK    7  A    between atoms: C_11  and  C_12
REMARK    8  A    between atoms: C_17  and  C_18
REMARK                            x       y       z     vdW  Elec       q    Type
REMARK                         _______ _______ _______ _____ _____    ______ ____
ROOT
ATOM      1  C   UNL     1       2.969   7.354  18.176  0.00  0.00    +0.000 A 
ATOM      2  C   UNL     1       3.881   7.041  17.161  0.00  0.00    +0.000 A 
ATOM      3  C   UNL     1       4.405   5.759  17.086  0.00  0.00    +0.000 A 
ATOM      4  N   UNL     1       4.066   4.828  18.003  0.00  0.00    +0.000 NA
ATOM      5  C   UNL     1       3.201   5.115  18.986  0.00  0.00    +0.000 A 
ATOM      6  C   UNL     1       2.861   4.096  19.864  0.00  0.00    +0.000 A 
ATOM      7  C   UNL     1       1.959   4.289  20.911  0.00  0.00    +0.000 A 
ATOM      8  C   UNL     1       1.384   5.538  21.094  0.00  0.00    +0.000 A 
ATOM      9  C   UNL     1       1.702   6.575  20.217  0.00  0.00    +0.000 A 
ATOM     10  C   UNL     1       2.609   6.384  19.142  0.00  0.00    +0.000 A 
ENDROOT
BRANCH   3  11
ATOM     11  C   UNL     1       5.317   5.326  15.990  0.00  0.00    +0.000 A 
ATOM     12  C   UNL     1       4.806   4.567  14.911  0.00  0.00    +0.000 A 
ATOM     13  C   UNL     1       5.622   4.091  13.879  0.00  0.00    +0.000 A 
ATOM     14  C   UNL     1       6.978   4.378  13.883  0.00  0.00    +0.000 A 
ATOM     15  C   UNL     1       7.516   5.138  14.917  0.00  0.00    +0.000 A 
ATOM     16  C   UNL     1       6.710   5.611  15.974  0.00  0.00    +0.000 A 
ATOM     17  C   UNL     1       7.395   6.402  17.061  0.00  0.00    +0.000 C 
ENDBRANCH   3  11
BRANCH   1  19
ATOM     18  N   UNL     1       1.395   8.926  19.132  0.00  0.00    +0.000 N 
ATOM     19  C   UNL     1       2.356   8.714  18.169  0.00  0.00    +0.000 C 
ATOM     20  O   UNL     1       2.693   9.576  17.371  0.00  0.00    +0.000 OA
ATOM     21  H   UNL     1       1.089   8.172  19.729  0.00  0.00    +0.000 HD
BRANCH  18  22
ATOM     22  C   UNL     1       0.668  10.187  19.231  0.00  0.00    +0.000 C 
BRANCH  22  23
ATOM     23  C   UNL     1       0.109  10.337  20.636  0.00  0.00    +0.000 A 
ATOM     24  C   UNL     1      -0.076   9.216  21.466  0.00  0.00    +0.000 A 
ATOM     25  C   UNL     1      -0.600   9.360  22.751  0.00  0.00    +0.000 A 
ATOM     26  C   UNL     1      -0.945  10.623  23.224  0.00  0.00    +0.000 A 
ATOM     27  C   UNL     1      -0.752  11.744  22.420  0.00  0.00    +0.000 A 
ATOM     28  C   UNL     1      -0.224  11.605  21.134  0.00  0.00    +0.000 A 
ENDBRANCH  22  23
BRANCH  22  29
ATOM     29  C   UNL     1      -0.455  10.238  18.176  0.00  0.00    +0.000 C 
ATOM     30  O   UNL     1      -0.867   9.268  17.545  0.00  0.00    +0.000 OA
BRANCH  29  32
ATOM     31  C   UNL     1      -2.373  11.539  17.803  0.00  0.00    +0.000 C 
ATOM     32  O   UNL     1      -0.975  11.500  18.094  0.00  0.00    +0.000 OA
ENDBRANCH  29  32
ENDBRANCH  22  29
ENDBRANCH  18  22
ENDBRANCH   1  19
TORSDOF 6
ENDMDL
MODEL 8
REMARK VINA RESULT:      -7.9      3.049      5.599
REMARK  Name = 
REMARK  8 active torsions:
REMARK  status: ('A' for Active; 'I' for Inactive)
REMARK    1  A    between atoms: C_1  and  O_2
REMARK    2  A    between atoms: O_2  and  C_3
REMARK    3  A    between atoms: C_3  and  C_5
REMARK    4  A    between atoms: C_5  and  N_6
REMARK    5  A    between atoms: C_5  and  C_26
REMARK    6  A    between atoms: C_7  and  C_9
REMARK    7  A    between atoms: C_11  and  C_12
REMARK    8  A    between atoms: C_17  and  C_18
REMARK                            x       y       z     vdW  Elec       q    Type
REMARK                         _______ _______ _______ _____ _____    ______ ____
ROOT
ATOM      1  C   UNL     1       1.297  10.019  19.126  0.00  0.00    +0.000 A 
ATOM      2  C   UNL     1       1.412  11.334  18.659  0.00  0.00    +0.000 A 
ATOM      3  C   UNL     1       0.985  12.381  19.462  0.00  0.00    +0.000 A 
ATOM      4  N   UNL     1       0.433  12.136  20.669  0.00  0.00    +0.000 NA
ATOM      5  C   UNL     1       0.308  10.881  21.125  0.00  0.00    +0.000 A 
ATOM      6  C   UNL     1      -0.223  10.706  22.395  0.00  0.00    +0.000 A 
ATOM      7  C   UNL     1      -0.380   9.442  22.965  0.00  0.00    +0.000 A 
ATOM      8  C   UNL     1      -0.002   8.318  22.247  0.00  0.00    +0.000 A 
ATOM      9  C   UNL     1       0.545   8.470  20.972  0.00  0.00    +0.000 A 
ATOM     10  C   UNL     1       0.719   9.752  20.389  0.00  0.00    +0.000 A 
ENDROOT
BRANCH   3  11
ATOM     11  C   UNL     1       1.146  13.810  19.072  0.00  0.00    +0.000 A 
ATOM     12  C   UNL     1       0.027  14.676  19.103  0.00  0.00    +0.000 A 
ATOM     13  C   UNL     1       0.105  16.013  18.701  0.00  0.00    +0.000 A 
ATOM     14  C   UNL     1       1.315  16.536  18.274  0.00  0.00    +0.000 A 
ATOM     15  C   UNL     1       2.443  15.723  18.247  0.00  0.00    +0.000 A 
ATOM     16  C   UNL     1       2.378  14.367  18.632  0.00  0.00    +0.000 A 
ATOM     17  C   UNL     1       3.651  13.563  18.540  0.00  0.00    +0.000 C 
ENDBRANCH   3  11
BRANCH   1  19
ATOM     18  N   UNL     1       2.106   7.745  18.935  0.00  0.00    +0.000 N 
ATOM     19  C   UNL     1       1.853   8.926  18.274  0.00  0.00    +0.000 C 
ATOM     20  O   UNL     1       2.057   9.072  17.079  0.00  0.00    +0.000 OA
ATOM     21  H   UNL     1       1.994   7.679  19.935  0.00  0.00    +0.000 HD
BRANCH  18  22
ATOM     22  C   UNL     1       2.691   6.593  18.256  0.00  0.00    +0.000 C 
BRANCH  22  23
ATOM     23  C   UNL     1       2.054   5.319  18.785  0.00  0.00    +0.000 A 
ATOM     24  C   UNL     1       1.788   4.232  17.933  0.00  0.00    +0.000 A 
ATOM     25  C   UNL     1       1.194   3.069  18.425  0.00  0.00    +0.000 A 
ATOM     26  C   UNL     1       0.858   2.977  19.772  0.00  0.00    +0.000 A 
ATOM     27  C   UNL     1       1.131   4.038  20.632  0.00  0.00    +0.000 A 
ATOM     28  C   UNL     1       1.730   5.202  20.145  0.00  0.00    +0.000 A 
ENDBRANCH  22  23
BRANCH  22  29
ATOM     29  C   UNL     1       4.220   6.577  18.457  0.00  0.00    +0.000 C 
ATOM     30  O   UNL     1       4.800   5.980  19.361  0.00  0.00    +0.000 OA
BRANCH  29  32
ATOM     31  C   UNL     1       4.944   6.531  16.225  0.00  0.00    +0.000 C 
ATOM     32  O   UNL     1       4.841   7.260  17.449  0.00  0.00    +0.000 OA
ENDBRANCH  29  32
ENDBRANCH  22  29
ENDBRANCH  18  22
ENDBRANCH   1  19
TORSDOF 6
ENDMDL
MODEL 9
REMARK VINA RESULT:      -7.9      3.221      5.738
REMARK  Name = 
REMARK  8 active torsions:
REMARK  status: ('A' for Active; 'I' for Inactive)
REMARK    1  A    between atoms: C_1  and  O_2
REMARK    2  A    between atoms: O_2  and  C_3
REMARK    3  A    between atoms: C_3  and  C_5
REMARK    4  A    between atoms: C_5  and  N_6
REMARK    5  A    between atoms: C_5  and  C_26
REMARK    6  A    between atoms: C_7  and  C_9
REMARK    7  A    between atoms: C_11  and  C_12
REMARK    8  A    between atoms: C_17  and  C_18
REMARK                            x       y       z     vdW  Elec       q    Type
REMARK                         _______ _______ _______ _____ _____    ______ ____
ROOT
ATOM      1  C   UNL     1       1.501  10.043  19.222  0.00  0.00    +0.000 A 
ATOM      2  C   UNL     1       1.979  11.315  18.885  0.00  0.00    +0.000 A 
ATOM      3  C   UNL     1       1.766  12.375  19.754  0.00  0.00    +0.000 A 
ATOM      4  N   UNL     1       1.075  12.192  20.898  0.00  0.00    +0.000 NA
ATOM      5  C   UNL     1       0.603  10.982  21.231  0.00  0.00    +0.000 A 
ATOM      6  C   UNL     1      -0.055  10.857  22.445  0.00  0.00    +0.000 A 
ATOM      7  C   UNL     1      -0.570   9.638  22.888  0.00  0.00    +0.000 A 
ATOM      8  C   UNL     1      -0.431   8.510  22.093  0.00  0.00    +0.000 A 
ATOM      9  C   UNL     1       0.238   8.609  20.873  0.00  0.00    +0.000 A 
ATOM     10  C   UNL     1       0.774   9.842  20.420  0.00  0.00    +0.000 A 
ENDROOT
BRANCH   3  11
ATOM     11  C   UNL     1       2.311  13.739  19.505  0.00  0.00    +0.000 A 
ATOM     12  C   UNL     1       1.955  14.433  18.325  0.00  0.00    +0.000 A 
ATOM     13  C   UNL     1       2.472  15.695  18.013  0.00  0.00    +0.000 A 
ATOM     14  C   UNL     1       3.352  16.315  18.887  0.00  0.00    +0.000 A 
ATOM     15  C   UNL     1       3.713  15.674  20.068  0.00  0.00    +0.000 A 
ATOM     16  C   UNL     1       3.213  14.394  20.389  0.00  0.00    +0.000 A 
ATOM     17  C   UNL     1       3.688  13.773  21.679  0.00  0.00    +0.000 C 
ENDBRANCH   3  11
BRANCH   1  19
ATOM     18  N   UNL     1       2.313   7.780  18.933  0.00  0.00    +0.000 N 
ATOM     19  C   UNL     1       1.830   8.909  18.309  0.00  0.00    +0.000 C 
ATOM     20  O   UNL     1       1.673   8.980  17.100  0.00  0.00    +0.000 OA
ATOM     21  H   UNL     1       2.498   7.778  19.925  0.00  0.00    +0.000 HD
BRANCH  18  22
ATOM     22  C   UNL     1       2.723   6.600  18.179  0.00  0.00    +0.000 C 
BRANCH  22  23
ATOM     23  C   UNL     1       2.077   5.366  18.785  0.00  0.00    +0.000 A 
ATOM     24  C   UNL     1       1.801   5.294  20.164  0.00  0.00    +0.000 A 
ATOM     25  C   UNL     1       1.217   4.153  20.715  0.00  0.00    +0.000 A 
ATOM     26  C   UNL     1       0.900   3.071  19.899  0.00  0.00    +0.000 A 
ATOM     27  C   UNL     1       1.151   3.134  18.530  0.00  0.00    +0.000 A 
ATOM     28  C   UNL     1       1.732   4.275  17.973  0.00  0.00    +0.000 A 
ENDBRANCH  22  23
BRANCH  22  29
ATOM     29  C   UNL     1       4.260   6.479  18.176  0.00  0.00    +0.000 C 
ATOM     30  O   UNL     1       4.912   5.827  18.987  0.00  0.00    +0.000 OA
BRANCH  29  32
ATOM     31  C   UNL     1       5.188   6.287  16.028  0.00  0.00    +0.000 C 
ATOM     32  O   UNL     1       4.788   7.140  17.102  0.00  0.00    +0.000 OA
ENDBRANCH  29  32
ENDBRANCH  22  29
ENDBRANCH  18  22
ENDBRANCH   1  19
TORSDOF 6
ENDMDL
