MODEL 1
REMARK VINA RESULT:      -6.6      0.000      0.000
REMARK  Name = 
REMARK  7 active torsions:
REMARK  status: ('A' for Active; 'I' for Inactive)
REMARK    1  A    between atoms: P_2  and  O_3
REMARK    2  A    between atoms: P_2  and  O_4
REMARK    3  A    between atoms: P_2  and  C_5
REMARK    4  A    between atoms: C_5  and  N_6
REMARK    5  A    between atoms: C_5  and  P_12
REMARK    6  A    between atoms: P_12  and  O_14
REMARK    7  A    between atoms: P_12  and  O_15
REMARK                            x       y       z     vdW  Elec       q    Type
REMARK                         _______ _______ _______ _____ _____    ______ ____
ROOT
ATOM      1  C   UNL     1       5.819   4.896  17.167  0.00  0.00    +0.000 C 
ENDROOT
BRANCH   1   2
ATOM      2  N   UNL     1       5.257   3.540  17.450  0.00  0.00    +0.000 N 
ATOM      3  C   UNL     1       3.928   3.422  17.588  0.00  0.00    +0.000 A 
ATOM      4  N   UNL     1       3.017   4.364  17.489  0.00  0.00    +0.000 NA
ATOM      5  C   UNL     1       1.835   3.728  17.804  0.00  0.00    +0.000 A 
ATOM      6  C   UNL     1       2.038   2.410  18.116  0.00  0.00    +0.000 A 
ATOM      7  N   UNL     1       3.385   2.223  17.954  0.00  0.00    +0.000 N 
ATOM      8  H   UNL     1       5.779   2.799  16.991  0.00  0.00    +0.000 HD
ATOM      9  H   UNL     1       3.913   1.386  18.152  0.00  0.00    +0.000 HD
ENDBRANCH   1   2
BRANCH   1  11
ATOM     10  O   UNL     1       7.217   5.337  14.122  0.00  0.00    +0.000 OA
ATOM     11  P   UNL     1       6.576   5.135  15.518  0.00  0.00    +0.000 P 
BRANCH  11  12
ATOM     12  O   UNL     1       7.587   6.277  16.159  0.00  0.00    +0.000 OA
ATOM     13  H   UNL     1       7.817   6.870  15.416  0.00  0.00    +0.000 HD
ENDBRANCH  11  12
BRANCH  11  14
ATOM     14  O   UNL     1       5.399   6.245  15.152  0.00  0.00    +0.000 OA
ATOM     15  H   UNL     1       5.085   6.072  14.245  0.00  0.00    +0.000 HD
ENDBRANCH  11  14
ENDBRANCH   1  11
BRANCH   1  16
ATOM     16  P   UNL     1       7.062   5.243  18.465  0.00  0.00    +0.000 P 
ATOM     17  O   UNL     1       6.219   4.546  19.537  0.00  0.00    +0.000 OA
BRANCH  16  18
ATOM     18  O   UNL     1       8.052   4.050  17.902  0.00  0.00    +0.000 OA
ATOM     19  H   UNL     1       8.898   4.430  17.596  0.00  0.00    +0.000 HD
ENDBRANCH  16  18
BRANCH  16  20
ATOM     20  O   UNL     1       8.235   5.570  19.692  0.00  0.00    +0.000 OA
ATOM     21  H   UNL     1       8.959   6.042  19.232  0.00  0.00    +0.000 HD
ENDBRANCH  16  20
ENDBRANCH   1  16
TORSDOF 7
ENDMDL
MODEL 2
REMARK VINA RESULT:      -6.3      1.016      1.698
REMARK  Name = 
REMARK  7 active torsions:
REMARK  status: ('A' for Active; 'I' for Inactive)
REMARK    1  A    between atoms: P_2  and  O_3
REMARK    2  A    between atoms: P_2  and  O_4
REMARK    3  A    between atoms: P_2  and  C_5
REMARK    4  A    between atoms: C_5  and  N_6
REMARK    5  A    between atoms: C_5  and  P_12
REMARK    6  A    between atoms: P_12  and  O_14
REMARK    7  A    between atoms: P_12  and  O_15
REMARK                            x       y       z     vdW  Elec       q    Type
REMARK                         _______ _______ _______ _____ _____    ______ ____
ROOT
ATOM      1  C   UNL     1       5.644   4.785  17.207  0.00  0.00    +0.000 C 
ENDROOT
BRANCH   1   2
ATOM      2  N   UNL     1       5.048   3.427  17.394  0.00  0.00    +0.000 N 
ATOM      3  C   UNL     1       3.737   3.343  17.665  0.00  0.00    +0.000 A 
ATOM      4  N   UNL     1       2.869   4.324  17.777  0.00  0.00    +0.000 NA
ATOM      5  C   UNL     1       1.697   3.699  18.147  0.00  0.00    +0.000 A 
ATOM      6  C   UNL     1       1.866   2.346  18.280  0.00  0.00    +0.000 A 
ATOM      7  N   UNL     1       3.177   2.130  17.949  0.00  0.00    +0.000 N 
ATOM      8  H   UNL     1       5.481   2.728  16.797  0.00  0.00    +0.000 HD
ATOM      9  H   UNL     1       3.681   1.256  17.990  0.00  0.00    +0.000 HD
ENDBRANCH   1   2
BRANCH   1  11
ATOM     10  O   UNL     1       7.572   5.217  14.466  0.00  0.00    +0.000 OA
ATOM     11  P   UNL     1       6.688   5.019  15.723  0.00  0.00    +0.000 P 
BRANCH  11  12
ATOM     12  O   UNL     1       6.236   3.523  15.181  0.00  0.00    +0.000 OA
ATOM     13  H   UNL     1       5.619   3.687  14.440  0.00  0.00    +0.000 HD
ENDBRANCH  11  12
BRANCH  11  14
ATOM     14  O   UNL     1       7.991   4.428  16.562  0.00  0.00    +0.000 OA
ATOM     15  H   UNL     1       8.096   3.484  16.340  0.00  0.00    +0.000 HD
ENDBRANCH  11  14
ENDBRANCH   1  11
BRANCH   1  16
ATOM     16  P   UNL     1       6.626   5.150  18.708  0.00  0.00    +0.000 P 
ATOM     17  O   UNL     1       7.066   6.510  18.158  0.00  0.00    +0.000 OA
BRANCH  16  18
ATOM     18  O   UNL     1       5.265   5.494  19.573  0.00  0.00    +0.000 OA
ATOM     19  H   UNL     1       4.713   6.140  19.091  0.00  0.00    +0.000 HD
ENDBRANCH  16  18
BRANCH  16  20
ATOM     20  O   UNL     1       7.555   5.495  20.125  0.00  0.00    +0.000 OA
ATOM     21  H   UNL     1       8.441   5.746  19.795  0.00  0.00    +0.000 HD
ENDBRANCH  16  20
ENDBRANCH   1  16
TORSDOF 7
ENDMDL
MODEL 3
REMARK VINA RESULT:      -6.3      0.764      1.036
REMARK  Name = 
REMARK  7 active torsions:
REMARK  status: ('A' for Active; 'I' for Inactive)
REMARK    1  A    between atoms: P_2  and  O_3
REMARK    2  A    between atoms: P_2  and  O_4
REMARK    3  A    between atoms: P_2  and  C_5
REMARK    4  A    between atoms: C_5  and  N_6
REMARK    5  A    between atoms: C_5  and  P_12
REMARK    6  A    between atoms: P_12  and  O_14
REMARK    7  A    between atoms: P_12  and  O_15
REMARK                            x       y       z     vdW  Elec       q    Type
REMARK                         _______ _______ _______ _____ _____    ______ ____
ROOT
ATOM      1  C   UNL     1       5.644   5.038  17.467  0.00  0.00    +0.000 C 
ENDROOT
BRANCH   1   2
ATOM      2  N   UNL     1       5.262   3.664  17.915  0.00  0.00    +0.000 N 
ATOM      3  C   UNL     1       3.957   3.360  17.981  0.00  0.00    +0.000 A 
ATOM      4  N   UNL     1       2.931   4.125  17.679  0.00  0.00    +0.000 NA
ATOM      5  C   UNL     1       1.831   3.362  18.007  0.00  0.00    +0.000 A 
ATOM      6  C   UNL     1       2.194   2.148  18.528  0.00  0.00    +0.000 A 
ATOM      7  N   UNL     1       3.563   2.155  18.487  0.00  0.00    +0.000 N 
ATOM      8  H   UNL     1       5.925   2.958  17.610  0.00  0.00    +0.000 HD
ATOM      9  H   UNL     1       4.187   1.446  18.845  0.00  0.00    +0.000 HD
ENDBRANCH   1   2
BRANCH   1  11
ATOM     10  O   UNL     1       6.492   5.377  14.214  0.00  0.00    +0.000 OA
ATOM     11  P   UNL     1       6.103   5.222  15.705  0.00  0.00    +0.000 P 
BRANCH  11  12
ATOM     12  O   UNL     1       6.800   3.721  15.741  0.00  0.00    +0.000 OA
ATOM     13  H   UNL     1       7.147   3.572  14.838  0.00  0.00    +0.000 HD
ENDBRANCH  11  12
BRANCH  11  14
ATOM     14  O   UNL     1       7.502   5.987  16.163  0.00  0.00    +0.000 OA
ATOM     15  H   UNL     1       8.196   5.312  16.283  0.00  0.00    +0.000 HD
ENDBRANCH  11  14
ENDBRANCH   1  11
BRANCH   1  16
ATOM     16  P   UNL     1       7.041   5.575  18.521  0.00  0.00    +0.000 P 
ATOM     17  O   UNL     1       6.287   5.213  19.804  0.00  0.00    +0.000 OA
BRANCH  16  18
ATOM     18  O   UNL     1       7.896   4.210  18.165  0.00  0.00    +0.000 OA
ATOM     19  H   UNL     1       7.786   3.979  17.222  0.00  0.00    +0.000 HD
ENDBRANCH  16  18
BRANCH  16  20
ATOM     20  O   UNL     1       8.361   6.083  19.516  0.00  0.00    +0.000 OA
ATOM     21  H   UNL     1       8.347   5.478  20.285  0.00  0.00    +0.000 HD
ENDBRANCH  16  20
ENDBRANCH   1  16
TORSDOF 7
ENDMDL
MODEL 4
REMARK VINA RESULT:      -6.2      0.830      1.226
REMARK  Name = 
REMARK  7 active torsions:
REMARK  status: ('A' for Active; 'I' for Inactive)
REMARK    1  A    between atoms: P_2  and  O_3
REMARK    2  A    between atoms: P_2  and  O_4
REMARK    3  A    between atoms: P_2  and  C_5
REMARK    4  A    between atoms: C_5  and  N_6
REMARK    5  A    between atoms: C_5  and  P_12
REMARK    6  A    between atoms: P_12  and  O_14
REMARK    7  A    between atoms: P_12  and  O_15
REMARK                            x       y       z     vdW  Elec       q    Type
REMARK                         _______ _______ _______ _____ _____    ______ ____
ROOT
ATOM      1  C   UNL     1       5.756   4.857  17.265  0.00  0.00    +0.000 C 
ENDROOT
BRANCH   1   2
ATOM      2  N   UNL     1       5.187   3.491  17.474  0.00  0.00    +0.000 N 
ATOM      3  C   UNL     1       3.863   3.379  17.660  0.00  0.00    +0.000 A 
ATOM      4  N   UNL     1       2.963   4.336  17.669  0.00  0.00    +0.000 NA
ATOM      5  C   UNL     1       1.786   3.693  17.988  0.00  0.00    +0.000 A 
ATOM      6  C   UNL     1       1.982   2.353  18.193  0.00  0.00    +0.000 A 
ATOM      7  N   UNL     1       3.319   2.163  17.961  0.00  0.00    +0.000 N 
ATOM      8  H   UNL     1       5.678   2.780  16.940  0.00  0.00    +0.000 HD
ATOM      9  H   UNL     1       3.842   1.307  18.075  0.00  0.00    +0.000 HD
ENDBRANCH   1   2
BRANCH   1  11
ATOM     10  O   UNL     1       7.600   5.308  14.469  0.00  0.00    +0.000 OA
ATOM     11  P   UNL     1       6.755   5.101  15.751  0.00  0.00    +0.000 P 
BRANCH  11  12
ATOM     12  O   UNL     1       5.818   6.406  15.356  0.00  0.00    +0.000 OA
ATOM     13  H   UNL     1       4.895   6.079  15.364  0.00  0.00    +0.000 HD
ENDBRANCH  11  12
BRANCH  11  14
ATOM     14  O   UNL     1       5.773   4.033  14.948  0.00  0.00    +0.000 OA
ATOM     15  H   UNL     1       5.674   3.233  15.498  0.00  0.00    +0.000 HD
ENDBRANCH  11  14
ENDBRANCH   1  11
BRANCH   1  16
ATOM     16  P   UNL     1       6.775   5.242  18.736  0.00  0.00    +0.000 P 
ATOM     17  O   UNL     1       7.917   4.346  18.250  0.00  0.00    +0.000 OA
BRANCH  16  18
ATOM     18  O   UNL     1       7.159   6.731  18.140  0.00  0.00    +0.000 OA
ATOM     19  H   UNL     1       6.500   7.008  17.474  0.00  0.00    +0.000 HD
ENDBRANCH  16  18
BRANCH  16  20
ATOM     20  O   UNL     1       7.738   5.605  20.126  0.00  0.00    +0.000 OA
ATOM     21  H   UNL     1       7.945   4.737  20.527  0.00  0.00    +0.000 HD
ENDBRANCH  16  20
ENDBRANCH   1  16
TORSDOF 7
ENDMDL
MODEL 5
REMARK VINA RESULT:      -6.2      1.708      2.107
REMARK  Name = 
REMARK  7 active torsions:
REMARK  status: ('A' for Active; 'I' for Inactive)
REMARK    1  A    between atoms: P_2  and  O_3
REMARK    2  A    between atoms: P_2  and  O_4
REMARK    3  A    between atoms: P_2  and  C_5
REMARK    4  A    between atoms: C_5  and  N_6
REMARK    5  A    between atoms: C_5  and  P_12
REMARK    6  A    between atoms: P_12  and  O_14
REMARK    7  A    between atoms: P_12  and  O_15
REMARK                            x       y       z     vdW  Elec       q    Type
REMARK                         _______ _______ _______ _____ _____    ______ ____
ROOT
ATOM      1  C   UNL     1       6.019   5.234  17.523  0.00  0.00    +0.000 C 
ENDROOT
BRANCH   1   2
ATOM      2  N   UNL     1       5.962   3.910  18.214  0.00  0.00    +0.000 N 
ATOM      3  C   UNL     1       4.883   3.630  18.960  0.00  0.00    +0.000 A 
ATOM      4  N   UNL     1       3.822   4.380  19.162  0.00  0.00    +0.000 NA
ATOM      5  C   UNL     1       3.067   3.664  20.066  0.00  0.00    +0.000 A 
ATOM      6  C   UNL     1       3.684   2.495  20.426  0.00  0.00    +0.000 A 
ATOM      7  N   UNL     1       4.841   2.479  19.693  0.00  0.00    +0.000 N 
ATOM      8  H   UNL     1       6.400   3.170  17.672  0.00  0.00    +0.000 HD
ATOM      9  H   UNL     1       5.583   1.796  19.739  0.00  0.00    +0.000 HD
ENDBRANCH   1   2
BRANCH   1  11
ATOM     10  O   UNL     1       6.652   5.174  14.205  0.00  0.00    +0.000 OA
ATOM     11  P   UNL     1       6.361   5.201  15.726  0.00  0.00    +0.000 P 
BRANCH  11  12
ATOM     12  O   UNL     1       5.392   3.869  15.576  0.00  0.00    +0.000 OA
ATOM     13  H   UNL     1       5.160   3.609  16.490  0.00  0.00    +0.000 HD
ENDBRANCH  11  12
BRANCH  11  14
ATOM     14  O   UNL     1       7.721   4.297  16.015  0.00  0.00    +0.000 OA
ATOM     15  H   UNL     1       7.449   3.374  16.176  0.00  0.00    +0.000 HD
ENDBRANCH  11  14
ENDBRANCH   1  11
BRANCH   1  16
ATOM     16  P   UNL     1       7.302   6.226  18.371  0.00  0.00    +0.000 P 
ATOM     17  O   UNL     1       8.182   4.994  18.603  0.00  0.00    +0.000 OA
BRANCH  16  18
ATOM     18  O   UNL     1       7.845   6.835  16.938  0.00  0.00    +0.000 OA
ATOM     19  H   UNL     1       7.120   7.291  16.469  0.00  0.00    +0.000 HD
ENDBRANCH  16  18
BRANCH  16  20
ATOM     20  O   UNL     1       8.515   7.162  19.172  0.00  0.00    +0.000 OA
ATOM     21  H   UNL     1       9.073   7.524  18.455  0.00  0.00    +0.000 HD
ENDBRANCH  16  20
ENDBRANCH   1  16
TORSDOF 7
ENDMDL
MODEL 6
REMARK VINA RESULT:      -6.1      0.999      1.371
REMARK  Name = 
REMARK  7 active torsions:
REMARK  status: ('A' for Active; 'I' for Inactive)
REMARK    1  A    between atoms: P_2  and  O_3
REMARK    2  A    between atoms: P_2  and  O_4
REMARK    3  A    between atoms: P_2  and  C_5
REMARK    4  A    between atoms: C_5  and  N_6
REMARK    5  A    between atoms: C_5  and  P_12
REMARK    6  A    between atoms: P_12  and  O_14
REMARK    7  A    between atoms: P_12  and  O_15
REMARK                            x       y       z     vdW  Elec       q    Type
REMARK                         _______ _______ _______ _____ _____    ______ ____
ROOT
ATOM      1  C   UNL     1       5.692   4.674  17.368  0.00  0.00    +0.000 C 
ENDROOT
BRANCH   1   2
ATOM      2  N   UNL     1       5.276   3.487  18.176  0.00  0.00    +0.000 N 
ATOM      3  C   UNL     1       3.972   3.171  18.211  0.00  0.00    +0.000 A 
ATOM      4  N   UNL     1       2.977   3.772  17.598  0.00  0.00    +0.000 NA
ATOM      5  C   UNL     1       1.854   3.105  18.040  0.00  0.00    +0.000 A 
ATOM      6  C   UNL     1       2.172   2.119  18.937  0.00  0.00    +0.000 A 
ATOM      7  N   UNL     1       3.538   2.162  19.022  0.00  0.00    +0.000 N 
ATOM      8  H   UNL     1       5.969   2.745  18.162  0.00  0.00    +0.000 HD
ATOM      9  H   UNL     1       4.128   1.617  19.634  0.00  0.00    +0.000 HD
ENDBRANCH   1   2
BRANCH   1  11
ATOM     10  O   UNL     1       6.718   4.057  14.208  0.00  0.00    +0.000 OA
ATOM     11  P   UNL     1       6.247   4.340  15.657  0.00  0.00    +0.000 P 
BRANCH  11  12
ATOM     12  O   UNL     1       7.808   4.641  16.116  0.00  0.00    +0.000 OA
ATOM     13  H   UNL     1       8.330   3.882  15.784  0.00  0.00    +0.000 HD
ENDBRANCH  11  12
BRANCH  11  14
ATOM     14  O   UNL     1       5.956   5.925  15.266  0.00  0.00    +0.000 OA
ATOM     15  H   UNL     1       5.331   6.293  15.919  0.00  0.00    +0.000 HD
ENDBRANCH  11  14
ENDBRANCH   1  11
BRANCH   1  16
ATOM     16  P   UNL     1       7.033   5.508  18.293  0.00  0.00    +0.000 P 
ATOM     17  O   UNL     1       6.667   6.873  17.706  0.00  0.00    +0.000 OA
BRANCH  16  18
ATOM     18  O   UNL     1       6.172   5.437  19.698  0.00  0.00    +0.000 OA
ATOM     19  H   UNL     1       5.691   6.275  19.841  0.00  0.00    +0.000 HD
ENDBRANCH  16  18
BRANCH  16  20
ATOM     20  O   UNL     1       8.300   6.295  19.167  0.00  0.00    +0.000 OA
ATOM     21  H   UNL     1       8.621   5.628  19.807  0.00  0.00    +0.000 HD
ENDBRANCH  16  20
ENDBRANCH   1  16
TORSDOF 7
ENDMDL
MODEL 7
REMARK VINA RESULT:      -6.1      0.785      3.276
REMARK  Name = 
REMARK  7 active torsions:
REMARK  status: ('A' for Active; 'I' for Inactive)
REMARK    1  A    between atoms: P_2  and  O_3
REMARK    2  A    between atoms: P_2  and  O_4
REMARK    3  A    between atoms: P_2  and  C_5
REMARK    4  A    between atoms: C_5  and  N_6
REMARK    5  A    between atoms: C_5  and  P_12
REMARK    6  A    between atoms: P_12  and  O_14
REMARK    7  A    between atoms: P_12  and  O_15
REMARK                            x       y       z     vdW  Elec       q    Type
REMARK                         _______ _______ _______ _____ _____    ______ ____
ROOT
ATOM      1  C   UNL     1       5.989   4.319  16.843  0.00  0.00    +0.000 C 
ENDROOT
BRANCH   1   2
ATOM      2  N   UNL     1       4.541   4.687  16.873  0.00  0.00    +0.000 N 
ATOM      3  C   UNL     1       3.694   3.870  17.518  0.00  0.00    +0.000 A 
ATOM      4  N   UNL     1       3.973   2.760  18.164  0.00  0.00    +0.000 NA
ATOM      5  C   UNL     1       2.744   2.276  18.556  0.00  0.00    +0.000 A 
ATOM      6  C   UNL     1       1.723   3.083  18.126  0.00  0.00    +0.000 A 
ATOM      7  N   UNL     1       2.350   4.112  17.477  0.00  0.00    +0.000 N 
ATOM      8  H   UNL     1       4.396   5.691  16.916  0.00  0.00    +0.000 HD
ATOM      9  H   UNL     1       1.915   4.872  16.974  0.00  0.00    +0.000 HD
ENDBRANCH   1   2
BRANCH   1  11
ATOM     10  O   UNL     1       8.009   5.990  18.975  0.00  0.00    +0.000 OA
ATOM     11  P   UNL     1       7.083   5.224  17.998  0.00  0.00    +0.000 P 
BRANCH  11  12
ATOM     12  O   UNL     1       8.255   4.079  17.769  0.00  0.00    +0.000 OA
ATOM     13  H   UNL     1       8.053   3.665  16.905  0.00  0.00    +0.000 HD
ENDBRANCH  11  12
BRANCH  11  14
ATOM     14  O   UNL     1       6.398   4.406  19.267  0.00  0.00    +0.000 OA
ATOM     15  H   UNL     1       5.643   4.927  19.598  0.00  0.00    +0.000 HD
ENDBRANCH  11  14
ENDBRANCH   1  11
BRANCH   1  16
ATOM     16  P   UNL     1       6.570   4.574  15.126  0.00  0.00    +0.000 P 
ATOM     17  O   UNL     1       5.273   5.286  14.732  0.00  0.00    +0.000 OA
BRANCH  16  18
ATOM     18  O   UNL     1       7.568   5.800  15.596  0.00  0.00    +0.000 OA
ATOM     19  H   UNL     1       8.483   5.622  15.302  0.00  0.00    +0.000 HD
ENDBRANCH  16  18
BRANCH  16  20
ATOM     20  O   UNL     1       7.119   4.814  13.504  0.00  0.00    +0.000 OA
ATOM     21  H   UNL     1       7.854   5.457  13.576  0.00  0.00    +0.000 HD
ENDBRANCH  16  20
ENDBRANCH   1  16
TORSDOF 7
ENDMDL
MODEL 8
REMARK VINA RESULT:      -6.1      0.873      3.302
REMARK  Name = 
REMARK  7 active torsions:
REMARK  status: ('A' for Active; 'I' for Inactive)
REMARK    1  A    between atoms: P_2  and  O_3
REMARK    2  A    between atoms: P_2  and  O_4
REMARK    3  A    between atoms: P_2  and  C_5
REMARK    4  A    between atoms: C_5  and  N_6
REMARK    5  A    between atoms: C_5  and  P_12
REMARK    6  A    between atoms: P_12  and  O_14
REMARK    7  A    between atoms: P_12  and  O_15
REMARK                            x       y       z     vdW  Elec       q    Type
REMARK                         _______ _______ _______ _____ _____    ______ ____
ROOT
ATOM      1  C   UNL     1       6.055   4.378  16.882  0.00  0.00    +0.000 C 
ENDROOT
BRANCH   1   2
ATOM      2  N   UNL     1       4.631   4.830  16.912  0.00  0.00    +0.000 N 
ATOM      3  C   UNL     1       3.730   4.042  17.519  0.00  0.00    +0.000 A 
ATOM      4  N   UNL     1       3.936   2.895  18.127  0.00  0.00    +0.000 NA
ATOM      5  C   UNL     1       2.676   2.472  18.491  0.00  0.00    +0.000 A 
ATOM      6  C   UNL     1       1.709   3.352  18.081  0.00  0.00    +0.000 A 
ATOM      7  N   UNL     1       2.404   4.365  17.474  0.00  0.00    +0.000 N 
ATOM      8  H   UNL     1       4.545   5.839  16.990  0.00  0.00    +0.000 HD
ATOM      9  H   UNL     1       2.019   5.167  16.996  0.00  0.00    +0.000 HD
ENDBRANCH   1   2
BRANCH   1  11
ATOM     10  O   UNL     1       8.044   5.509  19.369  0.00  0.00    +0.000 OA
ATOM     11  P   UNL     1       7.132   4.990  18.229  0.00  0.00    +0.000 P 
BRANCH  11  12
ATOM     12  O   UNL     1       7.615   6.242  17.260  0.00  0.00    +0.000 OA
ATOM     13  H   UNL     1       6.867   6.873  17.255  0.00  0.00    +0.000 HD
ENDBRANCH  11  12
BRANCH  11  14
ATOM     14  O   UNL     1       8.343   3.988  17.699  0.00  0.00    +0.000 OA
ATOM     15  H   UNL     1       9.180   4.489  17.699  0.00  0.00    +0.000 HD
ENDBRANCH  11  14
ENDBRANCH   1  11
BRANCH   1  16
ATOM     16  P   UNL     1       6.746   4.892  15.267  0.00  0.00    +0.000 P 
ATOM     17  O   UNL     1       6.122   3.690  14.553  0.00  0.00    +0.000 OA
BRANCH  16  18
ATOM     18  O   UNL     1       5.612   6.079  15.107  0.00  0.00    +0.000 OA
ATOM     19  H   UNL     1       6.046   6.952  15.034  0.00  0.00    +0.000 HD
ENDBRANCH  16  18
BRANCH  16  20
ATOM     20  O   UNL     1       7.398   5.378  13.741  0.00  0.00    +0.000 OA
ATOM     21  H   UNL     1       7.936   6.171  13.935  0.00  0.00    +0.000 HD
ENDBRANCH  16  20
ENDBRANCH   1  16
TORSDOF 7
ENDMDL
MODEL 9
REMARK VINA RESULT:      -6.0      1.207      3.213
REMARK  Name = 
REMARK  7 active torsions:
REMARK  status: ('A' for Active; 'I' for Inactive)
REMARK    1  A    between atoms: P_2  and  O_3
REMARK    2  A    between atoms: P_2  and  O_4
REMARK    3  A    between atoms: P_2  and  C_5
REMARK    4  A    between atoms: C_5  and  N_6
REMARK    5  A    between atoms: C_5  and  P_12
REMARK    6  A    between atoms: P_12  and  O_14
REMARK    7  A    between atoms: P_12  and  O_15
REMARK                            x       y       z     vdW  Elec       q    Type
REMARK                         _______ _______ _______ _____ _____    ______ ____
ROOT
ATOM      1  C   UNL     1       5.866   4.619  17.500  0.00  0.00    +0.000 C 
ENDROOT
BRANCH   1   2
ATOM      2  N   UNL     1       4.444   4.985  17.782  0.00  0.00    +0.000 N 
ATOM      3  C   UNL     1       3.559   3.994  17.962  0.00  0.00    +0.000 A 
ATOM      4  N   UNL     1       3.779   2.698  17.940  0.00  0.00    +0.000 NA
ATOM      5  C   UNL     1       2.528   2.138  18.091  0.00  0.00    +0.000 A 
ATOM      6  C   UNL     1       1.553   3.097  18.179  0.00  0.00    +0.000 A 
ATOM      7  N   UNL     1       2.233   4.284  18.114  0.00  0.00    +0.000 N 
ATOM      8  H   UNL     1       4.364   5.833  18.335  0.00  0.00    +0.000 HD
ATOM      9  H   UNL     1       1.838   5.213  18.088  0.00  0.00    +0.000 HD
ENDBRANCH   1   2
BRANCH   1  11
ATOM     10  O   UNL     1       8.231   6.591  18.891  0.00  0.00    +0.000 OA
ATOM     11  P   UNL     1       7.147   5.687  18.253  0.00  0.00    +0.000 P 
BRANCH  11  12
ATOM     12  O   UNL     1       8.162   4.384  18.348  0.00  0.00    +0.000 OA
ATOM     13  H   UNL     1       7.916   3.920  19.174  0.00  0.00    +0.000 HD
ENDBRANCH  11  12
BRANCH  11  14
ATOM     14  O   UNL     1       6.486   5.402  19.748  0.00  0.00    +0.000 OA
ATOM     15  H   UNL     1       6.788   6.103  20.356  0.00  0.00    +0.000 HD
ENDBRANCH  11  14
ENDBRANCH   1  11
BRANCH   1  16
ATOM     16  P   UNL     1       6.067   4.616  15.680  0.00  0.00    +0.000 P 
ATOM     17  O   UNL     1       7.553   4.969  15.787  0.00  0.00    +0.000 OA
BRANCH  16  18
ATOM     18  O   UNL     1       6.055   2.967  15.634  0.00  0.00    +0.000 OA
ATOM     19  H   UNL     1       5.169   2.643  15.379  0.00  0.00    +0.000 HD
ENDBRANCH  16  18
BRANCH  16  20
ATOM     20  O   UNL     1       6.257   4.613  13.962  0.00  0.00    +0.000 OA
ATOM     21  H   UNL     1       6.213   3.671  13.702  0.00  0.00    +0.000 HD
ENDBRANCH  16  20
ENDBRANCH   1  16
TORSDOF 7
ENDMDL
