MODEL 1
REMARK VINA RESULT:      -8.7      0.000      0.000
REMARK  Name = 
REMARK  5 active torsions:
REMARK  status: ('A' for Active; 'I' for Inactive)
REMARK    1  A    between atoms: C_1  and  C_2
REMARK    2  A    between atoms: C_4  and  C_5
REMARK    3  A    between atoms: C_5  and  O_7
REMARK    4  A    between atoms: O_7  and  C_8
REMARK    5  A    between atoms: C_8  and  C_9
REMARK                            x       y       z     vdW  Elec       q    Type
REMARK                         _______ _______ _______ _____ _____    ______ ____
ROOT
ATOM      1  C   UNL     1       5.852   5.433  19.006  0.00  0.00    +0.000 C 
ATOM      2  O   UNL     1       6.331   4.583  19.763  0.00  0.00    +0.000 OA
ATOM      3  N   UNL     1       4.477   5.647  18.836  0.00  0.00    +0.000 N 
ATOM      4  C   UNL     1       3.929   6.657  17.917  0.00  0.00    +0.000 C 
ATOM      5  C   UNL     1       2.685   7.382  18.406  0.00  0.00    +0.000 C 
ATOM      6  O   UNL     1       2.331   8.464  17.947  0.00  0.00    +0.000 OA
ATOM      7  N   UNL     1       1.883   6.687  19.266  0.00  0.00    +0.000 N 
ATOM      8  C   UNL     1       2.213   5.422  19.756  0.00  0.00    +0.000 A 
ATOM      9  C   UNL     1       1.249   4.737  20.506  0.00  0.00    +0.000 A 
ATOM     10  C   UNL     1       1.531   3.470  21.008  0.00  0.00    +0.000 A 
ATOM     11  C   UNL     1       2.771   2.891  20.765  0.00  0.00    +0.000 A 
ATOM     12  C   UNL     1       3.743   3.587  20.042  0.00  0.00    +0.000 A 
ATOM     13  C   UNL     1       3.491   4.869  19.536  0.00  0.00    +0.000 A 
ATOM     14  H   UNL     1       1.004   7.124  19.508  0.00  0.00    +0.000 HD
ENDROOT
BRANCH   1  15
ATOM     15  C   UNL     1       6.812   6.347  18.227  0.00  0.00    +0.000 C 
BRANCH  15  16
ATOM     16  O   UNL     1       6.770   6.098  16.824  0.00  0.00    +0.000 OA
BRANCH  16  17
ATOM     17  C   UNL     1       7.355   4.944  16.393  0.00  0.00    +0.000 C 
ATOM     18  O   UNL     1       8.096   4.244  17.075  0.00  0.00    +0.000 OA
BRANCH  17  22
ATOM     19  C   UNL     1       5.536   3.156  11.995  0.00  0.00    +0.000 C 
ATOM     20  C   UNL     1       6.195   3.819  13.133  0.00  0.00    +0.000 A 
ATOM     21  C   UNL     1       6.079   3.737  14.498  0.00  0.00    +0.000 A 
ATOM     22  C   UNL     1       7.041   4.656  14.994  0.00  0.00    +0.000 A 
ATOM     23  N   UNL     1       7.686   5.253  13.975  0.00  0.00    +0.000 NA
ATOM     24  O   UNL     1       7.153   4.728  12.819  0.00  0.00    +0.000 OA
ENDBRANCH  17  22
ENDBRANCH  16  17
ENDBRANCH  15  16
ENDBRANCH   1  15
TORSDOF 4
ENDMDL
MODEL 2
REMARK VINA RESULT:      -8.4      1.325      1.432
REMARK  Name = 
REMARK  5 active torsions:
REMARK  status: ('A' for Active; 'I' for Inactive)
REMARK    1  A    between atoms: C_1  and  C_2
REMARK    2  A    between atoms: C_4  and  C_5
REMARK    3  A    between atoms: C_5  and  O_7
REMARK    4  A    between atoms: O_7  and  C_8
REMARK    5  A    between atoms: C_8  and  C_9
REMARK                            x       y       z     vdW  Elec       q    Type
REMARK                         _______ _______ _______ _____ _____    ______ ____
ROOT
ATOM      1  C   UNL     1       4.184   4.848  17.256  0.00  0.00    +0.000 C 
ATOM      2  O   UNL     1       4.606   3.692  17.177  0.00  0.00    +0.000 OA
ATOM      3  N   UNL     1       3.158   5.252  18.122  0.00  0.00    +0.000 N 
ATOM      4  C   UNL     1       2.660   6.635  18.188  0.00  0.00    +0.000 C 
ATOM      5  C   UNL     1       2.290   7.133  19.576  0.00  0.00    +0.000 C 
ATOM      6  O   UNL     1       2.212   8.327  19.848  0.00  0.00    +0.000 OA
ATOM      7  N   UNL     1       1.879   6.182  20.467  0.00  0.00    +0.000 N 
ATOM      8  C   UNL     1       1.882   4.817  20.173  0.00  0.00    +0.000 A 
ATOM      9  C   UNL     1       1.297   3.945  21.099  0.00  0.00    +0.000 A 
ATOM     10  C   UNL     1       1.270   2.577  20.846  0.00  0.00    +0.000 A 
ATOM     11  C   UNL     1       1.828   2.082  19.673  0.00  0.00    +0.000 A 
ATOM     12  C   UNL     1       2.438   2.948  18.762  0.00  0.00    +0.000 A 
ATOM     13  C   UNL     1       2.491   4.328  18.999  0.00  0.00    +0.000 A 
ATOM     14  H   UNL     1       1.532   6.521  21.353  0.00  0.00    +0.000 HD
ENDROOT
BRANCH   1  15
ATOM     15  C   UNL     1       4.842   5.931  16.386  0.00  0.00    +0.000 C 
BRANCH  15  16
ATOM     16  O   UNL     1       6.214   6.128  16.720  0.00  0.00    +0.000 OA
BRANCH  16  17
ATOM     17  C   UNL     1       7.073   5.127  16.375  0.00  0.00    +0.000 C 
ATOM     18  O   UNL     1       7.848   4.578  17.151  0.00  0.00    +0.000 OA
BRANCH  17  22
ATOM     19  C   UNL     1       6.151   3.165  11.776  0.00  0.00    +0.000 C 
ATOM     20  C   UNL     1       6.552   3.893  12.991  0.00  0.00    +0.000 A 
ATOM     21  C   UNL     1       6.244   3.791  14.324  0.00  0.00    +0.000 A 
ATOM     22  C   UNL     1       7.008   4.812  14.948  0.00  0.00    +0.000 A 
ATOM     23  N   UNL     1       7.725   5.486  14.029  0.00  0.00    +0.000 NA
ATOM     24  O   UNL     1       7.435   4.909  12.813  0.00  0.00    +0.000 OA
ENDBRANCH  17  22
ENDBRANCH  16  17
ENDBRANCH  15  16
ENDBRANCH   1  15
TORSDOF 4
ENDMDL
MODEL 3
REMARK VINA RESULT:      -8.2      1.026      1.156
REMARK  Name = 
REMARK  5 active torsions:
REMARK  status: ('A' for Active; 'I' for Inactive)
REMARK    1  A    between atoms: C_1  and  C_2
REMARK    2  A    between atoms: C_4  and  C_5
REMARK    3  A    between atoms: C_5  and  O_7
REMARK    4  A    between atoms: O_7  and  C_8
REMARK    5  A    between atoms: C_8  and  C_9
REMARK                            x       y       z     vdW  Elec       q    Type
REMARK                         _______ _______ _______ _____ _____    ______ ____
ROOT
ATOM      1  C   UNL     1       5.511   4.178  18.522  0.00  0.00    +0.000 C 
ATOM      2  O   UNL     1       5.780   3.200  19.225  0.00  0.00    +0.000 OA
ATOM      3  N   UNL     1       4.255   4.801  18.493  0.00  0.00    +0.000 N 
ATOM      4  C   UNL     1       3.952   5.958  17.635  0.00  0.00    +0.000 C 
ATOM      5  C   UNL     1       3.039   7.008  18.248  0.00  0.00    +0.000 C 
ATOM      6  O   UNL     1       2.986   8.160  17.829  0.00  0.00    +0.000 OA
ATOM      7  N   UNL     1       2.150   6.559  19.184  0.00  0.00    +0.000 N 
ATOM      8  C   UNL     1       2.128   5.238  19.636  0.00  0.00    +0.000 A 
ATOM      9  C   UNL     1       1.079   4.851  20.478  0.00  0.00    +0.000 A 
ATOM     10  C   UNL     1       1.011   3.543  20.948  0.00  0.00    +0.000 A 
ATOM     11  C   UNL     1       1.989   2.626  20.580  0.00  0.00    +0.000 A 
ATOM     12  C   UNL     1       3.052   3.019  19.763  0.00  0.00    +0.000 A 
ATOM     13  C   UNL     1       3.151   4.334  19.287  0.00  0.00    +0.000 A 
ATOM     14  H   UNL     1       1.472   7.232  19.514  0.00  0.00    +0.000 HD
ENDROOT
BRANCH   1  15
ATOM     15  C   UNL     1       6.622   4.786  17.651  0.00  0.00    +0.000 C 
BRANCH  15  16
ATOM     16  O   UNL     1       6.683   4.183  16.361  0.00  0.00    +0.000 OA
BRANCH  16  17
ATOM     17  C   UNL     1       7.093   4.983  15.335  0.00  0.00    +0.000 C 
ATOM     18  O   UNL     1       7.706   6.035  15.477  0.00  0.00    +0.000 OA
BRANCH  17  22
ATOM     19  C   UNL     1       4.661   2.878  11.398  0.00  0.00    +0.000 C 
ATOM     20  C   UNL     1       5.539   3.534  12.381  0.00  0.00    +0.000 A 
ATOM     21  C   UNL     1       5.427   3.861  13.708  0.00  0.00    +0.000 A 
ATOM     22  C   UNL     1       6.668   4.470  14.033  0.00  0.00    +0.000 A 
ATOM     23  N   UNL     1       7.468   4.504  12.950  0.00  0.00    +0.000 NA
ATOM     24  O   UNL     1       6.758   3.921  11.925  0.00  0.00    +0.000 OA
ENDBRANCH  17  22
ENDBRANCH  16  17
ENDBRANCH  15  16
ENDBRANCH   1  15
TORSDOF 4
ENDMDL
MODEL 4
REMARK VINA RESULT:      -8.0      1.023      1.090
REMARK  Name = 
REMARK  5 active torsions:
REMARK  status: ('A' for Active; 'I' for Inactive)
REMARK    1  A    between atoms: C_1  and  C_2
REMARK    2  A    between atoms: C_4  and  C_5
REMARK    3  A    between atoms: C_5  and  O_7
REMARK    4  A    between atoms: O_7  and  C_8
REMARK    5  A    between atoms: C_8  and  C_9
REMARK                            x       y       z     vdW  Elec       q    Type
REMARK                         _______ _______ _______ _____ _____    ______ ____
ROOT
ATOM      1  C   UNL     1       5.245   5.020  18.776  0.00  0.00    +0.000 C 
ATOM      2  O   UNL     1       5.889   4.017  19.096  0.00  0.00    +0.000 OA
ATOM      3  N   UNL     1       3.911   5.246  19.146  0.00  0.00    +0.000 N 
ATOM      4  C   UNL     1       3.158   6.443  18.740  0.00  0.00    +0.000 C 
ATOM      5  C   UNL     1       2.206   7.003  19.784  0.00  0.00    +0.000 C 
ATOM      6  O   UNL     1       1.794   8.159  19.747  0.00  0.00    +0.000 OA
ATOM      7  N   UNL     1       1.693   6.104  20.676  0.00  0.00    +0.000 N 
ATOM      8  C   UNL     1       2.080   4.762  20.706  0.00  0.00    +0.000 A 
ATOM      9  C   UNL     1       1.380   3.897  21.555  0.00  0.00    +0.000 A 
ATOM     10  C   UNL     1       1.725   2.550  21.612  0.00  0.00    +0.000 A 
ATOM     11  C   UNL     1       2.767   2.070  20.827  0.00  0.00    +0.000 A 
ATOM     12  C   UNL     1       3.485   2.939  20.002  0.00  0.00    +0.000 A 
ATOM     13  C   UNL     1       3.167   4.303  19.935  0.00  0.00    +0.000 A 
ATOM     14  H   UNL     1       0.981   6.452  21.302  0.00  0.00    +0.000 HD
ENDROOT
BRANCH   1  15
ATOM     15  C   UNL     1       5.947   6.114  17.956  0.00  0.00    +0.000 C 
BRANCH  15  16
ATOM     16  O   UNL     1       7.356   5.909  17.883  0.00  0.00    +0.000 OA
BRANCH  16  17
ATOM     17  C   UNL     1       7.774   4.784  17.235  0.00  0.00    +0.000 C 
ATOM     18  O   UNL     1       8.515   3.937  17.722  0.00  0.00    +0.000 OA
BRANCH  17  22
ATOM     19  C   UNL     1       5.483   3.633  12.845  0.00  0.00    +0.000 C 
ATOM     20  C   UNL     1       6.243   4.149  13.996  0.00  0.00    +0.000 A 
ATOM     21  C   UNL     1       6.345   3.802  15.320  0.00  0.00    +0.000 A 
ATOM     22  C   UNL     1       7.279   4.724  15.860  0.00  0.00    +0.000 A 
ATOM     23  N   UNL     1       7.702   5.574  14.906  0.00  0.00    +0.000 NA
ATOM     24  O   UNL     1       7.051   5.211  13.748  0.00  0.00    +0.000 OA
ENDBRANCH  17  22
ENDBRANCH  16  17
ENDBRANCH  15  16
ENDBRANCH   1  15
TORSDOF 4
ENDMDL
MODEL 5
REMARK VINA RESULT:      -7.9      1.530      1.610
REMARK  Name = 
REMARK  5 active torsions:
REMARK  status: ('A' for Active; 'I' for Inactive)
REMARK    1  A    between atoms: C_1  and  C_2
REMARK    2  A    between atoms: C_4  and  C_5
REMARK    3  A    between atoms: C_5  and  O_7
REMARK    4  A    between atoms: O_7  and  C_8
REMARK    5  A    between atoms: C_8  and  C_9
REMARK                            x       y       z     vdW  Elec       q    Type
REMARK                         _______ _______ _______ _____ _____    ______ ____
ROOT
ATOM      1  C   UNL     1       5.304   4.448  19.243  0.00  0.00    +0.000 C 
ATOM      2  O   UNL     1       5.651   3.264  19.217  0.00  0.00    +0.000 OA
ATOM      3  N   UNL     1       3.971   4.876  19.169  0.00  0.00    +0.000 N 
ATOM      4  C   UNL     1       3.582   6.295  19.186  0.00  0.00    +0.000 C 
ATOM      5  C   UNL     1       2.306   6.615  19.948  0.00  0.00    +0.000 C 
ATOM      6  O   UNL     1       2.048   7.744  20.357  0.00  0.00    +0.000 OA
ATOM      7  N   UNL     1       1.374   5.617  20.009  0.00  0.00    +0.000 N 
ATOM      8  C   UNL     1       1.598   4.340  19.492  0.00  0.00    +0.000 A 
ATOM      9  C   UNL     1       0.523   3.443  19.469  0.00  0.00    +0.000 A 
ATOM     10  C   UNL     1       0.697   2.162  18.956  0.00  0.00    +0.000 A 
ATOM     11  C   UNL     1       1.941   1.776  18.471  0.00  0.00    +0.000 A 
ATOM     12  C   UNL     1       3.022   2.660  18.520  0.00  0.00    +0.000 A 
ATOM     13  C   UNL     1       2.877   3.952  19.044  0.00  0.00    +0.000 A 
ATOM     14  H   UNL     1       0.484   5.861  20.421  0.00  0.00    +0.000 HD
ENDROOT
BRANCH   1  15
ATOM     15  C   UNL     1       6.386   5.527  19.405  0.00  0.00    +0.000 C 
BRANCH  15  16
ATOM     16  O   UNL     1       6.964   5.900  18.156  0.00  0.00    +0.000 OA
BRANCH  16  17
ATOM     17  C   UNL     1       7.468   4.888  17.393  0.00  0.00    +0.000 C 
ATOM     18  O   UNL     1       8.357   4.124  17.752  0.00  0.00    +0.000 OA
BRANCH  17  22
ATOM     19  C   UNL     1       5.565   3.602  12.858  0.00  0.00    +0.000 C 
ATOM     20  C   UNL     1       6.058   4.198  14.110  0.00  0.00    +0.000 A 
ATOM     21  C   UNL     1       6.593   3.701  15.271  0.00  0.00    +0.000 A 
ATOM     22  C   UNL     1       6.863   4.849  16.062  0.00  0.00    +0.000 A 
ATOM     23  N   UNL     1       6.500   5.965  15.403  0.00  0.00    +0.000 NA
ATOM     24  O   UNL     1       5.998   5.552  14.190  0.00  0.00    +0.000 OA
ENDBRANCH  17  22
ENDBRANCH  16  17
ENDBRANCH  15  16
ENDBRANCH   1  15
TORSDOF 4
ENDMDL
MODEL 6
REMARK VINA RESULT:      -7.9      1.899      3.292
REMARK  Name = 
REMARK  5 active torsions:
REMARK  status: ('A' for Active; 'I' for Inactive)
REMARK    1  A    between atoms: C_1  and  C_2
REMARK    2  A    between atoms: C_4  and  C_5
REMARK    3  A    between atoms: C_5  and  O_7
REMARK    4  A    between atoms: O_7  and  C_8
REMARK    5  A    between atoms: C_8  and  C_9
REMARK                            x       y       z     vdW  Elec       q    Type
REMARK                         _______ _______ _______ _____ _____    ______ ____
ROOT
ATOM      1  C   UNL     1       4.061   3.949  17.054  0.00  0.00    +0.000 C 
ATOM      2  O   UNL     1       4.432   2.783  17.215  0.00  0.00    +0.000 OA
ATOM      3  N   UNL     1       3.179   4.618  17.915  0.00  0.00    +0.000 N 
ATOM      4  C   UNL     1       2.738   6.004  17.695  0.00  0.00    +0.000 C 
ATOM      5  C   UNL     1       2.583   6.850  18.950  0.00  0.00    +0.000 C 
ATOM      6  O   UNL     1       2.581   8.077  18.921  0.00  0.00    +0.000 OA
ATOM      7  N   UNL     1       2.272   6.174  20.096  0.00  0.00    +0.000 N 
ATOM      8  C   UNL     1       2.192   4.781  20.157  0.00  0.00    +0.000 A 
ATOM      9  C   UNL     1       1.716   4.202  21.339  0.00  0.00    +0.000 A 
ATOM     10  C   UNL     1       1.611   2.819  21.443  0.00  0.00    +0.000 A 
ATOM     11  C   UNL     1       1.983   2.016  20.370  0.00  0.00    +0.000 A 
ATOM     12  C   UNL     1       2.486   2.592  19.201  0.00  0.00    +0.000 A 
ATOM     13  C   UNL     1       2.614   3.982  19.075  0.00  0.00    +0.000 A 
ATOM     14  H   UNL     1       2.064   6.741  20.906  0.00  0.00    +0.000 HD
ENDROOT
BRANCH   1  15
ATOM     15  C   UNL     1       4.623   4.742  15.863  0.00  0.00    +0.000 C 
BRANCH  15  16
ATOM     16  O   UNL     1       5.820   4.162  15.350  0.00  0.00    +0.000 OA
BRANCH  16  17
ATOM     17  C   UNL     1       6.911   4.978  15.282  0.00  0.00    +0.000 C 
ATOM     18  O   UNL     1       7.523   5.235  14.251  0.00  0.00    +0.000 OA
BRANCH  17  22
ATOM     19  C   UNL     1       8.211   5.586  20.159  0.00  0.00    +0.000 C 
ATOM     20  C   UNL     1       7.863   5.647  18.730  0.00  0.00    +0.000 A 
ATOM     21  C   UNL     1       7.555   4.715  17.770  0.00  0.00    +0.000 A 
ATOM     22  C   UNL     1       7.308   5.477  16.598  0.00  0.00    +0.000 A 
ATOM     23  N   UNL     1       7.467   6.790  16.852  0.00  0.00    +0.000 NA
ATOM     24  O   UNL     1       7.814   6.887  18.180  0.00  0.00    +0.000 OA
ENDBRANCH  17  22
ENDBRANCH  16  17
ENDBRANCH  15  16
ENDBRANCH   1  15
TORSDOF 4
ENDMDL
MODEL 7
REMARK VINA RESULT:      -7.8      1.559      1.857
REMARK  Name = 
REMARK  5 active torsions:
REMARK  status: ('A' for Active; 'I' for Inactive)
REMARK    1  A    between atoms: C_1  and  C_2
REMARK    2  A    between atoms: C_4  and  C_5
REMARK    3  A    between atoms: C_5  and  O_7
REMARK    4  A    between atoms: O_7  and  C_8
REMARK    5  A    between atoms: C_8  and  C_9
REMARK                            x       y       z     vdW  Elec       q    Type
REMARK                         _______ _______ _______ _____ _____    ______ ____
ROOT
ATOM      1  C   UNL     1       5.181   4.573  19.186  0.00  0.00    +0.000 C 
ATOM      2  O   UNL     1       5.586   3.412  19.078  0.00  0.00    +0.000 OA
ATOM      3  N   UNL     1       3.826   4.929  19.252  0.00  0.00    +0.000 N 
ATOM      4  C   UNL     1       3.367   6.322  19.366  0.00  0.00    +0.000 C 
ATOM      5  C   UNL     1       2.152   6.541  20.254  0.00  0.00    +0.000 C 
ATOM      6  O   UNL     1       1.875   7.636  20.732  0.00  0.00    +0.000 OA
ATOM      7  N   UNL     1       1.284   5.491  20.355  0.00  0.00    +0.000 N 
ATOM      8  C   UNL     1       1.525   4.248  19.765  0.00  0.00    +0.000 A 
ATOM      9  C   UNL     1       0.500   3.294  19.802  0.00  0.00    +0.000 A 
ATOM     10  C   UNL     1       0.693   2.045  19.220  0.00  0.00    +0.000 A 
ATOM     11  C   UNL     1       1.905   1.748  18.607  0.00  0.00    +0.000 A 
ATOM     12  C   UNL     1       2.938   2.689  18.597  0.00  0.00    +0.000 A 
ATOM     13  C   UNL     1       2.775   3.950  19.187  0.00  0.00    +0.000 A 
ATOM     14  H   UNL     1       0.425   5.668  20.856  0.00  0.00    +0.000 HD
ENDROOT
BRANCH   1  15
ATOM     15  C   UNL     1       6.216   5.705  19.296  0.00  0.00    +0.000 C 
BRANCH  15  16
ATOM     16  O   UNL     1       6.940   5.890  18.082  0.00  0.00    +0.000 OA
BRANCH  16  17
ATOM     17  C   UNL     1       6.243   6.411  17.032  0.00  0.00    +0.000 C 
ATOM     18  O   UNL     1       5.457   7.349  17.117  0.00  0.00    +0.000 OA
BRANCH  17  22
ATOM     19  C   UNL     1       6.046   3.492  12.874  0.00  0.00    +0.000 C 
ATOM     20  C   UNL     1       6.324   4.393  14.005  0.00  0.00    +0.000 A 
ATOM     21  C   UNL     1       5.598   4.851  15.076  0.00  0.00    +0.000 A 
ATOM     22  C   UNL     1       6.498   5.687  15.787  0.00  0.00    +0.000 A 
ATOM     23  N   UNL     1       7.691   5.725  15.164  0.00  0.00    +0.000 NA
ATOM     24  O   UNL     1       7.574   4.919  14.054  0.00  0.00    +0.000 OA
ENDBRANCH  17  22
ENDBRANCH  16  17
ENDBRANCH  15  16
ENDBRANCH   1  15
TORSDOF 4
ENDMDL
MODEL 8
REMARK VINA RESULT:      -7.7      1.606      2.662
REMARK  Name = 
REMARK  5 active torsions:
REMARK  status: ('A' for Active; 'I' for Inactive)
REMARK    1  A    between atoms: C_1  and  C_2
REMARK    2  A    between atoms: C_4  and  C_5
REMARK    3  A    between atoms: C_5  and  O_7
REMARK    4  A    between atoms: O_7  and  C_8
REMARK    5  A    between atoms: C_8  and  C_9
REMARK                            x       y       z     vdW  Elec       q    Type
REMARK                         _______ _______ _______ _____ _____    ______ ____
ROOT
ATOM      1  C   UNL     1       4.204   6.612  17.079  0.00  0.00    +0.000 C 
ATOM      2  O   UNL     1       3.748   7.750  17.215  0.00  0.00    +0.000 OA
ATOM      3  N   UNL     1       3.861   5.526  17.897  0.00  0.00    +0.000 N 
ATOM      4  C   UNL     1       4.429   4.180  17.725  0.00  0.00    +0.000 C 
ATOM      5  C   UNL     1       3.470   3.027  17.971  0.00  0.00    +0.000 C 
ATOM      6  O   UNL     1       3.670   1.898  17.531  0.00  0.00    +0.000 OA
ATOM      7  N   UNL     1       2.454   3.267  18.853  0.00  0.00    +0.000 N 
ATOM      8  C   UNL     1       2.234   4.517  19.433  0.00  0.00    +0.000 A 
ATOM      9  C   UNL     1       1.264   4.613  20.438  0.00  0.00    +0.000 A 
ATOM     10  C   UNL     1       1.016   5.838  21.051  0.00  0.00    +0.000 A 
ATOM     11  C   UNL     1       1.732   6.963  20.658  0.00  0.00    +0.000 A 
ATOM     12  C   UNL     1       2.679   6.875  19.635  0.00  0.00    +0.000 A 
ATOM     13  C   UNL     1       2.939   5.656  18.992  0.00  0.00    +0.000 A 
ATOM     14  H   UNL     1       1.880   2.473  19.099  0.00  0.00    +0.000 HD
ENDROOT
BRANCH   1  15
ATOM     15  C   UNL     1       5.178   6.345  15.920  0.00  0.00    +0.000 C 
BRANCH  15  16
ATOM     16  O   UNL     1       6.534   6.297  16.359  0.00  0.00    +0.000 OA
BRANCH  16  17
ATOM     17  C   UNL     1       7.227   5.158  16.071  0.00  0.00    +0.000 C 
ATOM     18  O   UNL     1       7.974   4.583  16.855  0.00  0.00    +0.000 OA
BRANCH  17  22
ATOM     19  C   UNL     1       5.794   2.865  11.766  0.00  0.00    +0.000 C 
ATOM     20  C   UNL     1       6.343   3.667  12.871  0.00  0.00    +0.000 A 
ATOM     21  C   UNL     1       6.141   3.709  14.228  0.00  0.00    +0.000 A 
ATOM     22  C   UNL     1       7.021   4.722  14.690  0.00  0.00    +0.000 A 
ATOM     23  N   UNL     1       7.702   5.255  13.658  0.00  0.00    +0.000 NA
ATOM     24  O   UNL     1       7.273   4.595  12.529  0.00  0.00    +0.000 OA
ENDBRANCH  17  22
ENDBRANCH  16  17
ENDBRANCH  15  16
ENDBRANCH   1  15
TORSDOF 4
ENDMDL
MODEL 9
REMARK VINA RESULT:      -7.7      2.511      4.090
REMARK  Name = 
REMARK  5 active torsions:
REMARK  status: ('A' for Active; 'I' for Inactive)
REMARK    1  A    between atoms: C_1  and  C_2
REMARK    2  A    between atoms: C_4  and  C_5
REMARK    3  A    between atoms: C_5  and  O_7
REMARK    4  A    between atoms: O_7  and  C_8
REMARK    5  A    between atoms: C_8  and  C_9
REMARK                            x       y       z     vdW  Elec       q    Type
REMARK                         _______ _______ _______ _____ _____    ______ ____
ROOT
ATOM      1  C   UNL     1       4.219   4.869  17.186  0.00  0.00    +0.000 C 
ATOM      2  O   UNL     1       4.708   3.738  17.126  0.00  0.00    +0.000 OA
ATOM      3  N   UNL     1       3.201   5.237  18.077  0.00  0.00    +0.000 N 
ATOM      4  C   UNL     1       2.622   6.589  18.121  0.00  0.00    +0.000 C 
ATOM      5  C   UNL     1       2.272   7.108  19.506  0.00  0.00    +0.000 C 
ATOM      6  O   UNL     1       2.131   8.304  19.746  0.00  0.00    +0.000 OA
ATOM      7  N   UNL     1       1.953   6.163  20.440  0.00  0.00    +0.000 N 
ATOM      8  C   UNL     1       2.029   4.792  20.187  0.00  0.00    +0.000 A 
ATOM      9  C   UNL     1       1.532   3.917  21.160  0.00  0.00    +0.000 A 
ATOM     10  C   UNL     1       1.580   2.542  20.948  0.00  0.00    +0.000 A 
ATOM     11  C   UNL     1       2.125   2.044  19.770  0.00  0.00    +0.000 A 
ATOM     12  C   UNL     1       2.648   2.916  18.812  0.00  0.00    +0.000 A 
ATOM     13  C   UNL     1       2.625   4.304  19.006  0.00  0.00    +0.000 A 
ATOM     14  H   UNL     1       1.617   6.508  21.328  0.00  0.00    +0.000 HD
ENDROOT
BRANCH   1  15
ATOM     15  C   UNL     1       4.778   5.962  16.260  0.00  0.00    +0.000 C 
BRANCH  15  16
ATOM     16  O   UNL     1       5.590   6.898  16.964  0.00  0.00    +0.000 OA
BRANCH  16  17
ATOM     17  C   UNL     1       6.939   6.778  16.798  0.00  0.00    +0.000 C 
ATOM     18  O   UNL     1       7.478   5.953  16.068  0.00  0.00    +0.000 OA
BRANCH  17  22
ATOM     19  C   UNL     1       9.187  10.817  18.914  0.00  0.00    +0.000 C 
ATOM     20  C   UNL     1       8.626   9.525  18.486  0.00  0.00    +0.000 A 
ATOM     21  C   UNL     1       7.812   9.118  17.459  0.00  0.00    +0.000 A 
ATOM     22  C   UNL     1       7.683   7.716  17.638  0.00  0.00    +0.000 A 
ATOM     23  N   UNL     1       8.379   7.317  18.719  0.00  0.00    +0.000 NA
ATOM     24  O   UNL     1       8.963   8.449  19.243  0.00  0.00    +0.000 OA
ENDBRANCH  17  22
ENDBRANCH  16  17
ENDBRANCH  15  16
ENDBRANCH   1  15
TORSDOF 4
ENDMDL
