MODEL 1
REMARK VINA RESULT:      -6.7      0.000      0.000
REMARK  Name = 
REMARK  5 active torsions:
REMARK  status: ('A' for Active; 'I' for Inactive)
REMARK    1  A    between atoms: C_1  and  C_2
REMARK    2  A    between atoms: C_6  and  C_7
REMARK    3  A    between atoms: C_11  and  C_12
REMARK    4  A    between atoms: C_15  and  N_16
REMARK    5  A    between atoms: C_18  and  C_19
REMARK                            x       y       z     vdW  Elec       q    Type
REMARK                         _______ _______ _______ _____ _____    ______ ____
ROOT
ATOM      1  C   UNL     1       3.645  16.308  17.487  0.00  0.00    +0.000 C 
ATOM      2  C   UNL     1       3.865  14.997  18.245  0.00  0.00    +0.000 C 
ATOM      3  C   UNL     1       2.596  14.113  18.231  0.00  0.00    +0.000 C 
ATOM      4  O   UNL     1       1.527  14.674  19.011  0.00  0.00    +0.000 OA
ATOM      5  C   UNL     1       1.930  14.826  20.385  0.00  0.00    +0.000 C 
ATOM      6  C   UNL     1       3.147  15.763  20.511  0.00  0.00    +0.000 C 
ATOM      7  C   UNL     1       3.497  16.027  21.972  0.00  0.00    +0.000 C 
ATOM      8  N   UNL     1       4.238  15.280  19.644  0.00  0.00    +0.000 N 
ATOM      9  C   UNL     1       5.469  14.860  20.078  0.00  0.00    +0.000 A 
ATOM     10  N   UNL     1       6.488  14.975  19.242  0.00  0.00    +0.000 NA
ATOM     11  C   UNL     1       7.685  14.739  19.760  0.00  0.00    +0.000 A 
ATOM     12  N   UNL     1       7.915  14.417  21.022  0.00  0.00    +0.000 NA
ATOM     13  C   UNL     1       6.844  14.166  21.757  0.00  0.00    +0.000 A 
ATOM     14  N   UNL     1       7.023  13.607  22.994  0.00  0.00    +0.000 N 
ATOM     15  C   UNL     1       5.900  13.273  23.863  0.00  0.00    +0.000 C 
ATOM     16  C   UNL     1       6.166  11.907  24.522  0.00  0.00    +0.000 C 
ATOM     17  O   UNL     1       7.431  11.884  25.205  0.00  0.00    +0.000 OA
ATOM     18  C   UNL     1       8.504  12.151  24.283  0.00  0.00    +0.000 C 
ATOM     19  C   UNL     1       8.343  13.526  23.616  0.00  0.00    +0.000 C 
ATOM     20  N   UNL     1       5.614  14.391  21.313  0.00  0.00    +0.000 NA
ENDROOT
BRANCH  11  21
ATOM     21  C   UNL     1       8.848  14.917  18.884  0.00  0.00    +0.000 A 
ATOM     22  C   UNL     1       9.367  16.206  18.708  0.00  0.00    +0.000 A 
ATOM     23  N   UNL     1      10.469  16.526  17.984  0.00  0.00    +0.000 NA
ATOM     24  C   UNL     1      11.120  15.523  17.392  0.00  0.00    +0.000 A 
ATOM     25  C   UNL     1      10.685  14.211  17.476  0.00  0.00    +0.000 A 
ATOM     26  C   UNL     1       9.519  13.890  18.203  0.00  0.00    +0.000 A 
BRANCH  26  27
ATOM     27  C   UNL     1       9.099  12.438  18.162  0.00  0.00    +0.000 C 
ATOM     28  F   UNL     1       8.874  11.812  19.343  0.00  0.00    +0.000 F 
ATOM     29  F   UNL     1       7.916  12.298  17.488  0.00  0.00    +0.000 F 
ATOM     30  F   UNL     1       9.990  11.664  17.480  0.00  0.00    +0.000 F 
ENDBRANCH  26  27
BRANCH  24  31
ATOM     31  N   UNL     1      12.294  15.841  16.723  0.00  0.00    +0.000 N 
ATOM     32  H   UNL     1      12.694  14.969  16.385  0.00  0.00    +0.000 HD
ATOM     33  H   UNL     1      12.944  16.360  17.300  0.00  0.00    +0.000 HD
ENDBRANCH  24  31
ENDBRANCH  11  21
TORSDOF 3
ENDMDL
MODEL 2
REMARK VINA RESULT:      -6.7      3.171      7.345
REMARK  Name = 
REMARK  5 active torsions:
REMARK  status: ('A' for Active; 'I' for Inactive)
REMARK    1  A    between atoms: C_1  and  C_2
REMARK    2  A    between atoms: C_6  and  C_7
REMARK    3  A    between atoms: C_11  and  C_12
REMARK    4  A    between atoms: C_15  and  N_16
REMARK    5  A    between atoms: C_18  and  C_19
REMARK                            x       y       z     vdW  Elec       q    Type
REMARK                         _______ _______ _______ _____ _____    ______ ____
ROOT
ATOM      1  C   UNL     1      11.447  11.888  20.369  0.00  0.00    +0.000 C 
ATOM      2  C   UNL     1      10.086  12.052  19.688  0.00  0.00    +0.000 C 
ATOM      3  C   UNL     1      10.131  11.592  18.212  0.00  0.00    +0.000 C 
ATOM      4  O   UNL     1      10.925  12.462  17.390  0.00  0.00    +0.000 OA
ATOM      5  C   UNL     1      10.394  13.800  17.408  0.00  0.00    +0.000 C 
ATOM      6  C   UNL     1      10.385  14.380  18.835  0.00  0.00    +0.000 C 
ATOM      7  C   UNL     1       9.942  15.840  18.841  0.00  0.00    +0.000 C 
ATOM      8  N   UNL     1       9.664  13.464  19.740  0.00  0.00    +0.000 N 
ATOM      9  C   UNL     1       8.513  13.767  20.421  0.00  0.00    +0.000 A 
ATOM     10  N   UNL     1       8.282  13.121  21.553  0.00  0.00    +0.000 NA
ATOM     11  C   UNL     1       7.266  13.573  22.274  0.00  0.00    +0.000 A 
ATOM     12  N   UNL     1       6.502  14.603  21.948  0.00  0.00    +0.000 NA
ATOM     13  C   UNL     1       6.690  15.098  20.735  0.00  0.00    +0.000 A 
ATOM     14  N   UNL     1       5.783  16.004  20.256  0.00  0.00    +0.000 N 
ATOM     15  C   UNL     1       5.896  16.583  18.922  0.00  0.00    +0.000 C 
ATOM     16  C   UNL     1       4.497  16.637  18.280  0.00  0.00    +0.000 C 
ATOM     17  O   UNL     1       3.555  17.332  19.116  0.00  0.00    +0.000 OA
ATOM     18  C   UNL     1       3.436  16.673  20.391  0.00  0.00    +0.000 C 
ATOM     19  C   UNL     1       4.784  16.623  21.126  0.00  0.00    +0.000 C 
ATOM     20  N   UNL     1       7.694  14.706  19.960  0.00  0.00    +0.000 NA
ENDROOT
BRANCH  11  21
ATOM     21  C   UNL     1       7.013  12.926  23.566  0.00  0.00    +0.000 A 
ATOM     22  C   UNL     1       6.117  11.850  23.615  0.00  0.00    +0.000 A 
ATOM     23  N   UNL     1       5.825  11.110  24.715  0.00  0.00    +0.000 NA
ATOM     24  C   UNL     1       6.451  11.432  25.847  0.00  0.00    +0.000 A 
ATOM     25  C   UNL     1       7.339  12.492  25.923  0.00  0.00    +0.000 A 
ATOM     26  C   UNL     1       7.613  13.278  24.785  0.00  0.00    +0.000 A 
BRANCH  26  27
ATOM     27  C   UNL     1       8.539  14.453  25.004  0.00  0.00    +0.000 C 
ATOM     28  F   UNL     1       9.474  14.706  24.056  0.00  0.00    +0.000 F 
ATOM     29  F   UNL     1       7.826  15.619  25.079  0.00  0.00    +0.000 F 
ATOM     30  F   UNL     1       9.205  14.367  26.190  0.00  0.00    +0.000 F 
ENDBRANCH  26  27
BRANCH  24  31
ATOM     31  N   UNL     1       6.215  10.622  26.950  0.00  0.00    +0.000 N 
ATOM     32  H   UNL     1       5.956   9.703  26.598  0.00  0.00    +0.000 HD
ATOM     33  H   UNL     1       5.513  11.003  27.572  0.00  0.00    +0.000 HD
ENDBRANCH  24  31
ENDBRANCH  11  21
TORSDOF 3
ENDMDL
MODEL 3
REMARK VINA RESULT:      -6.7      3.074      7.035
REMARK  Name = 
REMARK  5 active torsions:
REMARK  status: ('A' for Active; 'I' for Inactive)
REMARK    1  A    between atoms: C_1  and  C_2
REMARK    2  A    between atoms: C_6  and  C_7
REMARK    3  A    between atoms: C_11  and  C_12
REMARK    4  A    between atoms: C_15  and  N_16
REMARK    5  A    between atoms: C_18  and  C_19
REMARK                            x       y       z     vdW  Elec       q    Type
REMARK                         _______ _______ _______ _____ _____    ______ ____
ROOT
ATOM      1  C   UNL     1      11.944  11.974  20.190  0.00  0.00    +0.000 C 
ATOM      2  C   UNL     1      10.461  12.098  19.832  0.00  0.00    +0.000 C 
ATOM      3  C   UNL     1      10.118  11.304  18.549  0.00  0.00    +0.000 C 
ATOM      4  O   UNL     1      10.706  11.881  17.372  0.00  0.00    +0.000 OA
ATOM      5  C   UNL     1      10.238  13.229  17.182  0.00  0.00    +0.000 C 
ATOM      6  C   UNL     1      10.607  14.125  18.379  0.00  0.00    +0.000 C 
ATOM      7  C   UNL     1      10.224  15.580  18.126  0.00  0.00    +0.000 C 
ATOM      8  N   UNL     1      10.109  13.516  19.628  0.00  0.00    +0.000 N 
ATOM      9  C   UNL     1       9.177  14.073  20.464  0.00  0.00    +0.000 A 
ATOM     10  N   UNL     1       9.218  13.733  21.743  0.00  0.00    +0.000 NA
ATOM     11  C   UNL     1       8.431  14.433  22.548  0.00  0.00    +0.000 A 
ATOM     12  N   UNL     1       7.641  15.423  22.165  0.00  0.00    +0.000 NA
ATOM     13  C   UNL     1       7.533  15.601  20.859  0.00  0.00    +0.000 A 
ATOM     14  N   UNL     1       6.562  16.450  20.398  0.00  0.00    +0.000 N 
ATOM     15  C   UNL     1       6.353  16.688  18.974  0.00  0.00    +0.000 C 
ATOM     16  C   UNL     1       4.841  16.718  18.689  0.00  0.00    +0.000 C 
ATOM     17  O   UNL     1       4.161  17.672  19.524  0.00  0.00    +0.000 OA
ATOM     18  C   UNL     1       4.346  17.344  20.913  0.00  0.00    +0.000 C 
ATOM     19  C   UNL     1       5.834  17.343  21.297  0.00  0.00    +0.000 C 
ATOM     20  N   UNL     1       8.297  14.949  19.991  0.00  0.00    +0.000 NA
ENDROOT
BRANCH  11  21
ATOM     21  C   UNL     1       8.491  14.131  23.982  0.00  0.00    +0.000 A 
ATOM     22  C   UNL     1       9.124  15.045  24.836  0.00  0.00    +0.000 A 
ATOM     23  N   UNL     1       9.208  14.942  26.186  0.00  0.00    +0.000 NA
ATOM     24  C   UNL     1       8.633  13.881  26.752  0.00  0.00    +0.000 A 
ATOM     25  C   UNL     1       8.000  12.900  26.006  0.00  0.00    +0.000 A 
ATOM     26  C   UNL     1       7.945  12.996  24.600  0.00  0.00    +0.000 A 
BRANCH  26  27
ATOM     27  C   UNL     1       7.297  11.831  23.887  0.00  0.00    +0.000 C 
ATOM     28  F   UNL     1       6.393  12.109  22.916  0.00  0.00    +0.000 F 
ATOM     29  F   UNL     1       8.241  11.073  23.247  0.00  0.00    +0.000 F 
ATOM     30  F   UNL     1       6.682  10.976  24.753  0.00  0.00    +0.000 F 
ENDBRANCH  26  27
BRANCH  24  31
ATOM     31  N   UNL     1       8.647  13.821  28.139  0.00  0.00    +0.000 N 
ATOM     32  H   UNL     1       7.724  13.513  28.436  0.00  0.00    +0.000 HD
ATOM     33  H   UNL     1       8.911  14.700  28.565  0.00  0.00    +0.000 HD
ENDBRANCH  24  31
ENDBRANCH  11  21
TORSDOF 3
ENDMDL
MODEL 4
REMARK VINA RESULT:      -6.5      7.024     10.530
REMARK  Name = 
REMARK  5 active torsions:
REMARK  status: ('A' for Active; 'I' for Inactive)
REMARK    1  A    between atoms: C_1  and  C_2
REMARK    2  A    between atoms: C_6  and  C_7
REMARK    3  A    between atoms: C_11  and  C_12
REMARK    4  A    between atoms: C_15  and  N_16
REMARK    5  A    between atoms: C_18  and  C_19
REMARK                            x       y       z     vdW  Elec       q    Type
REMARK                         _______ _______ _______ _____ _____    ______ ____
ROOT
ATOM      1  C   UNL     1      -1.109  15.288  24.497  0.00  0.00    +0.000 C 
ATOM      2  C   UNL     1      -2.104  15.643  23.390  0.00  0.00    +0.000 C 
ATOM      3  C   UNL     1      -2.966  16.869  23.774  0.00  0.00    +0.000 C 
ATOM      4  O   UNL     1      -3.880  16.584  24.846  0.00  0.00    +0.000 OA
ATOM      5  C   UNL     1      -4.780  15.523  24.475  0.00  0.00    +0.000 C 
ATOM      6  C   UNL     1      -4.014  14.226  24.152  0.00  0.00    +0.000 C 
ATOM      7  C   UNL     1      -4.970  13.068  23.882  0.00  0.00    +0.000 C 
ATOM      8  N   UNL     1      -2.991  14.495  23.123  0.00  0.00    +0.000 N 
ATOM      9  C   UNL     1      -2.957  13.934  21.873  0.00  0.00    +0.000 A 
ATOM     10  N   UNL     1      -1.778  13.819  21.283  0.00  0.00    +0.000 NA
ATOM     11  C   UNL     1      -1.762  13.104  20.167  0.00  0.00    +0.000 A 
ATOM     12  N   UNL     1      -2.816  12.509  19.632  0.00  0.00    +0.000 NA
ATOM     13  C   UNL     1      -3.983  12.797  20.185  0.00  0.00    +0.000 A 
ATOM     14  N   UNL     1      -5.123  12.401  19.539  0.00  0.00    +0.000 N 
ATOM     15  C   UNL     1      -6.452  12.696  20.061  0.00  0.00    +0.000 C 
ATOM     16  C   UNL     1      -7.365  13.120  18.896  0.00  0.00    +0.000 C 
ATOM     17  O   UNL     1      -7.379  12.137  17.847  0.00  0.00    +0.000 OA
ATOM     18  C   UNL     1      -6.052  11.941  17.325  0.00  0.00    +0.000 C 
ATOM     19  C   UNL     1      -5.083  11.464  18.418  0.00  0.00    +0.000 C 
ATOM     20  N   UNL     1      -4.078  13.495  21.310  0.00  0.00    +0.000 NA
ENDROOT
BRANCH  11  21
ATOM     21  C   UNL     1      -0.465  12.899  19.514  0.00  0.00    +0.000 A 
ATOM     22  C   UNL     1       0.148  13.986  18.878  0.00  0.00    +0.000 A 
ATOM     23  N   UNL     1       1.369  13.974  18.286  0.00  0.00    +0.000 NA
ATOM     24  C   UNL     1       2.048  12.828  18.318  0.00  0.00    +0.000 A 
ATOM     25  C   UNL     1       1.533  11.681  18.898  0.00  0.00    +0.000 A 
ATOM     26  C   UNL     1       0.249  11.691  19.482  0.00  0.00    +0.000 A 
BRANCH  26  27
ATOM     27  C   UNL     1      -0.240  10.363  20.016  0.00  0.00    +0.000 C 
ATOM     28  F   UNL     1      -0.793  10.346  21.254  0.00  0.00    +0.000 F 
ATOM     29  F   UNL     1      -1.225   9.855  19.212  0.00  0.00    +0.000 F 
ATOM     30  F   UNL     1       0.740   9.417  20.018  0.00  0.00    +0.000 F 
ENDBRANCH  26  27
BRANCH  24  31
ATOM     31  N   UNL     1       3.332  12.840  17.787  0.00  0.00    +0.000 N 
ATOM     32  H   UNL     1       3.815  13.641  18.189  0.00  0.00    +0.000 HD
ATOM     33  H   UNL     1       3.335  12.861  16.775  0.00  0.00    +0.000 HD
ENDBRANCH  24  31
ENDBRANCH  11  21
TORSDOF 3
ENDMDL
MODEL 5
REMARK VINA RESULT:      -6.4      6.179      9.087
REMARK  Name = 
REMARK  5 active torsions:
REMARK  status: ('A' for Active; 'I' for Inactive)
REMARK    1  A    between atoms: C_1  and  C_2
REMARK    2  A    between atoms: C_6  and  C_7
REMARK    3  A    between atoms: C_11  and  C_12
REMARK    4  A    between atoms: C_15  and  N_16
REMARK    5  A    between atoms: C_18  and  C_19
REMARK                            x       y       z     vdW  Elec       q    Type
REMARK                         _______ _______ _______ _____ _____    ______ ____
ROOT
ATOM      1  C   UNL     1       2.608  15.395  17.810  0.00  0.00    +0.000 C 
ATOM      2  C   UNL     1       1.364  15.853  18.575  0.00  0.00    +0.000 C 
ATOM      3  C   UNL     1       1.325  17.392  18.725  0.00  0.00    +0.000 C 
ATOM      4  O   UNL     1       2.350  17.884  19.603  0.00  0.00    +0.000 OA
ATOM      5  C   UNL     1       2.203  17.319  20.919  0.00  0.00    +0.000 C 
ATOM      6  C   UNL     1       2.311  15.783  20.884  0.00  0.00    +0.000 C 
ATOM      7  C   UNL     1       2.283  15.191  22.290  0.00  0.00    +0.000 C 
ATOM      8  N   UNL     1       1.341  15.238  19.915  0.00  0.00    +0.000 N 
ATOM      9  C   UNL     1       0.298  14.404  20.222  0.00  0.00    +0.000 A 
ATOM     10  N   UNL     1      -0.134  13.586  19.275  0.00  0.00    +0.000 NA
ATOM     11  C   UNL     1      -1.009  12.669  19.664  0.00  0.00    +0.000 A 
ATOM     12  N   UNL     1      -1.453  12.520  20.902  0.00  0.00    +0.000 NA
ATOM     13  C   UNL     1      -1.102  13.467  21.757  0.00  0.00    +0.000 A 
ATOM     14  N   UNL     1      -1.714  13.494  22.981  0.00  0.00    +0.000 N 
ATOM     15  C   UNL     1      -1.408  14.514  23.978  0.00  0.00    +0.000 C 
ATOM     16  C   UNL     1      -2.719  14.975  24.640  0.00  0.00    +0.000 C 
ATOM     17  O   UNL     1      -3.461  13.866  25.180  0.00  0.00    +0.000 OA
ATOM     18  C   UNL     1      -3.792  12.930  24.138  0.00  0.00    +0.000 C 
ATOM     19  C   UNL     1      -2.530  12.378  23.456  0.00  0.00    +0.000 C 
ATOM     20  N   UNL     1      -0.221  14.409  21.446  0.00  0.00    +0.000 NA
ENDROOT
BRANCH  11  21
ATOM     21  C   UNL     1      -1.466  11.702  18.660  0.00  0.00    +0.000 A 
ATOM     22  C   UNL     1      -2.729  11.881  18.080  0.00  0.00    +0.000 A 
ATOM     23  N   UNL     1      -3.267  11.114  17.099  0.00  0.00    +0.000 NA
ATOM     24  C   UNL     1      -2.525  10.105  16.641  0.00  0.00    +0.000 A 
ATOM     25  C   UNL     1      -1.272   9.818  17.155  0.00  0.00    +0.000 A 
ATOM     26  C   UNL     1      -0.733  10.599  18.199  0.00  0.00    +0.000 A 
BRANCH  26  27
ATOM     27  C   UNL     1       0.608  10.146  18.732  0.00  0.00    +0.000 C 
ATOM     28  F   UNL     1       0.691   9.832  20.048  0.00  0.00    +0.000 F 
ATOM     29  F   UNL     1       1.017   9.004  18.097  0.00  0.00    +0.000 F 
ATOM     30  F   UNL     1       1.592  11.058  18.490  0.00  0.00    +0.000 F 
ENDBRANCH  26  27
BRANCH  24  31
ATOM     31  N   UNL     1      -3.042   9.374  15.579  0.00  0.00    +0.000 N 
ATOM     32  H   UNL     1      -3.526  10.030  14.970  0.00  0.00    +0.000 HD
ATOM     33  H   UNL     1      -3.645   8.619  15.881  0.00  0.00    +0.000 HD
ENDBRANCH  24  31
ENDBRANCH  11  21
TORSDOF 3
ENDMDL
MODEL 6
REMARK VINA RESULT:      -6.4      7.510     11.053
REMARK  Name = 
REMARK  5 active torsions:
REMARK  status: ('A' for Active; 'I' for Inactive)
REMARK    1  A    between atoms: C_1  and  C_2
REMARK    2  A    between atoms: C_6  and  C_7
REMARK    3  A    between atoms: C_11  and  C_12
REMARK    4  A    between atoms: C_15  and  N_16
REMARK    5  A    between atoms: C_18  and  C_19
REMARK                            x       y       z     vdW  Elec       q    Type
REMARK                         _______ _______ _______ _____ _____    ______ ____
ROOT
ATOM      1  C   UNL     1       1.417  14.224  20.229  0.00  0.00    +0.000 C 
ATOM      2  C   UNL     1       0.071  14.950  20.292  0.00  0.00    +0.000 C 
ATOM      3  C   UNL     1       0.248  16.445  20.647  0.00  0.00    +0.000 C 
ATOM      4  O   UNL     1       0.697  16.638  21.999  0.00  0.00    +0.000 OA
ATOM      5  C   UNL     1      -0.250  16.083  22.931  0.00  0.00    +0.000 C 
ATOM      6  C   UNL     1      -0.434  14.570  22.708  0.00  0.00    +0.000 C 
ATOM      7  C   UNL     1      -1.338  13.956  23.772  0.00  0.00    +0.000 C 
ATOM      8  N   UNL     1      -0.798  14.315  21.301  0.00  0.00    +0.000 N 
ATOM      9  C   UNL     1      -1.974  13.756  20.875  0.00  0.00    +0.000 A 
ATOM     10  N   UNL     1      -1.963  13.103  19.724  0.00  0.00    +0.000 NA
ATOM     11  C   UNL     1      -3.063  12.419  19.441  0.00  0.00    +0.000 A 
ATOM     12  N   UNL     1      -4.130  12.343  20.220  0.00  0.00    +0.000 NA
ATOM     13  C   UNL     1      -4.133  13.143  21.273  0.00  0.00    +0.000 A 
ATOM     14  N   UNL     1      -5.297  13.279  21.982  0.00  0.00    +0.000 N 
ATOM     15  C   UNL     1      -5.399  14.158  23.142  0.00  0.00    +0.000 C 
ATOM     16  C   UNL     1      -6.743  14.907  23.084  0.00  0.00    +0.000 C 
ATOM     17  O   UNL     1      -7.853  13.999  22.967  0.00  0.00    +0.000 OA
ATOM     18  C   UNL     1      -7.731  13.210  21.769  0.00  0.00    +0.000 C 
ATOM     19  C   UNL     1      -6.433  12.386  21.769  0.00  0.00    +0.000 C 
ATOM     20  N   UNL     1      -3.066  13.848  21.628  0.00  0.00    +0.000 NA
ENDROOT
BRANCH  11  21
ATOM     21  C   UNL     1      -3.070  11.630  18.205  0.00  0.00    +0.000 A 
ATOM     22  C   UNL     1      -4.188  11.708  17.363  0.00  0.00    +0.000 A 
ATOM     23  N   UNL     1      -4.320  11.093  16.161  0.00  0.00    +0.000 NA
ATOM     24  C   UNL     1      -3.293  10.353  15.741  0.00  0.00    +0.000 A 
ATOM     25  C   UNL     1      -2.147  10.183  16.500  0.00  0.00    +0.000 A 
ATOM     26  C   UNL     1      -2.030  10.799  17.763  0.00  0.00    +0.000 A 
BRANCH  26  27
ATOM     27  C   UNL     1      -0.767  10.481  18.533  0.00  0.00    +0.000 C 
ATOM     28  F   UNL     1      -0.900  10.022  19.801  0.00  0.00    +0.000 F 
ATOM     29  F   UNL     1      -0.054   9.497  17.903  0.00  0.00    +0.000 F 
ATOM     30  F   UNL     1       0.078  11.548  18.596  0.00  0.00    +0.000 F 
ENDBRANCH  26  27
BRANCH  24  31
ATOM     31  N   UNL     1      -3.397   9.793  14.474  0.00  0.00    +0.000 N 
ATOM     32  H   UNL     1      -4.368   9.517  14.345  0.00  0.00    +0.000 HD
ATOM     33  H   UNL     1      -2.759   9.019  14.336  0.00  0.00    +0.000 HD
ENDBRANCH  24  31
ENDBRANCH  11  21
TORSDOF 3
ENDMDL
MODEL 7
REMARK VINA RESULT:      -6.4      7.666     11.657
REMARK  Name = 
REMARK  5 active torsions:
REMARK  status: ('A' for Active; 'I' for Inactive)
REMARK    1  A    between atoms: C_1  and  C_2
REMARK    2  A    between atoms: C_6  and  C_7
REMARK    3  A    between atoms: C_11  and  C_12
REMARK    4  A    between atoms: C_15  and  N_16
REMARK    5  A    between atoms: C_18  and  C_19
REMARK                            x       y       z     vdW  Elec       q    Type
REMARK                         _______ _______ _______ _____ _____    ______ ____
ROOT
ATOM      1  C   UNL     1      -0.005   9.435  20.821  0.00  0.00    +0.000 C 
ATOM      2  C   UNL     1      -0.404  10.410  19.711  0.00  0.00    +0.000 C 
ATOM      3  C   UNL     1       0.148   9.963  18.337  0.00  0.00    +0.000 C 
ATOM      4  O   UNL     1       1.579  10.071  18.258  0.00  0.00    +0.000 OA
ATOM      5  C   UNL     1       1.996  11.432  18.467  0.00  0.00    +0.000 C 
ATOM      6  C   UNL     1       1.561  11.945  19.853  0.00  0.00    +0.000 C 
ATOM      7  C   UNL     1       2.110  13.342  20.128  0.00  0.00    +0.000 C 
ATOM      8  N   UNL     1       0.107  11.760  20.018  0.00  0.00    +0.000 N 
ATOM      9  C   UNL     1      -0.806  12.767  20.195  0.00  0.00    +0.000 A 
ATOM     10  N   UNL     1      -1.920  12.479  20.848  0.00  0.00    +0.000 NA
ATOM     11  C   UNL     1      -2.684  13.516  21.163  0.00  0.00    +0.000 A 
ATOM     12  N   UNL     1      -2.404  14.778  20.883  0.00  0.00    +0.000 NA
ATOM     13  C   UNL     1      -1.360  14.975  20.095  0.00  0.00    +0.000 A 
ATOM     14  N   UNL     1      -1.160  16.230  19.585  0.00  0.00    +0.000 N 
ATOM     15  C   UNL     1      -0.051  16.534  18.688  0.00  0.00    +0.000 C 
ATOM     16  C   UNL     1      -0.557  17.452  17.561  0.00  0.00    +0.000 C 
ATOM     17  O   UNL     1      -1.198  18.630  18.081  0.00  0.00    +0.000 OA
ATOM     18  C   UNL     1      -2.325  18.267  18.900  0.00  0.00    +0.000 C 
ATOM     19  C   UNL     1      -1.898  17.388  20.086  0.00  0.00    +0.000 C 
ATOM     20  N   UNL     1      -0.541  13.991  19.748  0.00  0.00    +0.000 NA
ENDROOT
BRANCH  11  21
ATOM     21  C   UNL     1      -3.898  13.248  21.942  0.00  0.00    +0.000 A 
ATOM     22  C   UNL     1      -4.994  12.658  21.300  0.00  0.00    +0.000 A 
ATOM     23  N   UNL     1      -6.158  12.292  21.892  0.00  0.00    +0.000 NA
ATOM     24  C   UNL     1      -6.268  12.509  23.203  0.00  0.00    +0.000 A 
ATOM     25  C   UNL     1      -5.259  13.109  23.938  0.00  0.00    +0.000 A 
ATOM     26  C   UNL     1      -4.064  13.517  23.310  0.00  0.00    +0.000 A 
BRANCH  26  27
ATOM     27  C   UNL     1      -3.066  14.228  24.196  0.00  0.00    +0.000 C 
ATOM     28  F   UNL     1      -3.279  14.202  25.534  0.00  0.00    +0.000 F 
ATOM     29  F   UNL     1      -1.819  13.680  24.053  0.00  0.00    +0.000 F 
ATOM     30  F   UNL     1      -2.918  15.539  23.854  0.00  0.00    +0.000 F 
ENDBRANCH  26  27
BRANCH  24  31
ATOM     31  N   UNL     1      -7.426  12.057  23.822  0.00  0.00    +0.000 N 
ATOM     32  H   UNL     1      -7.164  11.270  24.412  0.00  0.00    +0.000 HD
ATOM     33  H   UNL     1      -8.152  11.813  23.161  0.00  0.00    +0.000 HD
ENDBRANCH  24  31
ENDBRANCH  11  21
TORSDOF 3
ENDMDL
MODEL 8
REMARK VINA RESULT:      -6.4      8.651     11.393
REMARK  Name = 
REMARK  5 active torsions:
REMARK  status: ('A' for Active; 'I' for Inactive)
REMARK    1  A    between atoms: C_1  and  C_2
REMARK    2  A    between atoms: C_6  and  C_7
REMARK    3  A    between atoms: C_11  and  C_12
REMARK    4  A    between atoms: C_15  and  N_16
REMARK    5  A    between atoms: C_18  and  C_19
REMARK                            x       y       z     vdW  Elec       q    Type
REMARK                         _______ _______ _______ _____ _____    ______ ____
ROOT
ATOM      1  C   UNL     1      -2.273  15.851  25.503  0.00  0.00    +0.000 C 
ATOM      2  C   UNL     1      -2.573  16.134  24.029  0.00  0.00    +0.000 C 
ATOM      3  C   UNL     1      -2.794  17.644  23.775  0.00  0.00    +0.000 C 
ATOM      4  O   UNL     1      -4.008  18.129  24.372  0.00  0.00    +0.000 OA
ATOM      5  C   UNL     1      -5.149  17.430  23.839  0.00  0.00    +0.000 C 
ATOM      6  C   UNL     1      -5.059  15.918  24.117  0.00  0.00    +0.000 C 
ATOM      7  C   UNL     1      -6.324  15.193  23.667  0.00  0.00    +0.000 C 
ATOM      8  N   UNL     1      -3.777  15.394  23.609  0.00  0.00    +0.000 N 
ATOM      9  C   UNL     1      -3.641  14.454  22.620  0.00  0.00    +0.000 A 
ATOM     10  N   UNL     1      -2.554  13.700  22.634  0.00  0.00    +0.000 NA
ATOM     11  C   UNL     1      -2.549  12.684  21.783  0.00  0.00    +0.000 A 
ATOM     12  N   UNL     1      -3.537  12.382  20.956  0.00  0.00    +0.000 NA
ATOM     13  C   UNL     1      -4.518  13.267  20.884  0.00  0.00    +0.000 A 
ATOM     14  N   UNL     1      -5.445  13.128  19.886  0.00  0.00    +0.000 N 
ATOM     15  C   UNL     1      -6.547  14.069  19.715  0.00  0.00    +0.000 C 
ATOM     16  C   UNL     1      -6.728  14.359  18.214  0.00  0.00    +0.000 C 
ATOM     17  O   UNL     1      -6.899  13.149  17.455  0.00  0.00    +0.000 OA
ATOM     18  C   UNL     1      -5.752  12.294  17.609  0.00  0.00    +0.000 C 
ATOM     19  C   UNL     1      -5.529  11.911  19.080  0.00  0.00    +0.000 C 
ATOM     20  N   UNL     1      -4.599  14.301  21.711  0.00  0.00    +0.000 NA
ENDROOT
BRANCH  11  21
ATOM     21  C   UNL     1      -1.391  11.785  21.809  0.00  0.00    +0.000 A 
ATOM     22  C   UNL     1      -1.123  11.067  22.982  0.00  0.00    +0.000 A 
ATOM     23  N   UNL     1      -0.132  10.154  23.144  0.00  0.00    +0.000 NA
ATOM     24  C   UNL     1       0.652   9.915  22.093  0.00  0.00    +0.000 A 
ATOM     25  C   UNL     1       0.497  10.583  20.890  0.00  0.00    +0.000 A 
ATOM     26  C   UNL     1      -0.514  11.555  20.738  0.00  0.00    +0.000 A 
BRANCH  26  27
ATOM     27  C   UNL     1      -0.540  12.272  19.407  0.00  0.00    +0.000 C 
ATOM     28  F   UNL     1      -1.610  12.069  18.601  0.00  0.00    +0.000 F 
ATOM     29  F   UNL     1      -0.524  13.629  19.592  0.00  0.00    +0.000 F 
ATOM     30  F   UNL     1       0.565  12.004  18.656  0.00  0.00    +0.000 F 
ENDBRANCH  26  27
BRANCH  24  31
ATOM     31  N   UNL     1       1.611   8.920  22.235  0.00  0.00    +0.000 N 
ATOM     32  H   UNL     1       1.359   8.166  21.601  0.00  0.00    +0.000 HD
ATOM     33  H   UNL     1       1.702   8.600  23.191  0.00  0.00    +0.000 HD
ENDBRANCH  24  31
ENDBRANCH  11  21
TORSDOF 3
ENDMDL
MODEL 9
REMARK VINA RESULT:      -6.4      7.853     11.780
REMARK  Name = 
REMARK  5 active torsions:
REMARK  status: ('A' for Active; 'I' for Inactive)
REMARK    1  A    between atoms: C_1  and  C_2
REMARK    2  A    between atoms: C_6  and  C_7
REMARK    3  A    between atoms: C_11  and  C_12
REMARK    4  A    between atoms: C_15  and  N_16
REMARK    5  A    between atoms: C_18  and  C_19
REMARK                            x       y       z     vdW  Elec       q    Type
REMARK                         _______ _______ _______ _____ _____    ______ ____
ROOT
ATOM      1  C   UNL     1      -0.047   9.430  20.821  0.00  0.00    +0.000 C 
ATOM      2  C   UNL     1      -0.438  10.407  19.709  0.00  0.00    +0.000 C 
ATOM      3  C   UNL     1       0.103   9.948  18.335  0.00  0.00    +0.000 C 
ATOM      4  O   UNL     1       1.535  10.038  18.251  0.00  0.00    +0.000 OA
ATOM      5  C   UNL     1       1.970  11.395  18.455  0.00  0.00    +0.000 C 
ATOM      6  C   UNL     1       1.546  11.917  19.840  0.00  0.00    +0.000 C 
ATOM      7  C   UNL     1       2.114  13.308  20.109  0.00  0.00    +0.000 C 
ATOM      8  N   UNL     1       0.090  11.750  20.011  0.00  0.00    +0.000 N 
ATOM      9  C   UNL     1      -0.809  12.770  20.188  0.00  0.00    +0.000 A 
ATOM     10  N   UNL     1      -1.925  12.498  20.845  0.00  0.00    +0.000 NA
ATOM     11  C   UNL     1      -2.675  13.544  21.160  0.00  0.00    +0.000 A 
ATOM     12  N   UNL     1      -2.380  14.802  20.875  0.00  0.00    +0.000 NA
ATOM     13  C   UNL     1      -1.336  14.984  20.083  0.00  0.00    +0.000 A 
ATOM     14  N   UNL     1      -1.123  16.235  19.569  0.00  0.00    +0.000 N 
ATOM     15  C   UNL     1      -0.012  16.523  18.668  0.00  0.00    +0.000 C 
ATOM     16  C   UNL     1      -0.510  17.444  17.539  0.00  0.00    +0.000 C 
ATOM     17  O   UNL     1      -1.135  18.631  18.058  0.00  0.00    +0.000 OA
ATOM     18  C   UNL     1      -2.264  18.284  18.881  0.00  0.00    +0.000 C 
ATOM     19  C   UNL     1      -1.844  17.404  20.069  0.00  0.00    +0.000 C 
ATOM     20  N   UNL     1      -0.530  13.988  19.736  0.00  0.00    +0.000 NA
ENDROOT
BRANCH  11  21
ATOM     21  C   UNL     1      -3.889  13.294  21.944  0.00  0.00    +0.000 A 
ATOM     22  C   UNL     1      -3.829  13.425  23.337  0.00  0.00    +0.000 A 
ATOM     23  N   UNL     1      -4.874  13.289  24.193  0.00  0.00    +0.000 NA
ATOM     24  C   UNL     1      -6.064  13.013  23.659  0.00  0.00    +0.000 A 
ATOM     25  C   UNL     1      -6.239  12.838  22.297  0.00  0.00    +0.000 A 
ATOM     26  C   UNL     1      -5.142  12.947  21.416  0.00  0.00    +0.000 A 
BRANCH  26  27
ATOM     27  C   UNL     1      -5.438  12.661  19.961  0.00  0.00    +0.000 C 
ATOM     28  F   UNL     1      -4.552  11.897  19.275  0.00  0.00    +0.000 F 
ATOM     29  F   UNL     1      -6.620  11.982  19.835  0.00  0.00    +0.000 F 
ATOM     30  F   UNL     1      -5.605  13.802  19.236  0.00  0.00    +0.000 F 
ENDBRANCH  26  27
BRANCH  24  31
ATOM     31  N   UNL     1      -7.147  12.959  24.527  0.00  0.00    +0.000 N 
ATOM     32  H   UNL     1      -7.887  13.527  24.122  0.00  0.00    +0.000 HD
ATOM     33  H   UNL     1      -6.910  13.254  25.466  0.00  0.00    +0.000 HD
ENDBRANCH  24  31
ENDBRANCH  11  21
TORSDOF 3
ENDMDL
