MODEL 1
REMARK VINA RESULT:      -8.9      0.000      0.000
REMARK  Name = 
REMARK  5 active torsions:
REMARK  status: ('A' for Active; 'I' for Inactive)
REMARK    1  A    between atoms: C_1  and  N_2
REMARK    2  A    between atoms: C_8  and  O_9
REMARK    3  A    between atoms: O_9  and  C_10
REMARK    4  A    between atoms: C_10  and  C_11
REMARK    5  A    between atoms: C_10  and  C_17
REMARK                            x       y       z     vdW  Elec       q    Type
REMARK                         _______ _______ _______ _____ _____    ______ ____
ROOT
ATOM      1  C   UNL     1       5.950   4.174  16.281  0.00  0.00    +0.000 C 
ENDROOT
BRANCH   1   2
ATOM      2  C   UNL     1       6.713   5.193  17.127  0.00  0.00    +0.000 A 
ATOM      3  C   UNL     1       7.455   4.775  18.245  0.00  0.00    +0.000 A 
ATOM      4  C   UNL     1       8.158   5.701  19.028  0.00  0.00    +0.000 A 
ATOM      5  C   UNL     1       8.133   7.054  18.698  0.00  0.00    +0.000 A 
ATOM      6  C   UNL     1       7.400   7.475  17.600  0.00  0.00    +0.000 A 
ATOM      7  F   UNL     1       7.375   8.777  17.285  0.00  0.00    +0.000 F 
ATOM      8  C   UNL     1       6.689   6.563  16.822  0.00  0.00    +0.000 A 
ENDBRANCH   1   2
BRANCH   1   9
ATOM      9  C   UNL     1       6.204   4.287  14.786  0.00  0.00    +0.000 A 
ATOM     10  C   UNL     1       5.439   3.567  13.855  0.00  0.00    +0.000 A 
ATOM     11  C   UNL     1       5.808   3.530  12.511  0.00  0.00    +0.000 A 
ATOM     12  C   UNL     1       6.945   4.209  12.079  0.00  0.00    +0.000 A 
ATOM     13  C   UNL     1       7.694   4.958  12.983  0.00  0.00    +0.000 A 
ATOM     14  C   UNL     1       7.321   5.007  14.326  0.00  0.00    +0.000 A 
ENDBRANCH   1   9
BRANCH   1  15
ATOM     15  O   UNL     1       4.554   4.323  16.569  0.00  0.00    +0.000 OA
BRANCH  15  23
ATOM     16  C   UNL     1       1.404   2.987  19.939  0.00  0.00    +0.000 C 
ATOM     17  N   UNL     1       2.050   4.205  19.493  0.00  0.00    +0.000 NA
ATOM     18  C   UNL     1       1.826   4.590  18.095  0.00  0.00    +0.000 C 
ATOM     19  C   UNL     1       2.623   5.904  18.077  0.00  0.00    +0.000 C 
ATOM     20  C   UNL     1       3.735   5.699  19.117  0.00  0.00    +0.000 C 
ATOM     21  C   UNL     1       3.505   4.278  19.642  0.00  0.00    +0.000 C 
ATOM     22  C   UNL     1       4.245   3.223  18.793  0.00  0.00    +0.000 C 
ATOM     23  C   UNL     1       3.886   3.283  17.296  0.00  0.00    +0.000 C 
ATOM     24  C   UNL     1       2.378   3.537  17.113  0.00  0.00    +0.000 C 
ENDBRANCH  15  23
ENDBRANCH   1  15
TORSDOF 4
ENDMDL
MODEL 2
REMARK VINA RESULT:      -8.9      0.948      1.365
REMARK  Name = 
REMARK  5 active torsions:
REMARK  status: ('A' for Active; 'I' for Inactive)
REMARK    1  A    between atoms: C_1  and  N_2
REMARK    2  A    between atoms: C_8  and  O_9
REMARK    3  A    between atoms: O_9  and  C_10
REMARK    4  A    between atoms: C_10  and  C_11
REMARK    5  A    between atoms: C_10  and  C_17
REMARK                            x       y       z     vdW  Elec       q    Type
REMARK                         _______ _______ _______ _____ _____    ______ ____
ROOT
ATOM      1  C   UNL     1       5.898   4.129  16.241  0.00  0.00    +0.000 C 
ENDROOT
BRANCH   1   2
ATOM      2  C   UNL     1       6.654   5.156  17.083  0.00  0.00    +0.000 A 
ATOM      3  C   UNL     1       6.599   6.523  16.757  0.00  0.00    +0.000 A 
ATOM      4  C   UNL     1       7.289   7.472  17.523  0.00  0.00    +0.000 A 
ATOM      5  C   UNL     1       8.035   7.068  18.627  0.00  0.00    +0.000 A 
ATOM      6  C   UNL     1       8.099   5.723  18.953  0.00  0.00    +0.000 A 
ATOM      7  F   UNL     1       8.819   5.335  20.014  0.00  0.00    +0.000 F 
ATOM      8  C   UNL     1       7.425   4.770  18.192  0.00  0.00    +0.000 A 
ENDBRANCH   1   2
BRANCH   1   9
ATOM      9  C   UNL     1       6.148   4.242  14.745  0.00  0.00    +0.000 A 
ATOM     10  C   UNL     1       5.355   3.552  13.814  0.00  0.00    +0.000 A 
ATOM     11  C   UNL     1       5.716   3.509  12.468  0.00  0.00    +0.000 A 
ATOM     12  C   UNL     1       6.873   4.152  12.034  0.00  0.00    +0.000 A 
ATOM     13  C   UNL     1       7.651   4.870  12.938  0.00  0.00    +0.000 A 
ATOM     14  C   UNL     1       7.287   4.925  14.282  0.00  0.00    +0.000 A 
ENDBRANCH   1   9
BRANCH   1  15
ATOM     15  O   UNL     1       4.501   4.267  16.530  0.00  0.00    +0.000 OA
BRANCH  15  23
ATOM     16  C   UNL     1       1.415   2.986  19.980  0.00  0.00    +0.000 C 
ATOM     17  N   UNL     1       2.048   4.197  19.499  0.00  0.00    +0.000 NA
ATOM     18  C   UNL     1       1.799   4.554  18.098  0.00  0.00    +0.000 C 
ATOM     19  C   UNL     1       2.589   5.870  18.040  0.00  0.00    +0.000 C 
ATOM     20  C   UNL     1       3.720   5.690  19.065  0.00  0.00    +0.000 C 
ATOM     21  C   UNL     1       3.506   4.279  19.622  0.00  0.00    +0.000 C 
ATOM     22  C   UNL     1       4.235   3.211  18.781  0.00  0.00    +0.000 C 
ATOM     23  C   UNL     1       3.850   3.240  17.290  0.00  0.00    +0.000 C 
ATOM     24  C   UNL     1       2.338   3.484  17.127  0.00  0.00    +0.000 C 
ENDBRANCH  15  23
ENDBRANCH   1  15
TORSDOF 4
ENDMDL
MODEL 3
REMARK VINA RESULT:      -8.6      3.181      6.755
REMARK  Name = 
REMARK  5 active torsions:
REMARK  status: ('A' for Active; 'I' for Inactive)
REMARK    1  A    between atoms: C_1  and  N_2
REMARK    2  A    between atoms: C_8  and  O_9
REMARK    3  A    between atoms: O_9  and  C_10
REMARK    4  A    between atoms: C_10  and  C_11
REMARK    5  A    between atoms: C_10  and  C_17
REMARK                            x       y       z     vdW  Elec       q    Type
REMARK                         _______ _______ _______ _____ _____    ______ ____
ROOT
ATOM      1  C   UNL     1       2.962   6.454  19.230  0.00  0.00    +0.000 C 
ENDROOT
BRANCH   1   2
ATOM      2  C   UNL     1       2.334   5.161  19.750  0.00  0.00    +0.000 A 
ATOM      3  C   UNL     1       2.547   4.750  21.078  0.00  0.00    +0.000 A 
ATOM      4  C   UNL     1       1.976   3.566  21.564  0.00  0.00    +0.000 A 
ATOM      5  C   UNL     1       1.178   2.784  20.732  0.00  0.00    +0.000 A 
ATOM      6  C   UNL     1       0.967   3.179  19.421  0.00  0.00    +0.000 A 
ATOM      7  F   UNL     1       0.201   2.424  18.621  0.00  0.00    +0.000 F 
ATOM      8  C   UNL     1       1.539   4.348  18.925  0.00  0.00    +0.000 A 
ENDBRANCH   1   2
BRANCH   1   9
ATOM      9  C   UNL     1       2.040   7.661  19.281  0.00  0.00    +0.000 A 
ATOM     10  C   UNL     1       1.817   8.462  18.149  0.00  0.00    +0.000 A 
ATOM     11  C   UNL     1       1.129   9.670  18.258  0.00  0.00    +0.000 A 
ATOM     12  C   UNL     1       0.656  10.095  19.497  0.00  0.00    +0.000 A 
ATOM     13  C   UNL     1       0.837   9.295  20.623  0.00  0.00    +0.000 A 
ATOM     14  C   UNL     1       1.514   8.081  20.515  0.00  0.00    +0.000 A 
ENDBRANCH   1   9
BRANCH   1  15
ATOM     15  O   UNL     1       3.410   6.215  17.890  0.00  0.00    +0.000 OA
BRANCH  15  23
ATOM     16  C   UNL     1       7.661   4.855  16.118  0.00  0.00    +0.000 C 
ATOM     17  N   UNL     1       6.417   4.234  16.523  0.00  0.00    +0.000 NA
ATOM     18  C   UNL     1       5.206   4.680  15.826  0.00  0.00    +0.000 C 
ATOM     19  C   UNL     1       4.181   3.764  16.512  0.00  0.00    +0.000 C 
ATOM     20  C   UNL     1       4.755   3.523  17.917  0.00  0.00    +0.000 C 
ATOM     21  C   UNL     1       6.056   4.332  17.940  0.00  0.00    +0.000 C 
ATOM     22  C   UNL     1       5.821   5.787  18.395  0.00  0.00    +0.000 C 
ATOM     23  C   UNL     1       4.768   6.529  17.551  0.00  0.00    +0.000 C 
ATOM     24  C   UNL     1       4.926   6.178  16.060  0.00  0.00    +0.000 C 
ENDBRANCH  15  23
ENDBRANCH   1  15
TORSDOF 4
ENDMDL
MODEL 4
REMARK VINA RESULT:      -8.5      3.132      6.774
REMARK  Name = 
REMARK  5 active torsions:
REMARK  status: ('A' for Active; 'I' for Inactive)
REMARK    1  A    between atoms: C_1  and  N_2
REMARK    2  A    between atoms: C_8  and  O_9
REMARK    3  A    between atoms: O_9  and  C_10
REMARK    4  A    between atoms: C_10  and  C_11
REMARK    5  A    between atoms: C_10  and  C_17
REMARK                            x       y       z     vdW  Elec       q    Type
REMARK                         _______ _______ _______ _____ _____    ______ ____
ROOT
ATOM      1  C   UNL     1       3.028   6.528  19.065  0.00  0.00    +0.000 C 
ENDROOT
BRANCH   1   2
ATOM      2  C   UNL     1       2.301   5.251  19.485  0.00  0.00    +0.000 A 
ATOM      3  C   UNL     1       1.496   4.555  18.566  0.00  0.00    +0.000 A 
ATOM      4  C   UNL     1       0.825   3.383  18.942  0.00  0.00    +0.000 A 
ATOM      5  C   UNL     1       0.958   2.889  20.237  0.00  0.00    +0.000 A 
ATOM      6  C   UNL     1       1.745   3.571  21.152  0.00  0.00    +0.000 A 
ATOM      7  F   UNL     1       1.870   3.095  22.398  0.00  0.00    +0.000 F 
ATOM      8  C   UNL     1       2.407   4.742  20.790  0.00  0.00    +0.000 A 
ENDBRANCH   1   2
BRANCH   1   9
ATOM      9  C   UNL     1       2.193   7.792  19.192  0.00  0.00    +0.000 A 
ATOM     10  C   UNL     1       1.595   8.157  20.409  0.00  0.00    +0.000 A 
ATOM     11  C   UNL     1       0.678   9.207  20.463  0.00  0.00    +0.000 A 
ATOM     12  C   UNL     1       0.345   9.903  19.304  0.00  0.00    +0.000 A 
ATOM     13  C   UNL     1       0.956   9.577  18.096  0.00  0.00    +0.000 A 
ATOM     14  C   UNL     1       1.882   8.537  18.041  0.00  0.00    +0.000 A 
ENDBRANCH   1   9
BRANCH   1  15
ATOM     15  O   UNL     1       3.477   6.353  17.716  0.00  0.00    +0.000 OA
BRANCH  15  23
ATOM     16  C   UNL     1       7.731   4.900  16.026  0.00  0.00    +0.000 C 
ATOM     17  N   UNL     1       6.466   4.306  16.406  0.00  0.00    +0.000 NA
ATOM     18  C   UNL     1       5.279   4.780  15.686  0.00  0.00    +0.000 C 
ATOM     19  C   UNL     1       4.221   3.886  16.351  0.00  0.00    +0.000 C 
ATOM     20  C   UNL     1       4.761   3.631  17.767  0.00  0.00    +0.000 C 
ATOM     21  C   UNL     1       6.079   4.412  17.815  0.00  0.00    +0.000 C 
ATOM     22  C   UNL     1       5.868   5.872  18.268  0.00  0.00    +0.000 C 
ATOM     23  C   UNL     1       4.848   6.637  17.404  0.00  0.00    +0.000 C 
ATOM     24  C   UNL     1       5.027   6.284  15.916  0.00  0.00    +0.000 C 
ENDBRANCH  15  23
ENDBRANCH   1  15
TORSDOF 4
ENDMDL
MODEL 5
REMARK VINA RESULT:      -8.5      1.909      4.354
REMARK  Name = 
REMARK  5 active torsions:
REMARK  status: ('A' for Active; 'I' for Inactive)
REMARK    1  A    between atoms: C_1  and  N_2
REMARK    2  A    between atoms: C_8  and  O_9
REMARK    3  A    between atoms: O_9  and  C_10
REMARK    4  A    between atoms: C_10  and  C_11
REMARK    5  A    between atoms: C_10  and  C_17
REMARK                            x       y       z     vdW  Elec       q    Type
REMARK                         _______ _______ _______ _____ _____    ______ ____
ROOT
ATOM      1  C   UNL     1       5.131   4.985  16.225  0.00  0.00    +0.000 C 
ENDROOT
BRANCH   1   2
ATOM      2  C   UNL     1       5.721   4.618  14.864  0.00  0.00    +0.000 A 
ATOM      3  C   UNL     1       7.019   5.031  14.517  0.00  0.00    +0.000 A 
ATOM      4  C   UNL     1       7.569   4.700  13.270  0.00  0.00    +0.000 A 
ATOM      5  C   UNL     1       6.832   3.946  12.361  0.00  0.00    +0.000 A 
ATOM      6  C   UNL     1       5.549   3.540  12.692  0.00  0.00    +0.000 A 
ATOM      7  F   UNL     1       4.839   2.817  11.815  0.00  0.00    +0.000 F 
ATOM      8  C   UNL     1       4.990   3.873  13.924  0.00  0.00    +0.000 A 
ENDBRANCH   1   2
BRANCH   1   9
ATOM      9  C   UNL     1       6.084   5.744  17.135  0.00  0.00    +0.000 A 
ATOM     10  C   UNL     1       6.312   7.120  16.974  0.00  0.00    +0.000 A 
ATOM     11  C   UNL     1       7.328   7.759  17.684  0.00  0.00    +0.000 A 
ATOM     12  C   UNL     1       8.130   7.033  18.561  0.00  0.00    +0.000 A 
ATOM     13  C   UNL     1       7.894   5.675  18.759  0.00  0.00    +0.000 A 
ATOM     14  C   UNL     1       6.871   5.036  18.059  0.00  0.00    +0.000 A 
ENDBRANCH   1   9
BRANCH   1  15
ATOM     15  O   UNL     1       4.690   3.774  16.852  0.00  0.00    +0.000 OA
BRANCH  15  23
ATOM     16  C   UNL     1       0.742   3.032  19.483  0.00  0.00    +0.000 C 
ATOM     17  N   UNL     1       2.172   3.118  19.693  0.00  0.00    +0.000 NA
ATOM     18  C   UNL     1       2.817   4.375  19.296  0.00  0.00    +0.000 C 
ATOM     19  C   UNL     1       4.257   4.053  19.723  0.00  0.00    +0.000 C 
ATOM     20  C   UNL     1       4.374   2.528  19.574  0.00  0.00    +0.000 C 
ATOM     21  C   UNL     1       3.000   2.090  19.057  0.00  0.00    +0.000 C 
ATOM     22  C   UNL     1       2.924   2.133  17.516  0.00  0.00    +0.000 C 
ATOM     23  C   UNL     1       3.282   3.509  16.925  0.00  0.00    +0.000 C 
ATOM     24  C   UNL     1       2.681   4.639  17.783  0.00  0.00    +0.000 C 
ENDBRANCH  15  23
ENDBRANCH   1  15
TORSDOF 4
ENDMDL
MODEL 6
REMARK VINA RESULT:      -8.5      1.919      4.503
REMARK  Name = 
REMARK  5 active torsions:
REMARK  status: ('A' for Active; 'I' for Inactive)
REMARK    1  A    between atoms: C_1  and  N_2
REMARK    2  A    between atoms: C_8  and  O_9
REMARK    3  A    between atoms: O_9  and  C_10
REMARK    4  A    between atoms: C_10  and  C_11
REMARK    5  A    between atoms: C_10  and  C_17
REMARK                            x       y       z     vdW  Elec       q    Type
REMARK                         _______ _______ _______ _____ _____    ______ ____
ROOT
ATOM      1  C   UNL     1       5.269   5.346  16.211  0.00  0.00    +0.000 C 
ENDROOT
BRANCH   1   2
ATOM      2  C   UNL     1       5.701   4.784  14.857  0.00  0.00    +0.000 A 
ATOM      3  C   UNL     1       7.034   4.908  14.428  0.00  0.00    +0.000 A 
ATOM      4  C   UNL     1       7.440   4.396  13.187  0.00  0.00    +0.000 A 
ATOM      5  C   UNL     1       6.521   3.747  12.367  0.00  0.00    +0.000 A 
ATOM      6  C   UNL     1       5.204   3.625  12.779  0.00  0.00    +0.000 A 
ATOM      7  F   UNL     1       4.320   3.002  11.988  0.00  0.00    +0.000 F 
ATOM      8  C   UNL     1       4.788   4.139  14.006  0.00  0.00    +0.000 A 
ENDBRANCH   1   2
BRANCH   1   9
ATOM      9  C   UNL     1       6.418   5.836  17.079  0.00  0.00    +0.000 A 
ATOM     10  C   UNL     1       6.971   5.030  18.087  0.00  0.00    +0.000 A 
ATOM     11  C   UNL     1       7.885   5.559  18.997  0.00  0.00    +0.000 A 
ATOM     12  C   UNL     1       8.256   6.899  18.915  0.00  0.00    +0.000 A 
ATOM     13  C   UNL     1       7.744   7.702  17.900  0.00  0.00    +0.000 A 
ATOM     14  C   UNL     1       6.839   7.174  16.981  0.00  0.00    +0.000 A 
ENDBRANCH   1   9
BRANCH   1  15
ATOM     15  O   UNL     1       4.521   4.330  16.890  0.00  0.00    +0.000 OA
BRANCH  15  23
ATOM     16  C   UNL     1       0.988   3.531  20.043  0.00  0.00    +0.000 C 
ATOM     17  N   UNL     1       2.215   2.888  19.618  0.00  0.00    +0.000 NA
ATOM     18  C   UNL     1       3.447   3.670  19.763  0.00  0.00    +0.000 C 
ATOM     19  C   UNL     1       4.456   2.627  19.256  0.00  0.00    +0.000 C 
ATOM     20  C   UNL     1       3.665   1.782  18.245  0.00  0.00    +0.000 C 
ATOM     21  C   UNL     1       2.269   2.412  18.233  0.00  0.00    +0.000 C 
ATOM     22  C   UNL     1       2.163   3.558  17.204  0.00  0.00    +0.000 C 
ATOM     23  C   UNL     1       3.223   4.658  17.404  0.00  0.00    +0.000 C 
ATOM     24  C   UNL     1       3.422   4.950  18.903  0.00  0.00    +0.000 C 
ENDBRANCH  15  23
ENDBRANCH   1  15
TORSDOF 4
ENDMDL
MODEL 7
REMARK VINA RESULT:      -8.5      2.966      6.450
REMARK  Name = 
REMARK  5 active torsions:
REMARK  status: ('A' for Active; 'I' for Inactive)
REMARK    1  A    between atoms: C_1  and  N_2
REMARK    2  A    between atoms: C_8  and  O_9
REMARK    3  A    between atoms: O_9  and  C_10
REMARK    4  A    between atoms: C_10  and  C_11
REMARK    5  A    between atoms: C_10  and  C_17
REMARK                            x       y       z     vdW  Elec       q    Type
REMARK                         _______ _______ _______ _____ _____    ______ ____
ROOT
ATOM      1  C   UNL     1       2.642   6.378  18.304  0.00  0.00    +0.000 C 
ENDROOT
BRANCH   1   2
ATOM      2  C   UNL     1       2.006   7.670  18.817  0.00  0.00    +0.000 A 
ATOM      3  C   UNL     1       1.740   8.731  17.934  0.00  0.00    +0.000 A 
ATOM      4  C   UNL     1       1.158   9.920  18.395  0.00  0.00    +0.000 A 
ATOM      5  C   UNL     1       0.827  10.058  19.741  0.00  0.00    +0.000 A 
ATOM      6  C   UNL     1       1.090   9.019  20.619  0.00  0.00    +0.000 A 
ATOM      7  F   UNL     1       0.774   9.154  21.914  0.00  0.00    +0.000 F 
ATOM      8  C   UNL     1       1.678   7.838  20.173  0.00  0.00    +0.000 A 
ENDBRANCH   1   2
BRANCH   1   9
ATOM      9  C   UNL     1       2.271   5.139  19.103  0.00  0.00    +0.000 A 
ATOM     10  C   UNL     1       1.424   4.152  18.574  0.00  0.00    +0.000 A 
ATOM     11  C   UNL     1       0.938   3.125  19.383  0.00  0.00    +0.000 A 
ATOM     12  C   UNL     1       1.290   3.071  20.730  0.00  0.00    +0.000 A 
ATOM     13  C   UNL     1       2.159   4.022  21.261  0.00  0.00    +0.000 A 
ATOM     14  C   UNL     1       2.655   5.043  20.452  0.00  0.00    +0.000 A 
ENDBRANCH   1   9
BRANCH   1  15
ATOM     15  O   UNL     1       4.063   6.564  18.291  0.00  0.00    +0.000 OA
BRANCH  15  23
ATOM     16  C   UNL     1       7.409   4.852  15.302  0.00  0.00    +0.000 C 
ATOM     17  N   UNL     1       7.026   4.695  16.690  0.00  0.00    +0.000 NA
ATOM     18  C   UNL     1       5.660   4.225  16.943  0.00  0.00    +0.000 C 
ATOM     19  C   UNL     1       5.707   4.163  18.478  0.00  0.00    +0.000 C 
ATOM     20  C   UNL     1       6.709   5.256  18.881  0.00  0.00    +0.000 C 
ATOM     21  C   UNL     1       7.149   5.875  17.550  0.00  0.00    +0.000 C 
ATOM     22  C   UNL     1       6.221   7.029  17.116  0.00  0.00    +0.000 C 
ATOM     23  C   UNL     1       4.739   6.619  17.027  0.00  0.00    +0.000 C 
ATOM     24  C   UNL     1       4.603   5.213  16.412  0.00  0.00    +0.000 C 
ENDBRANCH  15  23
ENDBRANCH   1  15
TORSDOF 4
ENDMDL
MODEL 8
REMARK VINA RESULT:      -8.4      1.411      4.171
REMARK  Name = 
REMARK  5 active torsions:
REMARK  status: ('A' for Active; 'I' for Inactive)
REMARK    1  A    between atoms: C_1  and  N_2
REMARK    2  A    between atoms: C_8  and  O_9
REMARK    3  A    between atoms: O_9  and  C_10
REMARK    4  A    between atoms: C_10  and  C_11
REMARK    5  A    between atoms: C_10  and  C_17
REMARK                            x       y       z     vdW  Elec       q    Type
REMARK                         _______ _______ _______ _____ _____    ______ ____
ROOT
ATOM      1  C   UNL     1       5.188   5.024  16.243  0.00  0.00    +0.000 C 
ENDROOT
BRANCH   1   2
ATOM      2  C   UNL     1       5.786   4.670  14.882  0.00  0.00    +0.000 A 
ATOM      3  C   UNL     1       5.151   3.733  14.048  0.00  0.00    +0.000 A 
ATOM      4  C   UNL     1       5.692   3.401  12.798  0.00  0.00    +0.000 A 
ATOM      5  C   UNL     1       6.869   4.006  12.365  0.00  0.00    +0.000 A 
ATOM      6  C   UNL     1       7.505   4.926  13.183  0.00  0.00    +0.000 A 
ATOM      7  F   UNL     1       8.639   5.506  12.766  0.00  0.00    +0.000 F 
ATOM      8  C   UNL     1       6.981   5.255  14.431  0.00  0.00    +0.000 A 
ENDBRANCH   1   2
BRANCH   1   9
ATOM      9  C   UNL     1       6.149   5.737  17.182  0.00  0.00    +0.000 A 
ATOM     10  C   UNL     1       6.391   7.116  17.075  0.00  0.00    +0.000 A 
ATOM     11  C   UNL     1       7.414   7.716  17.809  0.00  0.00    +0.000 A 
ATOM     12  C   UNL     1       8.208   6.948  18.656  0.00  0.00    +0.000 A 
ATOM     13  C   UNL     1       7.958   5.586  18.801  0.00  0.00    +0.000 A 
ATOM     14  C   UNL     1       6.928   4.985  18.078  0.00  0.00    +0.000 A 
ENDBRANCH   1   9
BRANCH   1  15
ATOM     15  O   UNL     1       4.705   3.814  16.839  0.00  0.00    +0.000 OA
BRANCH  15  23
ATOM     16  C   UNL     1       0.753   3.112  19.476  0.00  0.00    +0.000 C 
ATOM     17  N   UNL     1       2.188   3.135  19.674  0.00  0.00    +0.000 NA
ATOM     18  C   UNL     1       2.877   4.381  19.324  0.00  0.00    +0.000 C 
ATOM     19  C   UNL     1       4.307   3.986  19.723  0.00  0.00    +0.000 C 
ATOM     20  C   UNL     1       4.364   2.465  19.508  0.00  0.00    +0.000 C 
ATOM     21  C   UNL     1       2.969   2.104  18.987  0.00  0.00    +0.000 C 
ATOM     22  C   UNL     1       2.882   2.215  17.450  0.00  0.00    +0.000 C 
ATOM     23  C   UNL     1       3.289   3.600  16.914  0.00  0.00    +0.000 C 
ATOM     24  C   UNL     1       2.740   4.714  17.825  0.00  0.00    +0.000 C 
ENDBRANCH  15  23
ENDBRANCH   1  15
TORSDOF 4
ENDMDL
MODEL 9
REMARK VINA RESULT:      -8.4      2.995      6.438
REMARK  Name = 
REMARK  5 active torsions:
REMARK  status: ('A' for Active; 'I' for Inactive)
REMARK    1  A    between atoms: C_1  and  N_2
REMARK    2  A    between atoms: C_8  and  O_9
REMARK    3  A    between atoms: O_9  and  C_10
REMARK    4  A    between atoms: C_10  and  C_11
REMARK    5  A    between atoms: C_10  and  C_17
REMARK                            x       y       z     vdW  Elec       q    Type
REMARK                         _______ _______ _______ _____ _____    ______ ____
ROOT
ATOM      1  C   UNL     1       2.555   6.464  18.314  0.00  0.00    +0.000 C 
ENDROOT
BRANCH   1   2
ATOM      2  C   UNL     1       1.960   7.776  18.822  0.00  0.00    +0.000 A 
ATOM      3  C   UNL     1       1.735   8.845  17.937  0.00  0.00    +0.000 A 
ATOM      4  C   UNL     1       1.190  10.053  18.394  0.00  0.00    +0.000 A 
ATOM      5  C   UNL     1       0.857  10.204  19.738  0.00  0.00    +0.000 A 
ATOM      6  C   UNL     1       1.081   9.158  20.619  0.00  0.00    +0.000 A 
ATOM      7  F   UNL     1       0.763   9.305  21.912  0.00  0.00    +0.000 F 
ATOM      8  C   UNL     1       1.632   7.957  20.176  0.00  0.00    +0.000 A 
ENDBRANCH   1   2
BRANCH   1   9
ATOM      9  C   UNL     1       2.120   5.235  19.097  0.00  0.00    +0.000 A 
ATOM     10  C   UNL     1       2.513   5.038  20.430  0.00  0.00    +0.000 A 
ATOM     11  C   UNL     1       2.271   3.822  21.069  0.00  0.00    +0.000 A 
ATOM     12  C   UNL     1       1.635   2.788  20.386  0.00  0.00    +0.000 A 
ATOM     13  C   UNL     1       1.206   2.981  19.075  0.00  0.00    +0.000 A 
ATOM     14  C   UNL     1       1.436   4.199  18.437  0.00  0.00    +0.000 A 
ENDBRANCH   1   9
BRANCH   1  15
ATOM     15  O   UNL     1       3.982   6.593  18.331  0.00  0.00    +0.000 OA
BRANCH  15  23
ATOM     16  C   UNL     1       7.370   4.777  15.452  0.00  0.00    +0.000 C 
ATOM     17  N   UNL     1       6.955   4.654  16.834  0.00  0.00    +0.000 NA
ATOM     18  C   UNL     1       5.577   4.207  17.065  0.00  0.00    +0.000 C 
ATOM     19  C   UNL     1       5.588   4.174  18.601  0.00  0.00    +0.000 C 
ATOM     20  C   UNL     1       6.596   5.262  19.005  0.00  0.00    +0.000 C 
ATOM     21  C   UNL     1       7.075   5.849  17.673  0.00  0.00    +0.000 C 
ATOM     22  C   UNL     1       6.172   7.006  17.196  0.00  0.00    +0.000 C 
ATOM     23  C   UNL     1       4.687   6.614  17.082  0.00  0.00    +0.000 C 
ATOM     24  C   UNL     1       4.545   5.198  16.491  0.00  0.00    +0.000 C 
ENDBRANCH  15  23
ENDBRANCH   1  15
TORSDOF 4
ENDMDL
