MODEL 1
REMARK VINA RESULT:     -10.2      0.000      0.000
REMARK  Name = 
REMARK  7 active torsions:
REMARK  status: ('A' for Active; 'I' for Inactive)
REMARK    1  A    between atoms: C_2  and  C_4
REMARK    2  A    between atoms: C_8  and  C_9
REMARK    3  A    between atoms: C_9  and  N_10
REMARK    4  A    between atoms: C_11  and  C_12
REMARK    5  A    between atoms: N_14  and  C_15
REMARK    6  A    between atoms: C_15  and  C_16
REMARK    7  A    between atoms: C_28  and  O_29
REMARK                            x       y       z     vdW  Elec       q    Type
REMARK                         _______ _______ _______ _____ _____    ______ ____
ROOT
ATOM      1  N   UNL     1       4.240   4.553  17.273  0.00  0.00    +0.000 N 
ATOM      2  C   UNL     1       4.396   5.704  18.068  0.00  0.00    +0.000 A 
ATOM      3  C   UNL     1       4.581   5.121  19.325  0.00  0.00    +0.000 A 
ATOM      4  C   UNL     1       3.444   4.240  19.316  0.00  0.00    +0.000 A 
ATOM      5  C   UNL     1       2.471   3.912  20.286  0.00  0.00    +0.000 A 
ATOM      6  C   UNL     1       1.195   3.547  19.864  0.00  0.00    +0.000 A 
ATOM      7  C   UNL     1       0.909   3.435  18.502  0.00  0.00    +0.000 A 
ATOM      8  C   UNL     1       1.909   3.581  17.524  0.00  0.00    +0.000 A 
ATOM      9  C   UNL     1       3.193   3.950  17.954  0.00  0.00    +0.000 A 
ENDROOT
BRANCH   2  10
ATOM     10  C   UNL     1       3.902   6.975  17.593  0.00  0.00    +0.000 C 
ATOM     11  O   UNL     1       4.321   7.482  16.555  0.00  0.00    +0.000 OA
ATOM     12  N   UNL     1       2.821   7.479  18.278  0.00  0.00    +0.000 N 
ATOM     13  H   UNL     1       2.476   6.992  19.092  0.00  0.00    +0.000 HD
BRANCH  12  14
ATOM     14  C   UNL     1       1.982   8.507  17.689  0.00  0.00    +0.000 C 
BRANCH  14  15
ATOM     15  C   UNL     1       1.195   9.282  18.716  0.00  0.00    +0.000 A 
ATOM     16  C   UNL     1       0.426  10.400  18.391  0.00  0.00    +0.000 A 
ATOM     17  C   UNL     1      -0.346  11.051  19.358  0.00  0.00    +0.000 A 
ATOM     18  C   UNL     1      -0.329  10.633  20.696  0.00  0.00    +0.000 A 
ATOM     19  C   UNL     1      -1.165  11.210  21.668  0.00  0.00    +0.000 A 
ATOM     20  C   UNL     1      -1.128  10.782  22.998  0.00  0.00    +0.000 A 
ATOM     21  C   UNL     1      -0.216   9.795  23.382  0.00  0.00    +0.000 A 
ATOM     22  C   UNL     1       0.613   9.210  22.423  0.00  0.00    +0.000 A 
ATOM     23  C   UNL     1       0.544   9.586  21.073  0.00  0.00    +0.000 A 
ATOM     24  C   UNL     1       1.295   8.925  20.079  0.00  0.00    +0.000 A 
ENDBRANCH  14  15
ENDBRANCH  12  14
ENDBRANCH   2  10
BRANCH   5  25
ATOM     25  O   UNL     1       2.637   4.162  21.629  0.00  0.00    +0.000 OA
ATOM     26  H   UNL     1       1.808   3.929  22.078  0.00  0.00    +0.000 HD
ENDBRANCH   5  25
BRANCH   1  27
ATOM     27  C   UNL     1       5.478   4.071  16.626  0.00  0.00    +0.000 C 
BRANCH  27  32
ATOM     28  C   UNL     1       5.905   3.474  12.846  0.00  0.00    +0.000 A 
ATOM     29  C   UNL     1       7.056   4.234  12.606  0.00  0.00    +0.000 A 
ATOM     30  C   UNL     1       7.603   4.992  13.633  0.00  0.00    +0.000 A 
ATOM     31  C   UNL     1       6.995   4.976  14.887  0.00  0.00    +0.000 A 
ATOM     32  C   UNL     1       5.834   4.206  15.166  0.00  0.00    +0.000 A 
ATOM     33  C   UNL     1       5.298   3.447  14.128  0.00  0.00    +0.000 A 
BRANCH  28  35
ATOM     34  N   UNL     1       4.315   3.091  11.079  0.00  0.00    +0.000 NA
ATOM     35  C   UNL     1       5.353   2.667  11.725  0.00  0.00    +0.000 C 
ATOM     36  N   UNL     1       5.922   1.470  11.404  0.00  0.00    +0.000 N 
ATOM     37  H   UNL     1       4.079   2.438  10.331  0.00  0.00    +0.000 HD
ATOM     38  H   UNL     1       5.328   0.821  10.903  0.00  0.00    +0.000 HD
ATOM     39  H   UNL     1       6.422   1.012  12.160  0.00  0.00    +0.000 HD
ENDBRANCH  28  35
ENDBRANCH  27  32
ENDBRANCH   1  27
TORSDOF 7
ENDMDL
MODEL 2
REMARK VINA RESULT:     -10.0      0.770      1.444
REMARK  Name = 
REMARK  7 active torsions:
REMARK  status: ('A' for Active; 'I' for Inactive)
REMARK    1  A    between atoms: C_2  and  C_4
REMARK    2  A    between atoms: C_8  and  C_9
REMARK    3  A    between atoms: C_9  and  N_10
REMARK    4  A    between atoms: C_11  and  C_12
REMARK    5  A    between atoms: N_14  and  C_15
REMARK    6  A    between atoms: C_15  and  C_16
REMARK    7  A    between atoms: C_28  and  O_29
REMARK                            x       y       z     vdW  Elec       q    Type
REMARK                         _______ _______ _______ _____ _____    ______ ____
ROOT
ATOM      1  N   UNL     1       4.692   4.377  17.206  0.00  0.00    +0.000 N 
ATOM      2  C   UNL     1       4.794   5.334  18.234  0.00  0.00    +0.000 A 
ATOM      3  C   UNL     1       5.046   4.504  19.329  0.00  0.00    +0.000 A 
ATOM      4  C   UNL     1       3.968   3.571  19.137  0.00  0.00    +0.000 A 
ATOM      5  C   UNL     1       3.043   2.973  20.021  0.00  0.00    +0.000 A 
ATOM      6  C   UNL     1       1.783   2.622  19.542  0.00  0.00    +0.000 A 
ATOM      7  C   UNL     1       1.472   2.792  18.191  0.00  0.00    +0.000 A 
ATOM      8  C   UNL     1       2.436   3.217  17.259  0.00  0.00    +0.000 A 
ATOM      9  C   UNL     1       3.704   3.570  17.747  0.00  0.00    +0.000 A 
ENDROOT
BRANCH   2  10
ATOM     10  C   UNL     1       4.207   6.642  18.055  0.00  0.00    +0.000 C 
ATOM     11  O   UNL     1       4.585   7.402  17.167  0.00  0.00    +0.000 OA
ATOM     12  N   UNL     1       3.093   6.897  18.821  0.00  0.00    +0.000 N 
ATOM     13  H   UNL     1       2.787   6.212  19.498  0.00  0.00    +0.000 HD
BRANCH  12  14
ATOM     14  C   UNL     1       2.180   7.969  18.471  0.00  0.00    +0.000 C 
BRANCH  14  15
ATOM     15  C   UNL     1       1.429   8.512  19.661  0.00  0.00    +0.000 A 
ATOM     16  C   UNL     1       1.446   7.892  20.911  0.00  0.00    +0.000 A 
ATOM     17  C   UNL     1       0.796   8.462  22.009  0.00  0.00    +0.000 A 
ATOM     18  C   UNL     1       0.060   9.648  21.875  0.00  0.00    +0.000 A 
ATOM     19  C   UNL     1      -0.527  10.291  22.981  0.00  0.00    +0.000 A 
ATOM     20  C   UNL     1      -1.262  11.469  22.823  0.00  0.00    +0.000 A 
ATOM     21  C   UNL     1      -1.458  11.997  21.544  0.00  0.00    +0.000 A 
ATOM     22  C   UNL     1      -0.874  11.371  20.442  0.00  0.00    +0.000 A 
ATOM     23  C   UNL     1      -0.082  10.222  20.591  0.00  0.00    +0.000 A 
ATOM     24  C   UNL     1       0.603   9.646  19.500  0.00  0.00    +0.000 A 
ENDBRANCH  14  15
ENDBRANCH  12  14
ENDBRANCH   2  10
BRANCH   5  25
ATOM     25  O   UNL     1       3.226   2.933  21.385  0.00  0.00    +0.000 OA
ATOM     26  H   UNL     1       2.795   3.717  21.763  0.00  0.00    +0.000 HD
ENDBRANCH   5  25
BRANCH   1  27
ATOM     27  C   UNL     1       5.943   4.135  16.457  0.00  0.00    +0.000 C 
BRANCH  27  32
ATOM     28  C   UNL     1       5.959   3.448  12.668  0.00  0.00    +0.000 A 
ATOM     29  C   UNL     1       7.044   4.242  12.279  0.00  0.00    +0.000 A 
ATOM     30  C   UNL     1       7.674   5.048  13.218  0.00  0.00    +0.000 A 
ATOM     31  C   UNL     1       7.214   5.046  14.534  0.00  0.00    +0.000 A 
ATOM     32  C   UNL     1       6.124   4.241  14.963  0.00  0.00    +0.000 A 
ATOM     33  C   UNL     1       5.503   3.435  14.011  0.00  0.00    +0.000 A 
BRANCH  28  35
ATOM     34  N   UNL     1       4.214   2.975  11.078  0.00  0.00    +0.000 NA
ATOM     35  C   UNL     1       5.315   2.589  11.637  0.00  0.00    +0.000 C 
ATOM     36  N   UNL     1       5.869   1.387  11.311  0.00  0.00    +0.000 N 
ATOM     37  H   UNL     1       3.918   2.289  10.382  0.00  0.00    +0.000 HD
ATOM     38  H   UNL     1       5.241   0.712  10.894  0.00  0.00    +0.000 HD
ATOM     39  H   UNL     1       6.446   0.966  12.033  0.00  0.00    +0.000 HD
ENDBRANCH  28  35
ENDBRANCH  27  32
ENDBRANCH   1  27
TORSDOF 7
ENDMDL
MODEL 3
REMARK VINA RESULT:     -10.0      2.254      3.618
REMARK  Name = 
REMARK  7 active torsions:
REMARK  status: ('A' for Active; 'I' for Inactive)
REMARK    1  A    between atoms: C_2  and  C_4
REMARK    2  A    between atoms: C_8  and  C_9
REMARK    3  A    between atoms: C_9  and  N_10
REMARK    4  A    between atoms: C_11  and  C_12
REMARK    5  A    between atoms: N_14  and  C_15
REMARK    6  A    between atoms: C_15  and  C_16
REMARK    7  A    between atoms: C_28  and  O_29
REMARK                            x       y       z     vdW  Elec       q    Type
REMARK                         _______ _______ _______ _____ _____    ______ ____
ROOT
ATOM      1  N   UNL     1       2.822   6.242  18.145  0.00  0.00    +0.000 N 
ATOM      2  C   UNL     1       2.847   6.612  19.503  0.00  0.00    +0.000 A 
ATOM      3  C   UNL     1       3.652   5.597  20.028  0.00  0.00    +0.000 A 
ATOM      4  C   UNL     1       2.959   4.469  19.464  0.00  0.00    +0.000 A 
ATOM      5  C   UNL     1       2.567   3.218  19.990  0.00  0.00    +0.000 A 
ATOM      6  C   UNL     1       1.432   2.596  19.476  0.00  0.00    +0.000 A 
ATOM      7  C   UNL     1       0.739   3.169  18.407  0.00  0.00    +0.000 A 
ATOM      8  C   UNL     1       1.214   4.319  17.752  0.00  0.00    +0.000 A 
ATOM      9  C   UNL     1       2.358   4.942  18.274  0.00  0.00    +0.000 A 
ENDROOT
BRANCH   2  10
ATOM     10  C   UNL     1       1.814   7.474  20.029  0.00  0.00    +0.000 C 
ATOM     11  O   UNL     1       1.185   7.181  21.042  0.00  0.00    +0.000 OA
ATOM     12  N   UNL     1       1.714   8.707  19.426  0.00  0.00    +0.000 N 
ATOM     13  H   UNL     1       2.298   8.921  18.631  0.00  0.00    +0.000 HD
BRANCH  12  14
ATOM     14  C   UNL     1       1.027   9.802  20.085  0.00  0.00    +0.000 C 
BRANCH  14  15
ATOM     15  C   UNL     1      -0.226  10.229  19.361  0.00  0.00    +0.000 A 
ATOM     16  C   UNL     1      -1.134  11.142  19.899  0.00  0.00    +0.000 A 
ATOM     17  C   UNL     1      -2.247  11.567  19.169  0.00  0.00    +0.000 A 
ATOM     18  C   UNL     1      -2.515  11.049  17.894  0.00  0.00    +0.000 A 
ATOM     19  C   UNL     1      -3.575  11.527  17.102  0.00  0.00    +0.000 A 
ATOM     20  C   UNL     1      -3.828  10.991  15.836  0.00  0.00    +0.000 A 
ATOM     21  C   UNL     1      -3.046   9.933  15.364  0.00  0.00    +0.000 A 
ATOM     22  C   UNL     1      -1.987   9.457  16.139  0.00  0.00    +0.000 A 
ATOM     23  C   UNL     1      -1.683  10.026  17.385  0.00  0.00    +0.000 A 
ATOM     24  C   UNL     1      -0.550   9.628  18.125  0.00  0.00    +0.000 A 
ENDBRANCH  14  15
ENDBRANCH  12  14
ENDBRANCH   2  10
BRANCH   5  25
ATOM     25  O   UNL     1       3.102   2.688  21.142  0.00  0.00    +0.000 OA
ATOM     26  H   UNL     1       3.554   3.405  21.615  0.00  0.00    +0.000 HD
ENDBRANCH   5  25
BRANCH   1  27
ATOM     27  C   UNL     1       3.836   6.909  17.301  0.00  0.00    +0.000 C 
BRANCH  27  32
ATOM     28  C   UNL     1       6.532   5.073  15.254  0.00  0.00    +0.000 A 
ATOM     29  C   UNL     1       7.409   4.703  16.280  0.00  0.00    +0.000 A 
ATOM     30  C   UNL     1       7.167   5.135  17.577  0.00  0.00    +0.000 A 
ATOM     31  C   UNL     1       6.048   5.926  17.833  0.00  0.00    +0.000 A 
ATOM     32  C   UNL     1       5.132   6.307  16.816  0.00  0.00    +0.000 A 
ATOM     33  C   UNL     1       5.385   5.864  15.519  0.00  0.00    +0.000 A 
BRANCH  28  35
ATOM     34  N   UNL     1       6.301   3.470  13.472  0.00  0.00    +0.000 NA
ATOM     35  C   UNL     1       6.818   4.584  13.878  0.00  0.00    +0.000 C 
ATOM     36  N   UNL     1       7.648   5.295  13.062  0.00  0.00    +0.000 N 
ATOM     37  H   UNL     1       6.573   3.291  12.505  0.00  0.00    +0.000 HD
ATOM     38  H   UNL     1       8.079   4.773  12.310  0.00  0.00    +0.000 HD
ATOM     39  H   UNL     1       8.321   5.887  13.541  0.00  0.00    +0.000 HD
ENDBRANCH  28  35
ENDBRANCH  27  32
ENDBRANCH   1  27
TORSDOF 7
ENDMDL
MODEL 4
REMARK VINA RESULT:      -9.9      2.318      3.439
REMARK  Name = 
REMARK  7 active torsions:
REMARK  status: ('A' for Active; 'I' for Inactive)
REMARK    1  A    between atoms: C_2  and  C_4
REMARK    2  A    between atoms: C_8  and  C_9
REMARK    3  A    between atoms: C_9  and  N_10
REMARK    4  A    between atoms: C_11  and  C_12
REMARK    5  A    between atoms: N_14  and  C_15
REMARK    6  A    between atoms: C_15  and  C_16
REMARK    7  A    between atoms: C_28  and  O_29
REMARK                            x       y       z     vdW  Elec       q    Type
REMARK                         _______ _______ _______ _____ _____    ______ ____
ROOT
ATOM      1  N   UNL     1       2.898   6.289  18.177  0.00  0.00    +0.000 N 
ATOM      2  C   UNL     1       2.818   6.692  19.523  0.00  0.00    +0.000 A 
ATOM      3  C   UNL     1       3.572   5.687  20.134  0.00  0.00    +0.000 A 
ATOM      4  C   UNL     1       2.918   4.549  19.545  0.00  0.00    +0.000 A 
ATOM      5  C   UNL     1       2.478   3.313  20.069  0.00  0.00    +0.000 A 
ATOM      6  C   UNL     1       1.382   2.684  19.482  0.00  0.00    +0.000 A 
ATOM      7  C   UNL     1       0.780   3.234  18.348  0.00  0.00    +0.000 A 
ATOM      8  C   UNL     1       1.313   4.365  17.704  0.00  0.00    +0.000 A 
ATOM      9  C   UNL     1       2.416   4.996  18.300  0.00  0.00    +0.000 A 
ENDROOT
BRANCH   2  10
ATOM     10  C   UNL     1       1.753   7.572  19.944  0.00  0.00    +0.000 C 
ATOM     11  O   UNL     1       1.117   7.367  20.976  0.00  0.00    +0.000 OA
ATOM     12  N   UNL     1       1.625   8.733  19.216  0.00  0.00    +0.000 N 
ATOM     13  H   UNL     1       2.214   8.881  18.409  0.00  0.00    +0.000 HD
BRANCH  12  14
ATOM     14  C   UNL     1       0.896   9.869  19.749  0.00  0.00    +0.000 C 
BRANCH  14  15
ATOM     15  C   UNL     1      -0.365  10.171  18.979  0.00  0.00    +0.000 A 
ATOM     16  C   UNL     1      -0.599   9.682  17.693  0.00  0.00    +0.000 A 
ATOM     17  C   UNL     1      -1.810   9.924  17.039  0.00  0.00    +0.000 A 
ATOM     18  C   UNL     1      -2.806  10.711  17.633  0.00  0.00    +0.000 A 
ATOM     19  C   UNL     1      -4.067  10.893  17.036  0.00  0.00    +0.000 A 
ATOM     20  C   UNL     1      -5.045  11.687  17.644  0.00  0.00    +0.000 A 
ATOM     21  C   UNL     1      -4.754  12.348  18.840  0.00  0.00    +0.000 A 
ATOM     22  C   UNL     1      -3.508  12.167  19.444  0.00  0.00    +0.000 A 
ATOM     23  C   UNL     1      -2.539  11.325  18.878  0.00  0.00    +0.000 A 
ATOM     24  C   UNL     1      -1.322  11.048  19.535  0.00  0.00    +0.000 A 
ENDBRANCH  14  15
ENDBRANCH  12  14
ENDBRANCH   2  10
BRANCH   5  25
ATOM     25  O   UNL     1       2.916   2.809  21.272  0.00  0.00    +0.000 OA
ATOM     26  H   UNL     1       3.863   3.010  21.349  0.00  0.00    +0.000 HD
ENDBRANCH   5  25
BRANCH   1  27
ATOM     27  C   UNL     1       3.980   6.930  17.400  0.00  0.00    +0.000 C 
BRANCH  27  32
ATOM     28  C   UNL     1       6.575   5.017  15.295  0.00  0.00    +0.000 A 
ATOM     29  C   UNL     1       7.406   4.532  16.311  0.00  0.00    +0.000 A 
ATOM     30  C   UNL     1       7.173   4.911  17.626  0.00  0.00    +0.000 A 
ATOM     31  C   UNL     1       6.108   5.765  17.909  0.00  0.00    +0.000 A 
ATOM     32  C   UNL     1       5.238   6.264  16.901  0.00  0.00    +0.000 A 
ATOM     33  C   UNL     1       5.482   5.873  15.586  0.00  0.00    +0.000 A 
BRANCH  28  35
ATOM     34  N   UNL     1       7.637   5.284  13.150  0.00  0.00    +0.000 NA
ATOM     35  C   UNL     1       6.850   4.582  13.899  0.00  0.00    +0.000 C 
ATOM     36  N   UNL     1       6.246   3.463  13.403  0.00  0.00    +0.000 N 
ATOM     37  H   UNL     1       7.738   4.841  12.237  0.00  0.00    +0.000 HD
ATOM     38  H   UNL     1       6.181   3.408  12.395  0.00  0.00    +0.000 HD
ATOM     39  H   UNL     1       5.369   3.211  13.850  0.00  0.00    +0.000 HD
ENDBRANCH  28  35
ENDBRANCH  27  32
ENDBRANCH   1  27
TORSDOF 7
ENDMDL
MODEL 5
REMARK VINA RESULT:      -9.6      0.949      1.685
REMARK  Name = 
REMARK  7 active torsions:
REMARK  status: ('A' for Active; 'I' for Inactive)
REMARK    1  A    between atoms: C_2  and  C_4
REMARK    2  A    between atoms: C_8  and  C_9
REMARK    3  A    between atoms: C_9  and  N_10
REMARK    4  A    between atoms: C_11  and  C_12
REMARK    5  A    between atoms: N_14  and  C_15
REMARK    6  A    between atoms: C_15  and  C_16
REMARK    7  A    between atoms: C_28  and  O_29
REMARK                            x       y       z     vdW  Elec       q    Type
REMARK                         _______ _______ _______ _____ _____    ______ ____
ROOT
ATOM      1  N   UNL     1       3.938   4.179  17.966  0.00  0.00    +0.000 N 
ATOM      2  C   UNL     1       4.115   5.270  18.838  0.00  0.00    +0.000 A 
ATOM      3  C   UNL     1       4.271   4.600  20.055  0.00  0.00    +0.000 A 
ATOM      4  C   UNL     1       3.112   3.752  19.976  0.00  0.00    +0.000 A 
ATOM      5  C   UNL     1       2.120   3.386  20.913  0.00  0.00    +0.000 A 
ATOM      6  C   UNL     1       0.840   3.083  20.456  0.00  0.00    +0.000 A 
ATOM      7  C   UNL     1       0.567   3.070  19.086  0.00  0.00    +0.000 A 
ATOM      8  C   UNL     1       1.581   3.254  18.130  0.00  0.00    +0.000 A 
ATOM      9  C   UNL     1       2.869   3.560  18.595  0.00  0.00    +0.000 A 
ENDROOT
BRANCH   2  10
ATOM     10  C   UNL     1       3.659   6.583  18.444  0.00  0.00    +0.000 C 
ATOM     11  O   UNL     1       3.907   7.045  17.333  0.00  0.00    +0.000 OA
ATOM     12  N   UNL     1       2.791   7.192  19.321  0.00  0.00    +0.000 N 
ATOM     13  H   UNL     1       2.573   6.742  20.198  0.00  0.00    +0.000 HD
BRANCH  12  14
ATOM     14  C   UNL     1       1.952   8.295  18.890  0.00  0.00    +0.000 C 
BRANCH  14  15
ATOM     15  C   UNL     1       1.109   8.862  20.005  0.00  0.00    +0.000 A 
ATOM     16  C   UNL     1       0.895   8.186  21.207  0.00  0.00    +0.000 A 
ATOM     17  C   UNL     1       0.167   8.773  22.246  0.00  0.00    +0.000 A 
ATOM     18  C   UNL     1      -0.417  10.038  22.092  0.00  0.00    +0.000 A 
ATOM     19  C   UNL     1      -1.076  10.689  23.151  0.00  0.00    +0.000 A 
ATOM     20  C   UNL     1      -1.656  11.948  22.973  0.00  0.00    +0.000 A 
ATOM     21  C   UNL     1      -1.624  12.554  21.714  0.00  0.00    +0.000 A 
ATOM     22  C   UNL     1      -0.966  11.919  20.659  0.00  0.00    +0.000 A 
ATOM     23  C   UNL     1      -0.326  10.684  20.838  0.00  0.00    +0.000 A 
ATOM     24  C   UNL     1       0.435  10.087  19.810  0.00  0.00    +0.000 A 
ENDBRANCH  14  15
ENDBRANCH  12  14
ENDBRANCH   2  10
BRANCH   5  25
ATOM     25  O   UNL     1       2.278   3.541  22.272  0.00  0.00    +0.000 OA
ATOM     26  H   UNL     1       2.351   4.492  22.453  0.00  0.00    +0.000 HD
ENDBRANCH   5  25
BRANCH   1  27
ATOM     27  C   UNL     1       5.171   3.710  17.300  0.00  0.00    +0.000 C 
BRANCH  27  32
ATOM     28  C   UNL     1       6.195   3.864  13.591  0.00  0.00    +0.000 A 
ATOM     29  C   UNL     1       7.203   4.832  13.655  0.00  0.00    +0.000 A 
ATOM     30  C   UNL     1       7.459   5.477  14.858  0.00  0.00    +0.000 A 
ATOM     31  C   UNL     1       6.705   5.142  15.982  0.00  0.00    +0.000 A 
ATOM     32  C   UNL     1       5.684   4.155  15.953  0.00  0.00    +0.000 A 
ATOM     33  C   UNL     1       5.440   3.513  14.740  0.00  0.00    +0.000 A 
BRANCH  28  35
ATOM     34  N   UNL     1       6.953   2.691  11.630  0.00  0.00    +0.000 NA
ATOM     35  C   UNL     1       5.956   3.187  12.288  0.00  0.00    +0.000 C 
ATOM     36  N   UNL     1       4.692   3.120  11.778  0.00  0.00    +0.000 N 
ATOM     37  H   UNL     1       6.619   2.244  10.775  0.00  0.00    +0.000 HD
ATOM     38  H   UNL     1       4.629   2.980  10.778  0.00  0.00    +0.000 HD
ATOM     39  H   UNL     1       4.059   3.848  12.095  0.00  0.00    +0.000 HD
ENDBRANCH  28  35
ENDBRANCH  27  32
ENDBRANCH   1  27
TORSDOF 7
ENDMDL
MODEL 6
REMARK VINA RESULT:      -9.4      1.506      2.255
REMARK  Name = 
REMARK  7 active torsions:
REMARK  status: ('A' for Active; 'I' for Inactive)
REMARK    1  A    between atoms: C_2  and  C_4
REMARK    2  A    between atoms: C_8  and  C_9
REMARK    3  A    between atoms: C_9  and  N_10
REMARK    4  A    between atoms: C_11  and  C_12
REMARK    5  A    between atoms: N_14  and  C_15
REMARK    6  A    between atoms: C_15  and  C_16
REMARK    7  A    between atoms: C_28  and  O_29
REMARK                            x       y       z     vdW  Elec       q    Type
REMARK                         _______ _______ _______ _____ _____    ______ ____
ROOT
ATOM      1  N   UNL     1       4.203   4.632  17.409  0.00  0.00    +0.000 N 
ATOM      2  C   UNL     1       4.237   5.797  18.199  0.00  0.00    +0.000 A 
ATOM      3  C   UNL     1       4.439   5.239  19.465  0.00  0.00    +0.000 A 
ATOM      4  C   UNL     1       3.385   4.262  19.433  0.00  0.00    +0.000 A 
ATOM      5  C   UNL     1       2.420   3.854  20.381  0.00  0.00    +0.000 A 
ATOM      6  C   UNL     1       1.192   3.375  19.929  0.00  0.00    +0.000 A 
ATOM      7  C   UNL     1       0.953   3.231  18.561  0.00  0.00    +0.000 A 
ATOM      8  C   UNL     1       1.961   3.459  17.608  0.00  0.00    +0.000 A 
ATOM      9  C   UNL     1       3.196   3.943  18.067  0.00  0.00    +0.000 A 
ENDROOT
BRANCH   2  10
ATOM     10  C   UNL     1       3.645   7.017  17.701  0.00  0.00    +0.000 C 
ATOM     11  O   UNL     1       4.021   7.535  16.653  0.00  0.00    +0.000 OA
ATOM     12  N   UNL     1       2.529   7.449  18.380  0.00  0.00    +0.000 N 
ATOM     13  H   UNL     1       2.224   6.952  19.204  0.00  0.00    +0.000 HD
BRANCH  12  14
ATOM     14  C   UNL     1       1.612   8.397  17.774  0.00  0.00    +0.000 C 
BRANCH  14  15
ATOM     15  C   UNL     1       1.483   9.675  18.565  0.00  0.00    +0.000 A 
ATOM     16  C   UNL     1       0.791   9.747  19.775  0.00  0.00    +0.000 A 
ATOM     17  C   UNL     1       0.753  10.933  20.514  0.00  0.00    +0.000 A 
ATOM     18  C   UNL     1       1.363  12.101  20.037  0.00  0.00    +0.000 A 
ATOM     19  C   UNL     1       1.419  13.280  20.803  0.00  0.00    +0.000 A 
ATOM     20  C   UNL     1       2.028  14.435  20.305  0.00  0.00    +0.000 A 
ATOM     21  C   UNL     1       2.551  14.438  19.009  0.00  0.00    +0.000 A 
ATOM     22  C   UNL     1       2.508  13.271  18.244  0.00  0.00    +0.000 A 
ATOM     23  C   UNL     1       1.955  12.086  18.754  0.00  0.00    +0.000 A 
ATOM     24  C   UNL     1       2.007  10.874  18.033  0.00  0.00    +0.000 A 
ENDBRANCH  14  15
ENDBRANCH  12  14
ENDBRANCH   2  10
BRANCH   5  25
ATOM     25  O   UNL     1       2.528   4.125  21.726  0.00  0.00    +0.000 OA
ATOM     26  H   UNL     1       1.652   3.998  22.124  0.00  0.00    +0.000 HD
ENDBRANCH   5  25
BRANCH   1  27
ATOM     27  C   UNL     1       5.496   4.259  16.797  0.00  0.00    +0.000 C 
BRANCH  27  32
ATOM     28  C   UNL     1       5.923   3.586  13.030  0.00  0.00    +0.000 A 
ATOM     29  C   UNL     1       7.082   4.328  12.779  0.00  0.00    +0.000 A 
ATOM     30  C   UNL     1       7.636   5.098  13.792  0.00  0.00    +0.000 A 
ATOM     31  C   UNL     1       7.026   5.113  15.045  0.00  0.00    +0.000 A 
ATOM     32  C   UNL     1       5.856   4.361  15.336  0.00  0.00    +0.000 A 
ATOM     33  C   UNL     1       5.312   3.590  14.311  0.00  0.00    +0.000 A 
BRANCH  28  35
ATOM     34  N   UNL     1       5.981   1.694  11.542  0.00  0.00    +0.000 NA
ATOM     35  C   UNL     1       5.363   2.764  11.923  0.00  0.00    +0.000 C 
ATOM     36  N   UNL     1       4.219   3.160  11.294  0.00  0.00    +0.000 N 
ATOM     37  H   UNL     1       5.458   1.236  10.796  0.00  0.00    +0.000 HD
ATOM     38  H   UNL     1       4.079   2.790  10.363  0.00  0.00    +0.000 HD
ATOM     39  H   UNL     1       4.026   4.157  11.334  0.00  0.00    +0.000 HD
ENDBRANCH  28  35
ENDBRANCH  27  32
ENDBRANCH   1  27
TORSDOF 7
ENDMDL
MODEL 7
REMARK VINA RESULT:      -9.3      1.986      3.075
REMARK  Name = 
REMARK  7 active torsions:
REMARK  status: ('A' for Active; 'I' for Inactive)
REMARK    1  A    between atoms: C_2  and  C_4
REMARK    2  A    between atoms: C_8  and  C_9
REMARK    3  A    between atoms: C_9  and  N_10
REMARK    4  A    between atoms: C_11  and  C_12
REMARK    5  A    between atoms: N_14  and  C_15
REMARK    6  A    between atoms: C_15  and  C_16
REMARK    7  A    between atoms: C_28  and  O_29
REMARK                            x       y       z     vdW  Elec       q    Type
REMARK                         _______ _______ _______ _____ _____    ______ ____
ROOT
ATOM      1  N   UNL     1       2.694   5.951  18.284  0.00  0.00    +0.000 N 
ATOM      2  C   UNL     1       2.891   6.149  19.664  0.00  0.00    +0.000 A 
ATOM      3  C   UNL     1       3.923   5.238  19.906  0.00  0.00    +0.000 A 
ATOM      4  C   UNL     1       3.331   4.083  19.287  0.00  0.00    +0.000 A 
ATOM      5  C   UNL     1       3.238   2.726  19.670  0.00  0.00    +0.000 A 
ATOM      6  C   UNL     1       2.143   1.979  19.240  0.00  0.00    +0.000 A 
ATOM      7  C   UNL     1       1.197   2.545  18.384  0.00  0.00    +0.000 A 
ATOM      8  C   UNL     1       1.366   3.834  17.846  0.00  0.00    +0.000 A 
ATOM      9  C   UNL     1       2.469   4.583  18.283  0.00  0.00    +0.000 A 
ENDROOT
BRANCH   2  10
ATOM     10  C   UNL     1       1.840   6.740  20.460  0.00  0.00    +0.000 C 
ATOM     11  O   UNL     1       0.946   6.058  20.954  0.00  0.00    +0.000 OA
ATOM     12  N   UNL     1       2.013   8.069  20.768  0.00  0.00    +0.000 N 
ATOM     13  H   UNL     1       2.800   8.571  20.383  0.00  0.00    +0.000 HD
BRANCH  12  14
ATOM     14  C   UNL     1       1.281   8.679  21.863  0.00  0.00    +0.000 C 
BRANCH  14  15
ATOM     15  C   UNL     1       0.349   9.775  21.407  0.00  0.00    +0.000 A 
ATOM     16  C   UNL     1       0.207  10.135  20.067  0.00  0.00    +0.000 A 
ATOM     17  C   UNL     1      -0.719  11.107  19.675  0.00  0.00    +0.000 A 
ATOM     18  C   UNL     1      -1.494  11.788  20.623  0.00  0.00    +0.000 A 
ATOM     19  C   UNL     1      -2.496  12.702  20.249  0.00  0.00    +0.000 A 
ATOM     20  C   UNL     1      -3.254  13.375  21.212  0.00  0.00    +0.000 A 
ATOM     21  C   UNL     1      -2.986  13.173  22.569  0.00  0.00    +0.000 A 
ATOM     22  C   UNL     1      -1.999  12.262  22.950  0.00  0.00    +0.000 A 
ATOM     23  C   UNL     1      -1.273  11.534  21.996  0.00  0.00    +0.000 A 
ATOM     24  C   UNL     1      -0.353  10.532  22.371  0.00  0.00    +0.000 A 
ENDBRANCH  14  15
ENDBRANCH  12  14
ENDBRANCH   2  10
BRANCH   5  25
ATOM     25  O   UNL     1       4.038   2.163  20.637  0.00  0.00    +0.000 OA
ATOM     26  H   UNL     1       4.306   2.870  21.247  0.00  0.00    +0.000 HD
ENDBRANCH   5  25
BRANCH   1  27
ATOM     27  C   UNL     1       3.431   6.888  17.410  0.00  0.00    +0.000 C 
BRANCH  27  32
ATOM     28  C   UNL     1       6.438   5.557  15.407  0.00  0.00    +0.000 A 
ATOM     29  C   UNL     1       7.485   5.946  16.250  0.00  0.00    +0.000 A 
ATOM     30  C   UNL     1       7.211   6.705  17.378  0.00  0.00    +0.000 A 
ATOM     31  C   UNL     1       5.891   7.062  17.653  0.00  0.00    +0.000 A 
ATOM     32  C   UNL     1       4.804   6.673  16.825  0.00  0.00    +0.000 A 
ATOM     33  C   UNL     1       5.094   5.908  15.697  0.00  0.00    +0.000 A 
BRANCH  28  35
ATOM     34  N   UNL     1       6.297   3.535  14.106  0.00  0.00    +0.000 NA
ATOM     35  C   UNL     1       6.768   4.735  14.211  0.00  0.00    +0.000 C 
ATOM     36  N   UNL     1       7.593   5.238  13.247  0.00  0.00    +0.000 N 
ATOM     37  H   UNL     1       6.595   3.119  13.224  0.00  0.00    +0.000 HD
ATOM     38  H   UNL     1       8.055   4.553  12.664  0.00  0.00    +0.000 HD
ATOM     39  H   UNL     1       8.236   5.959  13.561  0.00  0.00    +0.000 HD
ENDBRANCH  28  35
ENDBRANCH  27  32
ENDBRANCH   1  27
TORSDOF 7
ENDMDL
MODEL 8
REMARK VINA RESULT:      -9.3      4.568      9.852
REMARK  Name = 
REMARK  7 active torsions:
REMARK  status: ('A' for Active; 'I' for Inactive)
REMARK    1  A    between atoms: C_2  and  C_4
REMARK    2  A    between atoms: C_8  and  C_9
REMARK    3  A    between atoms: C_9  and  N_10
REMARK    4  A    between atoms: C_11  and  C_12
REMARK    5  A    between atoms: N_14  and  C_15
REMARK    6  A    between atoms: C_15  and  C_16
REMARK    7  A    between atoms: C_28  and  O_29
REMARK                            x       y       z     vdW  Elec       q    Type
REMARK                         _______ _______ _______ _____ _____    ______ ____
ROOT
ATOM      1  N   UNL     1      -0.239  10.815  19.558  0.00  0.00    +0.000 N 
ATOM      2  C   UNL     1      -0.014  10.838  20.948  0.00  0.00    +0.000 A 
ATOM      3  C   UNL     1      -0.393  12.151  21.244  0.00  0.00    +0.000 A 
ATOM      4  C   UNL     1       0.389  12.825  20.243  0.00  0.00    +0.000 A 
ATOM      5  C   UNL     1       1.189  13.989  20.268  0.00  0.00    +0.000 A 
ATOM      6  C   UNL     1       2.277  14.077  19.402  0.00  0.00    +0.000 A 
ATOM      7  C   UNL     1       2.522  13.062  18.475  0.00  0.00    +0.000 A 
ATOM      8  C   UNL     1       1.636  11.983  18.310  0.00  0.00    +0.000 A 
ATOM      9  C   UNL     1       0.542  11.897  19.185  0.00  0.00    +0.000 A 
ENDROOT
BRANCH   2  10
ATOM     10  C   UNL     1       0.877   9.871  21.545  0.00  0.00    +0.000 C 
ATOM     11  O   UNL     1       1.125   9.880  22.748  0.00  0.00    +0.000 OA
ATOM     12  N   UNL     1       1.276   8.849  20.715  0.00  0.00    +0.000 N 
ATOM     13  H   UNL     1       0.995   8.856  19.745  0.00  0.00    +0.000 HD
BRANCH  12  14
ATOM     14  C   UNL     1       1.822   7.619  21.260  0.00  0.00    +0.000 C 
BRANCH  14  15
ATOM     15  C   UNL     1       2.033   6.555  20.212  0.00  0.00    +0.000 A 
ATOM     16  C   UNL     1       2.575   6.830  18.957  0.00  0.00    +0.000 A 
ATOM     17  C   UNL     1       2.822   5.807  18.037  0.00  0.00    +0.000 A 
ATOM     18  C   UNL     1       2.482   4.479  18.328  0.00  0.00    +0.000 A 
ATOM     19  C   UNL     1       2.803   3.419  17.460  0.00  0.00    +0.000 A 
ATOM     20  C   UNL     1       2.449   2.102  17.767  0.00  0.00    +0.000 A 
ATOM     21  C   UNL     1       1.725   1.834  18.932  0.00  0.00    +0.000 A 
ATOM     22  C   UNL     1       1.408   2.877  19.804  0.00  0.00    +0.000 A 
ATOM     23  C   UNL     1       1.810   4.195  19.539  0.00  0.00    +0.000 A 
ATOM     24  C   UNL     1       1.593   5.237  20.465  0.00  0.00    +0.000 A 
ENDBRANCH  14  15
ENDBRANCH  12  14
ENDBRANCH   2  10
BRANCH   5  25
ATOM     25  O   UNL     1       1.102  14.938  21.260  0.00  0.00    +0.000 OA
ATOM     26  H   UNL     1       0.299  15.461  21.099  0.00  0.00    +0.000 HD
ENDBRANCH   5  25
BRANCH   1  27
ATOM     27  C   UNL     1      -1.561  10.293  19.152  0.00  0.00    +0.000 C 
BRANCH  27  32
ATOM     28  C   UNL     1      -4.542  11.646  17.124  0.00  0.00    +0.000 A 
ATOM     29  C   UNL     1      -4.143  11.285  15.832  0.00  0.00    +0.000 A 
ATOM     30  C   UNL     1      -2.894  10.712  15.635  0.00  0.00    +0.000 A 
ATOM     31  C   UNL     1      -2.062  10.502  16.733  0.00  0.00    +0.000 A 
ATOM     32  C   UNL     1      -2.443  10.845  18.059  0.00  0.00    +0.000 A 
ATOM     33  C   UNL     1      -3.700  11.417  18.242  0.00  0.00    +0.000 A 
BRANCH  28  35
ATOM     34  N   UNL     1      -6.080  13.495  17.004  0.00  0.00    +0.000 NA
ATOM     35  C   UNL     1      -5.891  12.249  17.298  0.00  0.00    +0.000 C 
ATOM     36  N   UNL     1      -6.913  11.496  17.796  0.00  0.00    +0.000 N 
ATOM     37  H   UNL     1      -7.058  13.744  17.156  0.00  0.00    +0.000 HD
ATOM     38  H   UNL     1      -7.676  12.013  18.215  0.00  0.00    +0.000 HD
ATOM     39  H   UNL     1      -6.630  10.711  18.375  0.00  0.00    +0.000 HD
ENDBRANCH  28  35
ENDBRANCH  27  32
ENDBRANCH   1  27
TORSDOF 7
ENDMDL
MODEL 9
REMARK VINA RESULT:      -9.1      2.217      9.300
REMARK  Name = 
REMARK  7 active torsions:
REMARK  status: ('A' for Active; 'I' for Inactive)
REMARK    1  A    between atoms: C_2  and  C_4
REMARK    2  A    between atoms: C_8  and  C_9
REMARK    3  A    between atoms: C_9  and  N_10
REMARK    4  A    between atoms: C_11  and  C_12
REMARK    5  A    between atoms: N_14  and  C_15
REMARK    6  A    between atoms: C_15  and  C_16
REMARK    7  A    between atoms: C_28  and  O_29
REMARK                            x       y       z     vdW  Elec       q    Type
REMARK                         _______ _______ _______ _____ _____    ______ ____
ROOT
ATOM      1  N   UNL     1       2.520   6.216  18.940  0.00  0.00    +0.000 N 
ATOM      2  C   UNL     1       3.149   5.404  17.977  0.00  0.00    +0.000 A 
ATOM      3  C   UNL     1       2.072   4.610  17.573  0.00  0.00    +0.000 A 
ATOM      4  C   UNL     1       1.620   4.194  18.873  0.00  0.00    +0.000 A 
ATOM      5  C   UNL     1       1.198   2.950  19.394  0.00  0.00    +0.000 A 
ATOM      6  C   UNL     1       1.402   2.682  20.746  0.00  0.00    +0.000 A 
ATOM      7  C   UNL     1       1.946   3.659  21.583  0.00  0.00    +0.000 A 
ATOM      8  C   UNL     1       2.205   4.963  21.124  0.00  0.00    +0.000 A 
ATOM      9  C   UNL     1       2.000   5.228  19.762  0.00  0.00    +0.000 A 
ENDROOT
BRANCH   2  10
ATOM     10  C   UNL     1       4.585   5.247  18.001  0.00  0.00    +0.000 C 
ATOM     11  O   UNL     1       5.125   4.358  18.655  0.00  0.00    +0.000 OA
ATOM     12  N   UNL     1       5.277   6.036  17.112  0.00  0.00    +0.000 N 
ATOM     13  H   UNL     1       4.778   6.712  16.553  0.00  0.00    +0.000 HD
BRANCH  12  14
ATOM     14  C   UNL     1       6.642   5.712  16.738  0.00  0.00    +0.000 C 
BRANCH  14  15
ATOM     15  C   UNL     1       6.758   5.212  15.319  0.00  0.00    +0.000 A 
ATOM     16  C   UNL     1       7.856   5.499  14.506  0.00  0.00    +0.000 A 
ATOM     17  C   UNL     1       7.962   4.959  13.221  0.00  0.00    +0.000 A 
ATOM     18  C   UNL     1       6.944   4.157  12.689  0.00  0.00    +0.000 A 
ATOM     19  C   UNL     1       7.067   3.528  11.437  0.00  0.00    +0.000 A 
ATOM     20  C   UNL     1       6.035   2.737  10.922  0.00  0.00    +0.000 A 
ATOM     21  C   UNL     1       4.844   2.602  11.639  0.00  0.00    +0.000 A 
ATOM     22  C   UNL     1       4.714   3.216  12.886  0.00  0.00    +0.000 A 
ATOM     23  C   UNL     1       5.764   3.962  13.443  0.00  0.00    +0.000 A 
ATOM     24  C   UNL     1       5.686   4.493  14.748  0.00  0.00    +0.000 A 
ENDBRANCH  14  15
ENDBRANCH  12  14
ENDBRANCH   2  10
BRANCH   5  25
ATOM     25  O   UNL     1       0.814   1.895  18.599  0.00  0.00    +0.000 OA
ATOM     26  H   UNL     1       1.266   1.100  18.925  0.00  0.00    +0.000 HD
ENDBRANCH   5  25
BRANCH   1  27
ATOM     27  C   UNL     1       2.033   7.516  18.435  0.00  0.00    +0.000 C 
BRANCH  27  32
ATOM     28  C   UNL     1       0.464   9.598  21.268  0.00  0.00    +0.000 A 
ATOM     29  C   UNL     1      -0.198  10.575  20.517  0.00  0.00    +0.000 A 
ATOM     30  C   UNL     1      -0.044  10.600  19.138  0.00  0.00    +0.000 A 
ATOM     31  C   UNL     1       0.766   9.645  18.527  0.00  0.00    +0.000 A 
ATOM     32  C   UNL     1       1.441   8.632  19.260  0.00  0.00    +0.000 A 
ATOM     33  C   UNL     1       1.275   8.616  20.644  0.00  0.00    +0.000 A 
BRANCH  28  35
ATOM     34  N   UNL     1       1.281   9.412  23.526  0.00  0.00    +0.000 NA
ATOM     35  C   UNL     1       0.267   9.596  22.743  0.00  0.00    +0.000 C 
ATOM     36  N   UNL     1      -0.984   9.755  23.263  0.00  0.00    +0.000 N 
ATOM     37  H   UNL     1       0.983   9.462  24.500  0.00  0.00    +0.000 HD
ATOM     38  H   UNL     1      -1.117   9.405  24.203  0.00  0.00    +0.000 HD
ATOM     39  H   UNL     1      -1.745   9.481  22.649  0.00  0.00    +0.000 HD
ENDBRANCH  28  35
ENDBRANCH  27  32
ENDBRANCH   1  27
TORSDOF 7
ENDMDL
