MODEL 1
REMARK VINA RESULT:      -8.7      0.000      0.000
REMARK  Name = 
REMARK  3 active torsions:
REMARK  status: ('A' for Active; 'I' for Inactive)
REMARK    1  A    between atoms: C_1  and  C_2
REMARK    2  A    between atoms: C_6  and  C_7
REMARK    3  A    between atoms: C_12  and  C_13
REMARK                            x       y       z     vdW  Elec       q    Type
REMARK                         _______ _______ _______ _____ _____    ______ ____
ROOT
ATOM      1  C   UNL     1       2.214   5.884  20.145  0.00  0.00    +0.000 C 
ATOM      2  O   UNL     1       2.626   5.819  21.304  0.00  0.00    +0.000 OA
ATOM      3  N   UNL     1       1.666   7.140  19.694  0.00  0.00    +0.000 N 
ATOM      4  C   UNL     1       1.346   8.086  20.800  0.00  0.00    +0.000 C 
ATOM      5  C   UNL     1       0.252   9.169  20.486  0.00  0.00    +0.000 C 
ATOM      6  C   UNL     1       0.600   9.846  19.205  0.00  0.00    +0.000 A 
ATOM      7  C   UNL     1       1.611   9.278  18.453  0.00  0.00    +0.000 A 
ATOM      8  N   UNL     1       2.466  10.358  18.280  0.00  0.00    +0.000 N 
ATOM      9  C   UNL     1       1.768  11.553  18.467  0.00  0.00    +0.000 A 
ATOM     10  C   UNL     1       2.165  12.904  18.436  0.00  0.00    +0.000 A 
ATOM     11  C   UNL     1       1.162  13.886  18.481  0.00  0.00    +0.000 A 
ATOM     12  C   UNL     1      -0.181  13.532  18.571  0.00  0.00    +0.000 A 
ATOM     13  C   UNL     1      -0.541  12.193  18.788  0.00  0.00    +0.000 A 
ATOM     14  C   UNL     1       0.456  11.192  18.778  0.00  0.00    +0.000 A 
ATOM     15  C   UNL     1       1.891   7.782  18.370  0.00  0.00    +0.000 C 
ATOM     16  H   UNL     1       3.461  10.308  18.119  0.00  0.00    +0.000 HD
ENDROOT
BRANCH   1  22
ATOM     17  C   UNL     1       3.309   4.308  18.376  0.00  0.00    +0.000 A 
ATOM     18  C   UNL     1       3.202   3.120  17.591  0.00  0.00    +0.000 A 
ATOM     19  C   UNL     1       2.122   2.251  17.677  0.00  0.00    +0.000 A 
ATOM     20  C   UNL     1       1.128   2.519  18.602  0.00  0.00    +0.000 A 
ATOM     21  C   UNL     1       1.214   3.642  19.454  0.00  0.00    +0.000 A 
ATOM     22  C   UNL     1       2.289   4.566  19.372  0.00  0.00    +0.000 A 
BRANCH  17  28
ATOM     23  C   UNL     1       8.031   5.787  19.402  0.00  0.00    +0.000 C 
ATOM     24  C   UNL     1       6.849   5.818  18.482  0.00  0.00    +0.000 A 
ATOM     25  C   UNL     1       6.905   6.514  17.271  0.00  0.00    +0.000 A 
ATOM     26  C   UNL     1       5.784   6.559  16.457  0.00  0.00    +0.000 A 
ATOM     27  C   UNL     1       4.611   5.907  16.860  0.00  0.00    +0.000 A 
ATOM     28  C   UNL     1       4.525   5.142  18.057  0.00  0.00    +0.000 A 
ATOM     29  C   UNL     1       5.677   5.123  18.847  0.00  0.00    +0.000 A 
ENDBRANCH  17  28
ENDBRANCH   1  22
TORSDOF 2
ENDMDL
MODEL 2
REMARK VINA RESULT:      -8.5      1.629      2.475
REMARK  Name = 
REMARK  3 active torsions:
REMARK  status: ('A' for Active; 'I' for Inactive)
REMARK    1  A    between atoms: C_1  and  C_2
REMARK    2  A    between atoms: C_6  and  C_7
REMARK    3  A    between atoms: C_12  and  C_13
REMARK                            x       y       z     vdW  Elec       q    Type
REMARK                         _______ _______ _______ _____ _____    ______ ____
ROOT
ATOM      1  C   UNL     1       2.085   5.912  18.703  0.00  0.00    +0.000 C 
ATOM      2  O   UNL     1       1.890   5.500  17.559  0.00  0.00    +0.000 OA
ATOM      3  N   UNL     1       2.005   7.335  18.929  0.00  0.00    +0.000 N 
ATOM      4  C   UNL     1       2.048   8.144  17.678  0.00  0.00    +0.000 C 
ATOM      5  C   UNL     1       2.550   9.625  17.831  0.00  0.00    +0.000 C 
ATOM      6  C   UNL     1       1.792  10.277  18.935  0.00  0.00    +0.000 A 
ATOM      7  C   UNL     1       1.016   9.455  19.731  0.00  0.00    +0.000 A 
ATOM      8  N   UNL     1      -0.221  10.078  19.646  0.00  0.00    +0.000 N 
ATOM      9  C   UNL     1      -0.059  11.412  19.265  0.00  0.00    +0.000 A 
ATOM     10  C   UNL     1      -0.976  12.450  19.013  0.00  0.00    +0.000 A 
ATOM     11  C   UNL     1      -0.469  13.746  18.828  0.00  0.00    +0.000 A 
ATOM     12  C   UNL     1       0.901  13.992  18.878  0.00  0.00    +0.000 A 
ATOM     13  C   UNL     1       1.804  12.920  18.945  0.00  0.00    +0.000 A 
ATOM     14  C   UNL     1       1.314  11.604  19.099  0.00  0.00    +0.000 A 
ATOM     15  C   UNL     1       1.368   8.016  20.089  0.00  0.00    +0.000 C 
ATOM     16  H   UNL     1      -1.120   9.633  19.762  0.00  0.00    +0.000 HD
ENDROOT
BRANCH   1  22
ATOM     17  C   UNL     1       3.718   4.110  19.650  0.00  0.00    +0.000 A 
ATOM     18  C   UNL     1       3.910   3.004  20.533  0.00  0.00    +0.000 A 
ATOM     19  C   UNL     1       2.917   2.531  21.381  0.00  0.00    +0.000 A 
ATOM     20  C   UNL     1       1.703   3.192  21.412  0.00  0.00    +0.000 A 
ATOM     21  C   UNL     1       1.478   4.335  20.612  0.00  0.00    +0.000 A 
ATOM     22  C   UNL     1       2.460   4.827  19.713  0.00  0.00    +0.000 A 
BRANCH  17  28
ATOM     23  C   UNL     1       6.013   3.883  15.154  0.00  0.00    +0.000 C 
ATOM     24  C   UNL     1       6.011   4.375  16.569  0.00  0.00    +0.000 A 
ATOM     25  C   UNL     1       7.038   5.198  17.040  0.00  0.00    +0.000 A 
ATOM     26  C   UNL     1       7.032   5.606  18.365  0.00  0.00    +0.000 A 
ATOM     27  C   UNL     1       5.998   5.188  19.212  0.00  0.00    +0.000 A 
ATOM     28  C   UNL     1       4.904   4.396  18.763  0.00  0.00    +0.000 A 
ATOM     29  C   UNL     1       4.949   4.007  17.421  0.00  0.00    +0.000 A 
ENDBRANCH  17  28
ENDBRANCH   1  22
TORSDOF 2
ENDMDL
MODEL 3
REMARK VINA RESULT:      -8.4      1.696      2.291
REMARK  Name = 
REMARK  3 active torsions:
REMARK  status: ('A' for Active; 'I' for Inactive)
REMARK    1  A    between atoms: C_1  and  C_2
REMARK    2  A    between atoms: C_6  and  C_7
REMARK    3  A    between atoms: C_12  and  C_13
REMARK                            x       y       z     vdW  Elec       q    Type
REMARK                         _______ _______ _______ _____ _____    ______ ____
ROOT
ATOM      1  C   UNL     1       2.115   5.821  18.665  0.00  0.00    +0.000 C 
ATOM      2  O   UNL     1       1.682   5.451  17.572  0.00  0.00    +0.000 OA
ATOM      3  N   UNL     1       1.982   7.217  19.005  0.00  0.00    +0.000 N 
ATOM      4  C   UNL     1       1.660   8.089  17.840  0.00  0.00    +0.000 C 
ATOM      5  C   UNL     1       2.068   9.600  17.977  0.00  0.00    +0.000 C 
ATOM      6  C   UNL     1       1.550  10.122  19.273  0.00  0.00    +0.000 A 
ATOM      7  C   UNL     1       1.054   9.192  20.167  0.00  0.00    +0.000 A 
ATOM      8  N   UNL     1      -0.212   9.702  20.421  0.00  0.00    +0.000 N 
ATOM      9  C   UNL     1      -0.249  11.063  20.110  0.00  0.00    +0.000 A 
ATOM     10  C   UNL     1      -1.278  12.023  20.156  0.00  0.00    +0.000 A 
ATOM     11  C   UNL     1      -0.931  13.369  19.951  0.00  0.00    +0.000 A 
ATOM     12  C   UNL     1       0.387  13.737  19.695  0.00  0.00    +0.000 A 
ATOM     13  C   UNL     1       1.360  12.751  19.470  0.00  0.00    +0.000 A 
ATOM     14  C   UNL     1       1.025  11.389  19.640  0.00  0.00    +0.000 A 
ATOM     15  C   UNL     1       1.592   7.775  20.328  0.00  0.00    +0.000 C 
ATOM     16  H   UNL     1      -1.018   9.170  20.713  0.00  0.00    +0.000 HD
ENDROOT
BRANCH   1  22
ATOM     17  C   UNL     1       4.092   4.173  19.102  0.00  0.00    +0.000 A 
ATOM     18  C   UNL     1       4.579   3.042  19.824  0.00  0.00    +0.000 A 
ATOM     19  C   UNL     1       3.839   2.394  20.805  0.00  0.00    +0.000 A 
ATOM     20  C   UNL     1       2.594   2.897  21.135  0.00  0.00    +0.000 A 
ATOM     21  C   UNL     1       2.087   4.055  20.504  0.00  0.00    +0.000 A 
ATOM     22  C   UNL     1       2.804   4.723  19.477  0.00  0.00    +0.000 A 
BRANCH  17  28
ATOM     23  C   UNL     1       7.652   7.373  17.485  0.00  0.00    +0.000 C 
ATOM     24  C   UNL     1       6.821   6.150  17.242  0.00  0.00    +0.000 A 
ATOM     25  C   UNL     1       6.994   5.388  16.083  0.00  0.00    +0.000 A 
ATOM     26  C   UNL     1       6.185   4.284  15.865  0.00  0.00    +0.000 A 
ATOM     27  C   UNL     1       5.206   3.948  16.809  0.00  0.00    +0.000 A 
ATOM     28  C   UNL     1       5.031   4.662  18.027  0.00  0.00    +0.000 A 
ATOM     29  C   UNL     1       5.867   5.767  18.207  0.00  0.00    +0.000 A 
ENDBRANCH  17  28
ENDBRANCH   1  22
TORSDOF 2
ENDMDL
MODEL 4
REMARK VINA RESULT:      -8.2      1.622      3.580
REMARK  Name = 
REMARK  3 active torsions:
REMARK  status: ('A' for Active; 'I' for Inactive)
REMARK    1  A    between atoms: C_1  and  C_2
REMARK    2  A    between atoms: C_6  and  C_7
REMARK    3  A    between atoms: C_12  and  C_13
REMARK                            x       y       z     vdW  Elec       q    Type
REMARK                         _______ _______ _______ _____ _____    ______ ____
ROOT
ATOM      1  C   UNL     1       3.449   6.836  18.661  0.00  0.00    +0.000 C 
ATOM      2  O   UNL     1       3.980   6.579  19.742  0.00  0.00    +0.000 OA
ATOM      3  N   UNL     1       2.412   7.838  18.640  0.00  0.00    +0.000 N 
ATOM      4  C   UNL     1       1.877   8.174  19.990  0.00  0.00    +0.000 C 
ATOM      5  C   UNL     1       0.422   8.765  20.027  0.00  0.00    +0.000 C 
ATOM      6  C   UNL     1       0.336   9.891  19.056  0.00  0.00    +0.000 A 
ATOM      7  C   UNL     1       1.396  10.046  18.184  0.00  0.00    +0.000 A 
ATOM      8  N   UNL     1       1.742  11.373  18.404  0.00  0.00    +0.000 N 
ATOM      9  C   UNL     1       0.663  12.061  18.961  0.00  0.00    +0.000 A 
ATOM     10  C   UNL     1       0.501  13.391  19.393  0.00  0.00    +0.000 A 
ATOM     11  C   UNL     1      -0.792  13.819  19.738  0.00  0.00    +0.000 A 
ATOM     12  C   UNL     1      -1.875  12.947  19.669  0.00  0.00    +0.000 A 
ATOM     13  C   UNL     1      -1.663  11.583  19.417  0.00  0.00    +0.000 A 
ATOM     14  C   UNL     1      -0.365  11.126  19.099  0.00  0.00    +0.000 A 
ATOM     15  C   UNL     1       2.221   8.899  17.613  0.00  0.00    +0.000 C 
ATOM     16  H   UNL     1       2.655  11.780  18.261  0.00  0.00    +0.000 HD
ENDROOT
BRANCH   1  22
ATOM     17  C   UNL     1       3.669   4.555  17.410  0.00  0.00    +0.000 A 
ATOM     18  C   UNL     1       4.305   3.807  16.373  0.00  0.00    +0.000 A 
ATOM     19  C   UNL     1       5.236   4.359  15.503  0.00  0.00    +0.000 A 
ATOM     20  C   UNL     1       5.523   5.709  15.609  0.00  0.00    +0.000 A 
ATOM     21  C   UNL     1       4.874   6.515  16.570  0.00  0.00    +0.000 A 
ATOM     22  C   UNL     1       3.940   5.977  17.494  0.00  0.00    +0.000 A 
BRANCH  17  28
ATOM     23  C   UNL     1       2.514   2.532  21.894  0.00  0.00    +0.000 C 
ATOM     24  C   UNL     1       2.127   2.806  20.472  0.00  0.00    +0.000 A 
ATOM     25  C   UNL     1       0.878   2.412  19.984  0.00  0.00    +0.000 A 
ATOM     26  C   UNL     1       0.561   2.643  18.655  0.00  0.00    +0.000 A 
ATOM     27  C   UNL     1       1.497   3.266  17.819  0.00  0.00    +0.000 A 
ATOM     28  C   UNL     1       2.758   3.732  18.286  0.00  0.00    +0.000 A 
ATOM     29  C   UNL     1       3.037   3.480  19.632  0.00  0.00    +0.000 A 
ENDBRANCH  17  28
ENDBRANCH   1  22
TORSDOF 2
ENDMDL
MODEL 5
REMARK VINA RESULT:      -7.9      0.589      1.384
REMARK  Name = 
REMARK  3 active torsions:
REMARK  status: ('A' for Active; 'I' for Inactive)
REMARK    1  A    between atoms: C_1  and  C_2
REMARK    2  A    between atoms: C_6  and  C_7
REMARK    3  A    between atoms: C_12  and  C_13
REMARK                            x       y       z     vdW  Elec       q    Type
REMARK                         _______ _______ _______ _____ _____    ______ ____
ROOT
ATOM      1  C   UNL     1       2.087   5.685  20.385  0.00  0.00    +0.000 C 
ATOM      2  O   UNL     1       2.580   5.659  21.514  0.00  0.00    +0.000 OA
ATOM      3  N   UNL     1       1.601   6.951  19.891  0.00  0.00    +0.000 N 
ATOM      4  C   UNL     1       1.438   7.986  20.952  0.00  0.00    +0.000 C 
ATOM      5  C   UNL     1       0.407   9.130  20.645  0.00  0.00    +0.000 C 
ATOM      6  C   UNL     1       0.706   9.698  19.300  0.00  0.00    +0.000 A 
ATOM      7  C   UNL     1       1.611   9.007  18.518  0.00  0.00    +0.000 A 
ATOM      8  N   UNL     1       2.528  10.004  18.212  0.00  0.00    +0.000 N 
ATOM      9  C   UNL     1       1.938  11.259  18.369  0.00  0.00    +0.000 A 
ATOM     10  C   UNL     1       2.431  12.570  18.219  0.00  0.00    +0.000 A 
ATOM     11  C   UNL     1       1.511  13.629  18.271  0.00  0.00    +0.000 A 
ATOM     12  C   UNL     1       0.155  13.389  18.479  0.00  0.00    +0.000 A 
ATOM     13  C   UNL     1      -0.286  12.099  18.810  0.00  0.00    +0.000 A 
ATOM     14  C   UNL     1       0.630  11.023  18.796  0.00  0.00    +0.000 A 
ATOM     15  C   UNL     1       1.771   7.491  18.515  0.00  0.00    +0.000 C 
ATOM     16  H   UNL     1       3.502   9.865  17.984  0.00  0.00    +0.000 HD
ENDROOT
BRANCH   1  22
ATOM     17  C   UNL     1       2.938   3.913  18.668  0.00  0.00    +0.000 A 
ATOM     18  C   UNL     1       2.683   2.693  17.971  0.00  0.00    +0.000 A 
ATOM     19  C   UNL     1       1.541   1.930  18.172  0.00  0.00    +0.000 A 
ATOM     20  C   UNL     1       0.630   2.342  19.129  0.00  0.00    +0.000 A 
ATOM     21  C   UNL     1       0.861   3.503  19.899  0.00  0.00    +0.000 A 
ATOM     22  C   UNL     1       2.003   4.321  19.699  0.00  0.00    +0.000 A 
BRANCH  17  28
ATOM     23  C   UNL     1       5.506   6.660  15.293  0.00  0.00    +0.000 C 
ATOM     24  C   UNL     1       5.446   6.021  16.647  0.00  0.00    +0.000 A 
ATOM     25  C   UNL     1       6.499   6.171  17.555  0.00  0.00    +0.000 A 
ATOM     26  C   UNL     1       6.434   5.536  18.785  0.00  0.00    +0.000 A 
ATOM     27  C   UNL     1       5.317   4.752  19.101  0.00  0.00    +0.000 A 
ATOM     28  C   UNL     1       4.199   4.616  18.230  0.00  0.00    +0.000 A 
ATOM     29  C   UNL     1       4.304   5.272  17.001  0.00  0.00    +0.000 A 
ENDBRANCH  17  28
ENDBRANCH   1  22
TORSDOF 2
ENDMDL
MODEL 6
REMARK VINA RESULT:      -7.8      0.931      1.504
REMARK  Name = 
REMARK  3 active torsions:
REMARK  status: ('A' for Active; 'I' for Inactive)
REMARK    1  A    between atoms: C_1  and  C_2
REMARK    2  A    between atoms: C_6  and  C_7
REMARK    3  A    between atoms: C_12  and  C_13
REMARK                            x       y       z     vdW  Elec       q    Type
REMARK                         _______ _______ _______ _____ _____    ______ ____
ROOT
ATOM      1  C   UNL     1       2.714   6.317  19.502  0.00  0.00    +0.000 C 
ATOM      2  O   UNL     1       3.235   6.195  20.612  0.00  0.00    +0.000 OA
ATOM      3  N   UNL     1       2.004   7.541  19.221  0.00  0.00    +0.000 N 
ATOM      4  C   UNL     1       1.693   8.345  20.436  0.00  0.00    +0.000 C 
ATOM      5  C   UNL     1       0.471   9.326  20.320  0.00  0.00    +0.000 C 
ATOM      6  C   UNL     1       0.630  10.147  19.087  0.00  0.00    +0.000 A 
ATOM      7  C   UNL     1       1.619   9.761  18.203  0.00  0.00    +0.000 A 
ATOM      8  N   UNL     1       2.342  10.939  18.066  0.00  0.00    +0.000 N 
ATOM      9  C   UNL     1       1.547  12.030  18.426  0.00  0.00    +0.000 A 
ATOM     10  C   UNL     1       1.802  13.413  18.493  0.00  0.00    +0.000 A 
ATOM     11  C   UNL     1       0.714  14.272  18.717  0.00  0.00    +0.000 A 
ATOM     12  C   UNL     1      -0.573  13.768  18.882  0.00  0.00    +0.000 A 
ATOM     13  C   UNL     1      -0.775  12.384  18.996  0.00  0.00    +0.000 A 
ATOM     14  C   UNL     1       0.312  11.502  18.807  0.00  0.00    +0.000 A 
ATOM     15  C   UNL     1       2.040   8.318  17.952  0.00  0.00    +0.000 C 
ATOM     16  H   UNL     1       3.318  11.012  17.820  0.00  0.00    +0.000 HD
ENDROOT
BRANCH   1  22
ATOM     17  C   UNL     1       4.109   4.709  17.990  0.00  0.00    +0.000 A 
ATOM     18  C   UNL     1       4.103   3.646  17.036  0.00  0.00    +0.000 A 
ATOM     19  C   UNL     1       2.940   3.024  16.603  0.00  0.00    +0.000 A 
ATOM     20  C   UNL     1       1.735   3.414  17.158  0.00  0.00    +0.000 A 
ATOM     21  C   UNL     1       1.684   4.411  18.157  0.00  0.00    +0.000 A 
ATOM     22  C   UNL     1       2.850   5.088  18.601  0.00  0.00    +0.000 A 
BRANCH  17  28
ATOM     23  C   UNL     1       7.609   8.265  17.193  0.00  0.00    +0.000 C 
ATOM     24  C   UNL     1       7.166   7.048  17.946  0.00  0.00    +0.000 A 
ATOM     25  C   UNL     1       7.953   6.518  18.972  0.00  0.00    +0.000 A 
ATOM     26  C   UNL     1       7.538   5.369  19.626  0.00  0.00    +0.000 A 
ATOM     27  C   UNL     1       6.336   4.755  19.250  0.00  0.00    +0.000 A 
ATOM     28  C   UNL     1       5.477   5.290  18.250  0.00  0.00    +0.000 A 
ATOM     29  C   UNL     1       5.932   6.449  17.616  0.00  0.00    +0.000 A 
ENDBRANCH  17  28
ENDBRANCH   1  22
TORSDOF 2
ENDMDL
MODEL 7
REMARK VINA RESULT:      -7.6      2.253      8.537
REMARK  Name = 
REMARK  3 active torsions:
REMARK  status: ('A' for Active; 'I' for Inactive)
REMARK    1  A    between atoms: C_1  and  C_2
REMARK    2  A    between atoms: C_6  and  C_7
REMARK    3  A    between atoms: C_12  and  C_13
REMARK                            x       y       z     vdW  Elec       q    Type
REMARK                         _______ _______ _______ _____ _____    ______ ____
ROOT
ATOM      1  C   UNL     1       0.231  10.277  20.212  0.00  0.00    +0.000 C 
ATOM      2  O   UNL     1      -0.776  10.033  20.878  0.00  0.00    +0.000 OA
ATOM      3  N   UNL     1       1.132   9.186  19.930  0.00  0.00    +0.000 N 
ATOM      4  C   UNL     1       0.905   7.985  20.783  0.00  0.00    +0.000 C 
ATOM      5  C   UNL     1       2.137   7.029  20.969  0.00  0.00    +0.000 C 
ATOM      6  C   UNL     1       2.704   6.709  19.629  0.00  0.00    +0.000 A 
ATOM      7  C   UNL     1       2.234   7.448  18.560  0.00  0.00    +0.000 A 
ATOM      8  N   UNL     1       1.822   6.445  17.692  0.00  0.00    +0.000 N 
ATOM      9  C   UNL     1       2.466   5.247  18.007  0.00  0.00    +0.000 A 
ATOM     10  C   UNL     1       2.383   3.950  17.467  0.00  0.00    +0.000 A 
ATOM     11  C   UNL     1       3.319   2.996  17.898  0.00  0.00    +0.000 A 
ATOM     12  C   UNL     1       4.289   3.322  18.844  0.00  0.00    +0.000 A 
ATOM     13  C   UNL     1       4.237   4.559  19.503  0.00  0.00    +0.000 A 
ATOM     14  C   UNL     1       3.282   5.522  19.106  0.00  0.00    +0.000 A 
ATOM     15  C   UNL     1       1.817   8.911  18.637  0.00  0.00    +0.000 C 
ATOM     16  H   UNL     1       1.109   6.530  16.983  0.00  0.00    +0.000 HD
ENDROOT
BRANCH   1  22
ATOM     17  C   UNL     1      -0.493  12.430  18.926  0.00  0.00    +0.000 A 
ATOM     18  C   UNL     1      -0.158  13.755  18.512  0.00  0.00    +0.000 A 
ATOM     19  C   UNL     1       1.026  14.385  18.874  0.00  0.00    +0.000 A 
ATOM     20  C   UNL     1       1.899  13.719  19.715  0.00  0.00    +0.000 A 
ATOM     21  C   UNL     1       1.591  12.434  20.213  0.00  0.00    +0.000 A 
ATOM     22  C   UNL     1       0.404  11.751  19.840  0.00  0.00    +0.000 A 
BRANCH  17  28
ATOM     23  C   UNL     1      -3.024   9.812  15.423  0.00  0.00    +0.000 C 
ATOM     24  C   UNL     1      -3.039  10.584  16.707  0.00  0.00    +0.000 A 
ATOM     25  C   UNL     1      -4.223  10.733  17.436  0.00  0.00    +0.000 A 
ATOM     26  C   UNL     1      -4.217  11.485  18.600  0.00  0.00    +0.000 A 
ATOM     27  C   UNL     1      -3.027  12.087  19.028  0.00  0.00    +0.000 A 
ATOM     28  C   UNL     1      -1.789  11.919  18.347  0.00  0.00    +0.000 A 
ATOM     29  C   UNL     1      -1.838  11.152  17.180  0.00  0.00    +0.000 A 
ENDBRANCH  17  28
ENDBRANCH   1  22
TORSDOF 2
ENDMDL
MODEL 8
REMARK VINA RESULT:      -7.6      2.260      8.530
REMARK  Name = 
REMARK  3 active torsions:
REMARK  status: ('A' for Active; 'I' for Inactive)
REMARK    1  A    between atoms: C_1  and  C_2
REMARK    2  A    between atoms: C_6  and  C_7
REMARK    3  A    between atoms: C_12  and  C_13
REMARK                            x       y       z     vdW  Elec       q    Type
REMARK                         _______ _______ _______ _____ _____    ______ ____
ROOT
ATOM      1  C   UNL     1       0.307   9.959  20.259  0.00  0.00    +0.000 C 
ATOM      2  O   UNL     1      -0.638   9.696  21.004  0.00  0.00    +0.000 OA
ATOM      3  N   UNL     1       1.218   8.892  19.924  0.00  0.00    +0.000 N 
ATOM      4  C   UNL     1       1.095   7.699  20.809  0.00  0.00    +0.000 C 
ATOM      5  C   UNL     1       2.368   6.784  20.914  0.00  0.00    +0.000 C 
ATOM      6  C   UNL     1       2.840   6.459  19.539  0.00  0.00    +0.000 A 
ATOM      7  C   UNL     1       2.267   7.165  18.499  0.00  0.00    +0.000 A 
ATOM      8  N   UNL     1       1.822   6.136  17.680  0.00  0.00    +0.000 N 
ATOM      9  C   UNL     1       2.525   4.963  17.962  0.00  0.00    +0.000 A 
ATOM     10  C   UNL     1       2.442   3.655  17.449  0.00  0.00    +0.000 A 
ATOM     11  C   UNL     1       3.439   2.738  17.821  0.00  0.00    +0.000 A 
ATOM     12  C   UNL     1       4.467   3.109  18.683  0.00  0.00    +0.000 A 
ATOM     13  C   UNL     1       4.426   4.355  19.327  0.00  0.00    +0.000 A 
ATOM     14  C   UNL     1       3.414   5.282  18.991  0.00  0.00    +0.000 A 
ATOM     15  C   UNL     1       1.810   8.616  18.587  0.00  0.00    +0.000 C 
ATOM     16  H   UNL     1       1.053   6.187  17.027  0.00  0.00    +0.000 HD
ENDROOT
BRANCH   1  22
ATOM     17  C   UNL     1      -0.448  12.012  18.835  0.00  0.00    +0.000 A 
ATOM     18  C   UNL     1      -0.174  13.348  18.408  0.00  0.00    +0.000 A 
ATOM     19  C   UNL     1       0.918  14.078  18.858  0.00  0.00    +0.000 A 
ATOM     20  C   UNL     1       1.752  13.506  19.802  0.00  0.00    +0.000 A 
ATOM     21  C   UNL     1       1.494  12.215  20.314  0.00  0.00    +0.000 A 
ATOM     22  C   UNL     1       0.404  11.431  19.854  0.00  0.00    +0.000 A 
BRANCH  17  28
ATOM     23  C   UNL     1      -5.396  11.917  17.816  0.00  0.00    +0.000 C 
ATOM     24  C   UNL     1      -4.026  11.362  17.573  0.00  0.00    +0.000 A 
ATOM     25  C   UNL     1      -3.823  10.350  16.630  0.00  0.00    +0.000 A 
ATOM     26  C   UNL     1      -2.551   9.827  16.453  0.00  0.00    +0.000 A 
ATOM     27  C   UNL     1      -1.488  10.320  17.222  0.00  0.00    +0.000 A 
ATOM     28  C   UNL     1      -1.639  11.385  18.153  0.00  0.00    +0.000 A 
ATOM     29  C   UNL     1      -2.936  11.884  18.300  0.00  0.00    +0.000 A 
ENDBRANCH  17  28
ENDBRANCH   1  22
TORSDOF 2
ENDMDL
MODEL 9
REMARK VINA RESULT:      -7.6      2.706      8.523
REMARK  Name = 
REMARK  3 active torsions:
REMARK  status: ('A' for Active; 'I' for Inactive)
REMARK    1  A    between atoms: C_1  and  C_2
REMARK    2  A    between atoms: C_6  and  C_7
REMARK    3  A    between atoms: C_12  and  C_13
REMARK                            x       y       z     vdW  Elec       q    Type
REMARK                         _______ _______ _______ _____ _____    ______ ____
ROOT
ATOM      1  C   UNL     1       0.893  10.900  19.649  0.00  0.00    +0.000 C 
ATOM      2  O   UNL     1       1.541  11.761  19.052  0.00  0.00    +0.000 OA
ATOM      3  N   UNL     1       1.178   9.517  19.353  0.00  0.00    +0.000 N 
ATOM      4  C   UNL     1       1.970   9.321  18.106  0.00  0.00    +0.000 C 
ATOM      5  C   UNL     1       1.824   7.921  17.409  0.00  0.00    +0.000 C 
ATOM      6  C   UNL     1       2.041   6.854  18.426  0.00  0.00    +0.000 A 
ATOM      7  C   UNL     1       2.085   7.251  19.748  0.00  0.00    +0.000 A 
ATOM      8  N   UNL     1       3.299   6.715  20.156  0.00  0.00    +0.000 N 
ATOM      9  C   UNL     1       3.672   5.673  19.304  0.00  0.00    +0.000 A 
ATOM     10  C   UNL     1       4.803   4.837  19.259  0.00  0.00    +0.000 A 
ATOM     11  C   UNL     1       4.781   3.747  18.373  0.00  0.00    +0.000 A 
ATOM     12  C   UNL     1       3.680   3.514  17.554  0.00  0.00    +0.000 A 
ATOM     13  C   UNL     1       2.647   4.460  17.481  0.00  0.00    +0.000 A 
ATOM     14  C   UNL     1       2.665   5.581  18.341  0.00  0.00    +0.000 A 
ATOM     15  C   UNL     1       1.274   8.401  20.334  0.00  0.00    +0.000 C 
ATOM     16  H   UNL     1       3.879   7.062  20.906  0.00  0.00    +0.000 HD
ENDROOT
BRANCH   1  22
ATOM     17  C   UNL     1      -1.559  11.638  20.154  0.00  0.00    +0.000 A 
ATOM     18  C   UNL     1      -2.456  12.311  21.039  0.00  0.00    +0.000 A 
ATOM     19  C   UNL     1      -2.053  12.870  22.244  0.00  0.00    +0.000 A 
ATOM     20  C   UNL     1      -0.733  12.726  22.633  0.00  0.00    +0.000 A 
ATOM     21  C   UNL     1       0.185  12.011  21.832  0.00  0.00    +0.000 A 
ATOM     22  C   UNL     1      -0.186  11.452  20.581  0.00  0.00    +0.000 A 
BRANCH  17  28
ATOM     23  C   UNL     1      -5.219  11.989  16.688  0.00  0.00    +0.000 C 
ATOM     24  C   UNL     1      -3.917  11.388  17.122  0.00  0.00    +0.000 A 
ATOM     25  C   UNL     1      -3.228  10.501  16.289  0.00  0.00    +0.000 A 
ATOM     26  C   UNL     1      -2.046   9.929  16.732  0.00  0.00    +0.000 A 
ATOM     27  C   UNL     1      -1.559  10.246  18.006  0.00  0.00    +0.000 A 
ATOM     28  C   UNL     1      -2.198  11.184  18.865  0.00  0.00    +0.000 A 
ATOM     29  C   UNL     1      -3.386  11.738  18.381  0.00  0.00    +0.000 A 
ENDBRANCH  17  28
ENDBRANCH   1  22
TORSDOF 2
ENDMDL
