MODEL 1
REMARK VINA RESULT:      -7.0      0.000      0.000
REMARK  Name = 
REMARK  5 active torsions:
REMARK  status: ('A' for Active; 'I' for Inactive)
REMARK    1  A    between atoms: C_1  and  N_2
REMARK    2  A    between atoms: N_2  and  C_3
REMARK    3  A    between atoms: C_3  and  C_4
REMARK    4  A    between atoms: C_10  and  C_12
REMARK    5  A    between atoms: N_16  and  C_17
REMARK                            x       y       z     vdW  Elec       q    Type
REMARK                         _______ _______ _______ _____ _____    ______ ____
ROOT
ATOM      1  C   UNL     1       7.458   4.682  17.471  0.00  0.00    +0.000 C 
ATOM      2  N   UNL     1       6.057   4.466  17.151  0.00  0.00    +0.000 N 
ATOM      3  C   UNL     1       5.224   4.094  18.221  0.00  0.00    +0.000 C 
ATOM      4  O   UNL     1       5.625   4.160  19.383  0.00  0.00    +0.000 OA
ENDROOT
BRANCH   3   5
ATOM      5  C   UNL     1       3.882   3.662  17.935  0.00  0.00    +0.000 A 
ATOM      6  C   UNL     1       3.344   2.414  17.695  0.00  0.00    +0.000 A 
ATOM      7  N   UNL     1       1.996   2.510  17.503  0.00  0.00    +0.000 NA
ATOM      8  N   UNL     1       1.657   3.782  17.644  0.00  0.00    +0.000 NA
ATOM      9  N   UNL     1       2.777   4.472  17.930  0.00  0.00    +0.000 N 
ATOM     10  C   UNL     1       2.698   5.895  18.126  0.00  0.00    +0.000 C 
ENDBRANCH   3   5
BRANCH   2  11
ATOM     11  C   UNL     1       5.549   4.722  15.797  0.00  0.00    +0.000 C 
BRANCH  11  12
ATOM     12  C   UNL     1       6.304   4.177  14.564  0.00  0.00    +0.000 C 
ATOM     13  C   UNL     1       7.291   5.195  13.960  0.00  0.00    +0.000 C 
ATOM     14  C   UNL     1       7.711   4.875  12.556  0.00  0.00    +0.000 C 
ATOM     15  C   UNL     1       7.085   3.979  11.781  0.00  0.00    +0.000 C 
ATOM     16  C   UNL     1       5.873   3.220  12.221  0.00  0.00    +0.000 C 
ATOM     17  C   UNL     1       5.253   3.768  13.507  0.00  0.00    +0.000 C 
ENDBRANCH  11  12
ENDBRANCH   2  11
TORSDOF 3
ENDMDL
MODEL 2
REMARK VINA RESULT:      -6.8      2.721      5.613
REMARK  Name = 
REMARK  5 active torsions:
REMARK  status: ('A' for Active; 'I' for Inactive)
REMARK    1  A    between atoms: C_1  and  N_2
REMARK    2  A    between atoms: N_2  and  C_3
REMARK    3  A    between atoms: C_3  and  C_4
REMARK    4  A    between atoms: C_10  and  C_12
REMARK    5  A    between atoms: N_16  and  C_17
REMARK                            x       y       z     vdW  Elec       q    Type
REMARK                         _______ _______ _______ _____ _____    ______ ____
ROOT
ATOM      1  C   UNL     1       5.224   4.476  14.420  0.00  0.00    +0.000 C 
ATOM      2  N   UNL     1       5.582   4.892  15.765  0.00  0.00    +0.000 N 
ATOM      3  C   UNL     1       6.934   5.213  15.980  0.00  0.00    +0.000 C 
ATOM      4  O   UNL     1       7.710   5.335  15.031  0.00  0.00    +0.000 OA
ENDROOT
BRANCH   3   5
ATOM      5  C   UNL     1       7.390   5.426  17.327  0.00  0.00    +0.000 A 
ATOM      6  C   UNL     1       7.780   4.549  18.320  0.00  0.00    +0.000 A 
ATOM      7  N   UNL     1       8.164   5.239  19.433  0.00  0.00    +0.000 NA
ATOM      8  N   UNL     1       8.057   6.532  19.166  0.00  0.00    +0.000 NA
ATOM      9  N   UNL     1       7.621   6.649  17.898  0.00  0.00    +0.000 N 
ATOM     10  C   UNL     1       7.405   7.960  17.345  0.00  0.00    +0.000 C 
ENDBRANCH   3   5
BRANCH   2  11
ATOM     11  C   UNL     1       4.552   5.052  16.800  0.00  0.00    +0.000 C 
BRANCH  11  12
ATOM     12  C   UNL     1       3.664   3.855  17.210  0.00  0.00    +0.000 C 
ATOM     13  C   UNL     1       2.199   4.250  17.474  0.00  0.00    +0.000 C 
ATOM     14  C   UNL     1       1.429   3.236  18.265  0.00  0.00    +0.000 C 
ATOM     15  C   UNL     1       2.002   2.229  18.938  0.00  0.00    +0.000 C 
ATOM     16  C   UNL     1       3.483   2.025  19.001  0.00  0.00    +0.000 C 
ATOM     17  C   UNL     1       4.279   3.221  18.478  0.00  0.00    +0.000 C 
ENDBRANCH  11  12
ENDBRANCH   2  11
TORSDOF 3
ENDMDL
MODEL 3
REMARK VINA RESULT:      -6.8      0.581      1.423
REMARK  Name = 
REMARK  5 active torsions:
REMARK  status: ('A' for Active; 'I' for Inactive)
REMARK    1  A    between atoms: C_1  and  N_2
REMARK    2  A    between atoms: N_2  and  C_3
REMARK    3  A    between atoms: C_3  and  C_4
REMARK    4  A    between atoms: C_10  and  C_12
REMARK    5  A    between atoms: N_16  and  C_17
REMARK                            x       y       z     vdW  Elec       q    Type
REMARK                         _______ _______ _______ _____ _____    ______ ____
ROOT
ATOM      1  C   UNL     1       7.324   4.437  17.425  0.00  0.00    +0.000 C 
ATOM      2  N   UNL     1       5.897   4.384  17.155  0.00  0.00    +0.000 N 
ATOM      3  C   UNL     1       5.057   4.233  18.272  0.00  0.00    +0.000 C 
ATOM      4  O   UNL     1       5.501   4.355  19.415  0.00  0.00    +0.000 OA
ENDROOT
BRANCH   3   5
ATOM      5  C   UNL     1       3.661   3.963  18.057  0.00  0.00    +0.000 A 
ATOM      6  C   UNL     1       2.600   4.783  17.728  0.00  0.00    +0.000 A 
ATOM      7  N   UNL     1       1.457   4.048  17.602  0.00  0.00    +0.000 NA
ATOM      8  N   UNL     1       1.766   2.778  17.814  0.00  0.00    +0.000 NA
ATOM      9  N   UNL     1       3.089   2.718  18.059  0.00  0.00    +0.000 N 
ATOM     10  C   UNL     1       3.698   1.444  18.337  0.00  0.00    +0.000 C 
ENDBRANCH   3   5
BRANCH   2  11
ATOM     11  C   UNL     1       5.384   4.575  15.792  0.00  0.00    +0.000 C 
BRANCH  11  12
ATOM     12  C   UNL     1       6.207   4.100  14.574  0.00  0.00    +0.000 C 
ATOM     13  C   UNL     1       7.219   5.151  14.080  0.00  0.00    +0.000 C 
ATOM     14  C   UNL     1       7.715   4.909  12.685  0.00  0.00    +0.000 C 
ATOM     15  C   UNL     1       7.137   4.055  11.830  0.00  0.00    +0.000 C 
ATOM     16  C   UNL     1       5.907   3.270  12.163  0.00  0.00    +0.000 C 
ATOM     17  C   UNL     1       5.216   3.745  13.442  0.00  0.00    +0.000 C 
ENDBRANCH  11  12
ENDBRANCH   2  11
TORSDOF 3
ENDMDL
MODEL 4
REMARK VINA RESULT:      -6.6      2.924      6.118
REMARK  Name = 
REMARK  5 active torsions:
REMARK  status: ('A' for Active; 'I' for Inactive)
REMARK    1  A    between atoms: C_1  and  N_2
REMARK    2  A    between atoms: N_2  and  C_3
REMARK    3  A    between atoms: C_3  and  C_4
REMARK    4  A    between atoms: C_10  and  C_12
REMARK    5  A    between atoms: N_16  and  C_17
REMARK                            x       y       z     vdW  Elec       q    Type
REMARK                         _______ _______ _______ _____ _____    ______ ____
ROOT
ATOM      1  C   UNL     1       2.595   7.161  18.770  0.00  0.00    +0.000 C 
ATOM      2  N   UNL     1       3.712   6.287  18.455  0.00  0.00    +0.000 N 
ATOM      3  C   UNL     1       4.425   6.586  17.280  0.00  0.00    +0.000 C 
ATOM      4  O   UNL     1       4.239   7.647  16.684  0.00  0.00    +0.000 OA
ENDROOT
BRANCH   3   5
ATOM      5  C   UNL     1       5.400   5.642  16.803  0.00  0.00    +0.000 A 
ATOM      6  C   UNL     1       5.294   4.543  15.973  0.00  0.00    +0.000 A 
ATOM      7  N   UNL     1       6.521   3.975  15.785  0.00  0.00    +0.000 NA
ATOM      8  N   UNL     1       7.409   4.698  16.449  0.00  0.00    +0.000 NA
ATOM      9  N   UNL     1       6.748   5.714  17.037  0.00  0.00    +0.000 N 
ATOM     10  C   UNL     1       7.477   6.659  17.839  0.00  0.00    +0.000 C 
ENDBRANCH   3   5
BRANCH   2  11
ATOM     11  C   UNL     1       4.110   5.216  19.377  0.00  0.00    +0.000 C 
BRANCH  11  12
ATOM     12  C   UNL     1       3.216   3.970  19.561  0.00  0.00    +0.000 C 
ATOM     13  C   UNL     1       2.406   3.614  18.299  0.00  0.00    +0.000 C 
ATOM     14  C   UNL     1       1.242   2.705  18.560  0.00  0.00    +0.000 C 
ATOM     15  C   UNL     1       0.757   2.453  19.783  0.00  0.00    +0.000 C 
ATOM     16  C   UNL     1       1.303   3.083  21.026  0.00  0.00    +0.000 C 
ATOM     17  C   UNL     1       2.260   4.242  20.744  0.00  0.00    +0.000 C 
ENDBRANCH  11  12
ENDBRANCH   2  11
TORSDOF 3
ENDMDL
MODEL 5
REMARK VINA RESULT:      -6.5      2.702      5.488
REMARK  Name = 
REMARK  5 active torsions:
REMARK  status: ('A' for Active; 'I' for Inactive)
REMARK    1  A    between atoms: C_1  and  N_2
REMARK    2  A    between atoms: N_2  and  C_3
REMARK    3  A    between atoms: C_3  and  C_4
REMARK    4  A    between atoms: C_10  and  C_12
REMARK    5  A    between atoms: N_16  and  C_17
REMARK                            x       y       z     vdW  Elec       q    Type
REMARK                         _______ _______ _______ _____ _____    ______ ____
ROOT
ATOM      1  C   UNL     1       5.106   4.584  14.554  0.00  0.00    +0.000 C 
ATOM      2  N   UNL     1       5.505   5.058  15.869  0.00  0.00    +0.000 N 
ATOM      3  C   UNL     1       6.888   5.145  16.107  0.00  0.00    +0.000 C 
ATOM      4  O   UNL     1       7.694   5.028  15.183  0.00  0.00    +0.000 OA
ENDROOT
BRANCH   3   5
ATOM      5  C   UNL     1       7.345   5.402  17.446  0.00  0.00    +0.000 A 
ATOM      6  C   UNL     1       7.658   4.559  18.494  0.00  0.00    +0.000 A 
ATOM      7  N   UNL     1       8.082   5.283  19.571  0.00  0.00    +0.000 NA
ATOM      8  N   UNL     1       8.076   6.561  19.227  0.00  0.00    +0.000 NA
ATOM      9  N   UNL     1       7.663   6.636  17.948  0.00  0.00    +0.000 N 
ATOM     10  C   UNL     1       7.552   7.925  17.317  0.00  0.00    +0.000 C 
ENDBRANCH   3   5
BRANCH   2  11
ATOM     11  C   UNL     1       4.500   5.505  16.842  0.00  0.00    +0.000 C 
BRANCH  11  12
ATOM     12  C   UNL     1       3.802   4.485  17.769  0.00  0.00    +0.000 C 
ATOM     13  C   UNL     1       4.047   3.022  17.354  0.00  0.00    +0.000 C 
ATOM     14  C   UNL     1       3.071   2.050  17.947  0.00  0.00    +0.000 C 
ATOM     15  C   UNL     1       1.924   2.416  18.534  0.00  0.00    +0.000 C 
ATOM     16  C   UNL     1       1.472   3.839  18.633  0.00  0.00    +0.000 C 
ATOM     17  C   UNL     1       2.287   4.792  17.759  0.00  0.00    +0.000 C 
ENDBRANCH  11  12
ENDBRANCH   2  11
TORSDOF 3
ENDMDL
MODEL 6
REMARK VINA RESULT:      -6.5      3.028      4.397
REMARK  Name = 
REMARK  5 active torsions:
REMARK  status: ('A' for Active; 'I' for Inactive)
REMARK    1  A    between atoms: C_1  and  N_2
REMARK    2  A    between atoms: N_2  and  C_3
REMARK    3  A    between atoms: C_3  and  C_4
REMARK    4  A    between atoms: C_10  and  C_12
REMARK    5  A    between atoms: N_16  and  C_17
REMARK                            x       y       z     vdW  Elec       q    Type
REMARK                         _______ _______ _______ _____ _____    ______ ____
ROOT
ATOM      1  C   UNL     1       4.423   3.575  16.519  0.00  0.00    +0.000 C 
ATOM      2  N   UNL     1       3.896   3.718  17.866  0.00  0.00    +0.000 N 
ATOM      3  C   UNL     1       3.570   2.526  18.537  0.00  0.00    +0.000 C 
ATOM      4  O   UNL     1       3.914   1.434  18.084  0.00  0.00    +0.000 OA
ENDROOT
BRANCH   3   5
ATOM      5  C   UNL     1       2.851   2.606  19.781  0.00  0.00    +0.000 A 
ATOM      6  C   UNL     1       3.278   2.690  21.091  0.00  0.00    +0.000 A 
ATOM      7  N   UNL     1       2.206   2.777  21.932  0.00  0.00    +0.000 NA
ATOM      8  N   UNL     1       1.109   2.779  21.190  0.00  0.00    +0.000 NA
ATOM      9  N   UNL     1       1.490   2.705  19.901  0.00  0.00    +0.000 N 
ATOM     10  C   UNL     1       0.488   2.679  18.869  0.00  0.00    +0.000 C 
ENDBRANCH   3   5
BRANCH   2  11
ATOM     11  C   UNL     1       3.809   5.039  18.501  0.00  0.00    +0.000 C 
BRANCH  11  12
ATOM     12  C   UNL     1       5.067   5.925  18.638  0.00  0.00    +0.000 C 
ATOM     13  C   UNL     1       5.441   6.651  17.332  0.00  0.00    +0.000 C 
ATOM     14  C   UNL     1       6.851   7.162  17.303  0.00  0.00    +0.000 C 
ATOM     15  C   UNL     1       7.795   6.783  18.175  0.00  0.00    +0.000 C 
ATOM     16  C   UNL     1       7.554   5.779  19.258  0.00  0.00    +0.000 C 
ATOM     17  C   UNL     1       6.235   5.023  19.096  0.00  0.00    +0.000 C 
ENDBRANCH  11  12
ENDBRANCH   2  11
TORSDOF 3
ENDMDL
MODEL 7
REMARK VINA RESULT:      -6.5      2.499      6.184
REMARK  Name = 
REMARK  5 active torsions:
REMARK  status: ('A' for Active; 'I' for Inactive)
REMARK    1  A    between atoms: C_1  and  N_2
REMARK    2  A    between atoms: N_2  and  C_3
REMARK    3  A    between atoms: C_3  and  C_4
REMARK    4  A    between atoms: C_10  and  C_12
REMARK    5  A    between atoms: N_16  and  C_17
REMARK                            x       y       z     vdW  Elec       q    Type
REMARK                         _______ _______ _______ _____ _____    ______ ____
ROOT
ATOM      1  C   UNL     1       3.148   7.340  17.527  0.00  0.00    +0.000 C 
ATOM      2  N   UNL     1       4.161   6.300  17.598  0.00  0.00    +0.000 N 
ATOM      3  C   UNL     1       5.496   6.721  17.470  0.00  0.00    +0.000 C 
ATOM      4  O   UNL     1       5.785   7.918  17.511  0.00  0.00    +0.000 OA
ENDROOT
BRANCH   3   5
ATOM      5  C   UNL     1       6.525   5.726  17.320  0.00  0.00    +0.000 A 
ATOM      6  C   UNL     1       7.419   5.179  18.217  0.00  0.00    +0.000 A 
ATOM      7  N   UNL     1       8.188   4.234  17.601  0.00  0.00    +0.000 NA
ATOM      8  N   UNL     1       7.787   4.145  16.342  0.00  0.00    +0.000 NA
ATOM      9  N   UNL     1       6.774   5.015  16.175  0.00  0.00    +0.000 N 
ATOM     10  C   UNL     1       6.150   5.134  14.884  0.00  0.00    +0.000 C 
ENDBRANCH   3   5
BRANCH   2  11
ATOM     11  C   UNL     1       3.788   4.908  17.883  0.00  0.00    +0.000 C 
BRANCH  11  12
ATOM     12  C   UNL     1       2.541   4.593  18.738  0.00  0.00    +0.000 C 
ATOM     13  C   UNL     1       2.810   4.673  20.253  0.00  0.00    +0.000 C 
ATOM     14  C   UNL     1       1.779   3.976  21.091  0.00  0.00    +0.000 C 
ATOM     15  C   UNL     1       0.877   3.118  20.596  0.00  0.00    +0.000 C 
ATOM     16  C   UNL     1       0.821   2.732  19.151  0.00  0.00    +0.000 C 
ATOM     17  C   UNL     1       2.052   3.176  18.361  0.00  0.00    +0.000 C 
ENDBRANCH  11  12
ENDBRANCH   2  11
TORSDOF 3
ENDMDL
MODEL 8
REMARK VINA RESULT:      -6.4      2.629      6.152
REMARK  Name = 
REMARK  5 active torsions:
REMARK  status: ('A' for Active; 'I' for Inactive)
REMARK    1  A    between atoms: C_1  and  N_2
REMARK    2  A    between atoms: N_2  and  C_3
REMARK    3  A    between atoms: C_3  and  C_4
REMARK    4  A    between atoms: C_10  and  C_12
REMARK    5  A    between atoms: N_16  and  C_17
REMARK                            x       y       z     vdW  Elec       q    Type
REMARK                         _______ _______ _______ _____ _____    ______ ____
ROOT
ATOM      1  C   UNL     1       3.066   7.564  17.953  0.00  0.00    +0.000 C 
ATOM      2  N   UNL     1       3.895   6.455  17.511  0.00  0.00    +0.000 N 
ATOM      3  C   UNL     1       5.193   6.782  17.079  0.00  0.00    +0.000 C 
ATOM      4  O   UNL     1       5.656   7.907  17.270  0.00  0.00    +0.000 OA
ENDROOT
BRANCH   3   5
ATOM      5  C   UNL     1       5.984   5.767  16.434  0.00  0.00    +0.000 A 
ATOM      6  C   UNL     1       5.967   5.258  15.151  0.00  0.00    +0.000 A 
ATOM      7  N   UNL     1       6.945   4.317  15.005  0.00  0.00    +0.000 NA
ATOM      8  N   UNL     1       7.602   4.234  16.151  0.00  0.00    +0.000 NA
ATOM      9  N   UNL     1       7.049   5.119  17.002  0.00  0.00    +0.000 N 
ATOM     10  C   UNL     1       7.569   5.232  18.339  0.00  0.00    +0.000 C 
ENDBRANCH   3   5
BRANCH   2  11
ATOM     11  C   UNL     1       3.413   5.072  17.610  0.00  0.00    +0.000 C 
BRANCH  11  12
ATOM     12  C   UNL     1       2.372   4.682  18.684  0.00  0.00    +0.000 C 
ATOM     13  C   UNL     1       2.939   4.713  20.116  0.00  0.00    +0.000 C 
ATOM     14  C   UNL     1       2.117   3.951  21.112  0.00  0.00    +0.000 C 
ATOM     15  C   UNL     1       1.155   3.083  20.771  0.00  0.00    +0.000 C 
ATOM     16  C   UNL     1       0.819   2.750  19.351  0.00  0.00    +0.000 C 
ATOM     17  C   UNL     1       1.854   3.266  18.350  0.00  0.00    +0.000 C 
ENDBRANCH  11  12
ENDBRANCH   2  11
TORSDOF 3
ENDMDL
MODEL 9
REMARK VINA RESULT:      -6.4      2.536      5.962
REMARK  Name = 
REMARK  5 active torsions:
REMARK  status: ('A' for Active; 'I' for Inactive)
REMARK    1  A    between atoms: C_1  and  N_2
REMARK    2  A    between atoms: N_2  and  C_3
REMARK    3  A    between atoms: C_3  and  C_4
REMARK    4  A    between atoms: C_10  and  C_12
REMARK    5  A    between atoms: N_16  and  C_17
REMARK                            x       y       z     vdW  Elec       q    Type
REMARK                         _______ _______ _______ _____ _____    ______ ____
ROOT
ATOM      1  C   UNL     1       2.768   6.943  17.925  0.00  0.00    +0.000 C 
ATOM      2  N   UNL     1       4.003   6.243  18.239  0.00  0.00    +0.000 N 
ATOM      3  C   UNL     1       5.105   6.521  17.411  0.00  0.00    +0.000 C 
ATOM      4  O   UNL     1       5.071   7.458  16.612  0.00  0.00    +0.000 OA
ENDROOT
BRANCH   3   5
ATOM      5  C   UNL     1       6.286   5.710  17.535  0.00  0.00    +0.000 A 
ATOM      6  C   UNL     1       7.214   5.576  18.549  0.00  0.00    +0.000 A 
ATOM      7  N   UNL     1       8.153   4.647  18.209  0.00  0.00    +0.000 NA
ATOM      8  N   UNL     1       7.833   4.164  17.018  0.00  0.00    +0.000 NA
ATOM      9  N   UNL     1       6.701   4.776  16.622  0.00  0.00    +0.000 N 
ATOM     10  C   UNL     1       6.129   4.445  15.344  0.00  0.00    +0.000 C 
ENDBRANCH   3   5
BRANCH   2  11
ATOM     11  C   UNL     1       4.092   5.371  19.417  0.00  0.00    +0.000 C 
BRANCH  11  12
ATOM     12  C   UNL     1       3.307   4.041  19.466  0.00  0.00    +0.000 C 
ATOM     13  C   UNL     1       3.139   3.386  18.082  0.00  0.00    +0.000 C 
ATOM     14  C   UNL     1       2.052   2.354  18.027  0.00  0.00    +0.000 C 
ATOM     15  C   UNL     1       1.117   2.209  18.975  0.00  0.00    +0.000 C 
ATOM     16  C   UNL     1       1.034   3.088  20.184  0.00  0.00    +0.000 C 
ATOM     17  C   UNL     1       1.923   4.329  20.089  0.00  0.00    +0.000 C 
ENDBRANCH  11  12
ENDBRANCH   2  11
TORSDOF 3
ENDMDL
