MODEL 1
REMARK VINA RESULT:      -7.8      0.000      0.000
REMARK  Name = 
REMARK  6 active torsions:
REMARK  status: ('A' for Active; 'I' for Inactive)
REMARK    1  A    between atoms: C_1  and  C_2
REMARK    2  A    between atoms: C_2  and  C_3
REMARK    3  A    between atoms: C_2  and  C_4
REMARK    4  A    between atoms: N_11  and  C_12
REMARK    5  A    between atoms: C_12  and  C_13
REMARK    6  A    between atoms: C_15  and  C_16
REMARK                            x       y       z     vdW  Elec       q    Type
REMARK                         _______ _______ _______ _____ _____    ______ ____
ROOT
ATOM      1  C   UNL     1       6.368   4.194  14.878  0.00  0.00    +0.000 A 
ATOM      2  N   UNL     1       7.468   4.650  15.499  0.00  0.00    +0.000 NA
ATOM      3  C   UNL     1       7.340   4.931  16.811  0.00  0.00    +0.000 A 
ATOM      4  C   UNL     1       6.165   4.786  17.510  0.00  0.00    +0.000 A 
ATOM      5  C   UNL     1       5.088   4.311  16.792  0.00  0.00    +0.000 A 
ATOM      6  N   UNL     1       5.172   4.017  15.472  0.00  0.00    +0.000 NA
ATOM      7  C   UNL     1       3.713   4.195  17.429  0.00  0.00    +0.000 C 
ATOM      8  N   UNL     1       3.641   4.414  18.899  0.00  0.00    +0.000 NA
ATOM      9  C   UNL     1       4.609   5.433  19.346  0.00  0.00    +0.000 C 
ATOM     10  C   UNL     1       6.050   5.078  18.971  0.00  0.00    +0.000 C 
ENDROOT
BRANCH   1  12
ATOM     11  C   UNL     1       5.112   3.816  12.746  0.00  0.00    +0.000 C 
ATOM     12  C   UNL     1       6.491   3.862  13.406  0.00  0.00    +0.000 C 
ATOM     13  C   UNL     1       7.410   4.852  12.692  0.00  0.00    +0.000 C 
ENDBRANCH   1  12
BRANCH   8  14
ATOM     14  C   UNL     1       2.280   4.861  19.277  0.00  0.00    +0.000 C 
BRANCH  14  15
ATOM     15  C   UNL     1       2.132   6.312  19.594  0.00  0.00    +0.000 A 
ATOM     16  N   UNL     1       1.654   6.875  20.681  0.00  0.00    +0.000 NA
ATOM     17  C   UNL     1       1.497   8.184  20.284  0.00  0.00    +0.000 A 
ATOM     18  N   UNL     1       1.932   8.441  19.042  0.00  0.00    +0.000 NA
ATOM     19  O   UNL     1       2.353   7.194  18.578  0.00  0.00    +0.000 OA
BRANCH  17  20
ATOM     20  C   UNL     1       0.779   9.183  21.135  0.00  0.00    +0.000 A 
ATOM     21  C   UNL     1       0.478   8.975  22.467  0.00  0.00    +0.000 A 
ATOM     22  C   UNL     1      -0.309  10.032  23.012  0.00  0.00    +0.000 A 
ATOM     23  C   UNL     1      -0.570  11.012  22.079  0.00  0.00    +0.000 A 
ATOM     24  S   UNL     1       0.169  10.675  20.572  0.00  0.00    +0.000 S 
ENDBRANCH  17  20
ENDBRANCH  14  15
ENDBRANCH   8  14
TORSDOF 4
ENDMDL
MODEL 2
REMARK VINA RESULT:      -7.4      1.002      1.132
REMARK  Name = 
REMARK  6 active torsions:
REMARK  status: ('A' for Active; 'I' for Inactive)
REMARK    1  A    between atoms: C_1  and  C_2
REMARK    2  A    between atoms: C_2  and  C_3
REMARK    3  A    between atoms: C_2  and  C_4
REMARK    4  A    between atoms: N_11  and  C_12
REMARK    5  A    between atoms: C_12  and  C_13
REMARK    6  A    between atoms: C_15  and  C_16
REMARK                            x       y       z     vdW  Elec       q    Type
REMARK                         _______ _______ _______ _____ _____    ______ ____
ROOT
ATOM      1  C   UNL     1       6.483   4.244  14.972  0.00  0.00    +0.000 A 
ATOM      2  N   UNL     1       7.607   4.562  15.634  0.00  0.00    +0.000 NA
ATOM      3  C   UNL     1       7.472   4.831  16.948  0.00  0.00    +0.000 A 
ATOM      4  C   UNL     1       6.268   4.806  17.610  0.00  0.00    +0.000 A 
ATOM      5  C   UNL     1       5.166   4.469  16.852  0.00  0.00    +0.000 A 
ATOM      6  N   UNL     1       5.257   4.192  15.529  0.00  0.00    +0.000 NA
ATOM      7  C   UNL     1       3.769   4.497  17.447  0.00  0.00    +0.000 C 
ATOM      8  N   UNL     1       3.677   4.695  18.919  0.00  0.00    +0.000 NA
ATOM      9  C   UNL     1       4.739   5.591  19.416  0.00  0.00    +0.000 C 
ATOM     10  C   UNL     1       6.141   5.082  19.073  0.00  0.00    +0.000 C 
ENDROOT
BRANCH   1  12
ATOM     11  C   UNL     1       5.234   3.738  12.863  0.00  0.00    +0.000 C 
ATOM     12  C   UNL     1       6.612   3.928  13.497  0.00  0.00    +0.000 C 
ATOM     13  C   UNL     1       7.408   5.009  12.769  0.00  0.00    +0.000 C 
ENDBRANCH   1  12
BRANCH   8  14
ATOM     14  C   UNL     1       2.363   5.285  19.269  0.00  0.00    +0.000 C 
BRANCH  14  15
ATOM     15  C   UNL     1       2.239   6.760  19.083  0.00  0.00    +0.000 A 
ATOM     16  N   UNL     1       1.839   7.670  19.943  0.00  0.00    +0.000 NA
ATOM     17  C   UNL     1       1.655   8.771  19.137  0.00  0.00    +0.000 A 
ATOM     18  N   UNL     1       1.999   8.580  17.855  0.00  0.00    +0.000 NA
ATOM     19  O   UNL     1       2.386   7.240  17.816  0.00  0.00    +0.000 OA
BRANCH  17  20
ATOM     20  C   UNL     1       0.999  10.016  19.644  0.00  0.00    +0.000 A 
ATOM     21  C   UNL     1       0.038  10.023  20.636  0.00  0.00    +0.000 A 
ATOM     22  C   UNL     1      -0.504  11.325  20.850  0.00  0.00    +0.000 A 
ATOM     23  C   UNL     1       0.072  12.264  20.023  0.00  0.00    +0.000 A 
ATOM     24  S   UNL     1       1.286  11.582  19.027  0.00  0.00    +0.000 S 
ENDBRANCH  17  20
ENDBRANCH  14  15
ENDBRANCH   8  14
TORSDOF 4
ENDMDL
MODEL 3
REMARK VINA RESULT:      -7.4      3.809      5.980
REMARK  Name = 
REMARK  6 active torsions:
REMARK  status: ('A' for Active; 'I' for Inactive)
REMARK    1  A    between atoms: C_1  and  C_2
REMARK    2  A    between atoms: C_2  and  C_3
REMARK    3  A    between atoms: C_2  and  C_4
REMARK    4  A    between atoms: N_11  and  C_12
REMARK    5  A    between atoms: C_12  and  C_13
REMARK    6  A    between atoms: C_15  and  C_16
REMARK                            x       y       z     vdW  Elec       q    Type
REMARK                         _______ _______ _______ _____ _____    ______ ____
ROOT
ATOM      1  C   UNL     1       2.962   4.117  19.533  0.00  0.00    +0.000 A 
ATOM      2  N   UNL     1       3.518   4.192  18.313  0.00  0.00    +0.000 NA
ATOM      3  C   UNL     1       3.519   5.408  17.730  0.00  0.00    +0.000 A 
ATOM      4  C   UNL     1       2.981   6.531  18.312  0.00  0.00    +0.000 A 
ATOM      5  C   UNL     1       2.432   6.361  19.565  0.00  0.00    +0.000 A 
ATOM      6  N   UNL     1       2.408   5.156  20.187  0.00  0.00    +0.000 NA
ATOM      7  C   UNL     1       1.724   7.504  20.271  0.00  0.00    +0.000 C 
ATOM      8  N   UNL     1       1.840   8.848  19.642  0.00  0.00    +0.000 NA
ATOM      9  C   UNL     1       1.872   8.759  18.170  0.00  0.00    +0.000 C 
ATOM     10  C   UNL     1       3.014   7.876  17.661  0.00  0.00    +0.000 C 
ENDROOT
BRANCH   1  12
ATOM     11  C   UNL     1       4.376   2.195  20.290  0.00  0.00    +0.000 C 
ATOM     12  C   UNL     1       2.959   2.763  20.211  0.00  0.00    +0.000 C 
ATOM     13  C   UNL     1       2.321   2.843  21.597  0.00  0.00    +0.000 C 
ENDBRANCH   1  12
BRANCH   8  14
ATOM     14  C   UNL     1       0.689   9.693  20.037  0.00  0.00    +0.000 C 
BRANCH  14  15
ATOM     15  C   UNL     1       0.948  11.161  20.102  0.00  0.00    +0.000 A 
ATOM     16  N   UNL     1       1.018  12.031  19.119  0.00  0.00    +0.000 NA
ATOM     17  C   UNL     1       1.559  13.132  19.744  0.00  0.00    +0.000 A 
ATOM     18  N   UNL     1       1.742  12.984  21.064  0.00  0.00    +0.000 NA
ATOM     19  O   UNL     1       1.338  11.670  21.305  0.00  0.00    +0.000 OA
BRANCH  17  20
ATOM     20  C   UNL     1       2.020  14.327  18.971  0.00  0.00    +0.000 A 
ATOM     21  C   UNL     1       3.137  14.327  18.159  0.00  0.00    +0.000 A 
ATOM     22  C   UNL     1       3.417  15.623  17.630  0.00  0.00    +0.000 A 
ATOM     23  C   UNL     1       2.497  16.558  18.049  0.00  0.00    +0.000 A 
ATOM     24  S   UNL     1       1.283  15.866  19.037  0.00  0.00    +0.000 S 
ENDBRANCH  17  20
ENDBRANCH  14  15
ENDBRANCH   8  14
TORSDOF 4
ENDMDL
MODEL 4
REMARK VINA RESULT:      -7.3      1.824      2.277
REMARK  Name = 
REMARK  6 active torsions:
REMARK  status: ('A' for Active; 'I' for Inactive)
REMARK    1  A    between atoms: C_1  and  C_2
REMARK    2  A    between atoms: C_2  and  C_3
REMARK    3  A    between atoms: C_2  and  C_4
REMARK    4  A    between atoms: N_11  and  C_12
REMARK    5  A    between atoms: C_12  and  C_13
REMARK    6  A    between atoms: C_15  and  C_16
REMARK                            x       y       z     vdW  Elec       q    Type
REMARK                         _______ _______ _______ _____ _____    ______ ____
ROOT
ATOM      1  C   UNL     1       6.484   4.816  14.645  0.00  0.00    +0.000 A 
ATOM      2  N   UNL     1       7.436   5.601  15.175  0.00  0.00    +0.000 NA
ATOM      3  C   UNL     1       7.439   5.713  16.519  0.00  0.00    +0.000 A 
ATOM      4  C   UNL     1       6.530   5.086  17.337  0.00  0.00    +0.000 A 
ATOM      5  C   UNL     1       5.588   4.299  16.707  0.00  0.00    +0.000 A 
ATOM      6  N   UNL     1       5.548   4.160  15.359  0.00  0.00    +0.000 NA
ATOM      7  C   UNL     1       4.475   3.630  17.494  0.00  0.00    +0.000 C 
ATOM      8  N   UNL     1       4.578   3.693  18.977  0.00  0.00    +0.000 NA
ATOM      9  C   UNL     1       5.178   4.963  19.428  0.00  0.00    +0.000 C 
ATOM     10  C   UNL     1       6.565   5.201  18.826  0.00  0.00    +0.000 C 
ENDROOT
BRANCH   1  12
ATOM     11  C   UNL     1       7.805   5.099  12.539  0.00  0.00    +0.000 C 
ATOM     12  C   UNL     1       6.467   4.667  13.139  0.00  0.00    +0.000 C 
ATOM     13  C   UNL     1       6.116   3.237  12.730  0.00  0.00    +0.000 C 
ENDBRANCH   1  12
BRANCH   8  14
ATOM     14  C   UNL     1       3.231   3.568  19.583  0.00  0.00    +0.000 C 
BRANCH  14  15
ATOM     15  C   UNL     1       2.479   4.843  19.771  0.00  0.00    +0.000 A 
ATOM     16  N   UNL     1       2.317   5.838  18.927  0.00  0.00    +0.000 NA
ATOM     17  C   UNL     1       1.804   6.826  19.738  0.00  0.00    +0.000 A 
ATOM     18  N   UNL     1       1.581   6.441  21.003  0.00  0.00    +0.000 NA
ATOM     19  O   UNL     1       2.033   5.121  21.029  0.00  0.00    +0.000 OA
BRANCH  17  20
ATOM     20  C   UNL     1       1.645   8.233  19.258  0.00  0.00    +0.000 A 
ATOM     21  C   UNL     1       2.140   8.688  18.052  0.00  0.00    +0.000 A 
ATOM     22  C   UNL     1       1.951  10.094  17.889  0.00  0.00    +0.000 A 
ATOM     23  C   UNL     1       1.311  10.655  18.972  0.00  0.00    +0.000 A 
ATOM     24  S   UNL     1       0.903   9.484  20.152  0.00  0.00    +0.000 S 
ENDBRANCH  17  20
ENDBRANCH  14  15
ENDBRANCH   8  14
TORSDOF 4
ENDMDL
MODEL 5
REMARK VINA RESULT:      -7.3      3.317      4.378
REMARK  Name = 
REMARK  6 active torsions:
REMARK  status: ('A' for Active; 'I' for Inactive)
REMARK    1  A    between atoms: C_1  and  C_2
REMARK    2  A    between atoms: C_2  and  C_3
REMARK    3  A    between atoms: C_2  and  C_4
REMARK    4  A    between atoms: N_11  and  C_12
REMARK    5  A    between atoms: C_12  and  C_13
REMARK    6  A    between atoms: C_15  and  C_16
REMARK                            x       y       z     vdW  Elec       q    Type
REMARK                         _______ _______ _______ _____ _____    ______ ____
ROOT
ATOM      1  C   UNL     1       5.056   4.555  17.067  0.00  0.00    +0.000 A 
ATOM      2  N   UNL     1       4.742   3.754  18.098  0.00  0.00    +0.000 NA
ATOM      3  C   UNL     1       3.823   4.226  18.964  0.00  0.00    +0.000 A 
ATOM      4  C   UNL     1       3.226   5.459  18.844  0.00  0.00    +0.000 A 
ATOM      5  C   UNL     1       3.609   6.214  17.755  0.00  0.00    +0.000 A 
ATOM      6  N   UNL     1       4.530   5.778  16.860  0.00  0.00    +0.000 NA
ATOM      7  C   UNL     1       3.091   7.629  17.563  0.00  0.00    +0.000 C 
ATOM      8  N   UNL     1       2.005   8.069  18.479  0.00  0.00    +0.000 NA
ATOM      9  C   UNL     1       2.157   7.485  19.825  0.00  0.00    +0.000 C 
ATOM     10  C   UNL     1       2.191   5.955  19.799  0.00  0.00    +0.000 C 
ENDROOT
BRANCH   1  12
ATOM     11  C   UNL     1       5.599   4.265  14.641  0.00  0.00    +0.000 C 
ATOM     12  C   UNL     1       6.078   4.040  16.076  0.00  0.00    +0.000 C 
ATOM     13  C   UNL     1       7.444   4.686  16.307  0.00  0.00    +0.000 C 
ENDBRANCH   1  12
BRANCH   8  14
ATOM     14  C   UNL     1       2.015   9.546  18.603  0.00  0.00    +0.000 C 
BRANCH  14  15
ATOM     15  C   UNL     1       0.680  10.199  18.737  0.00  0.00    +0.000 A 
ATOM     16  N   UNL     1      -0.442   9.919  18.113  0.00  0.00    +0.000 NA
ATOM     17  C   UNL     1      -1.223  11.012  18.416  0.00  0.00    +0.000 A 
ATOM     18  N   UNL     1      -0.647  11.888  19.252  0.00  0.00    +0.000 NA
ATOM     19  O   UNL     1       0.623  11.350  19.465  0.00  0.00    +0.000 OA
BRANCH  17  20
ATOM     20  C   UNL     1      -2.543  11.243  17.750  0.00  0.00    +0.000 A 
ATOM     21  C   UNL     1      -3.661  11.707  18.414  0.00  0.00    +0.000 A 
ATOM     22  C   UNL     1      -4.814  11.729  17.574  0.00  0.00    +0.000 A 
ATOM     23  C   UNL     1      -4.529  11.292  16.299  0.00  0.00    +0.000 A 
ATOM     24  S   UNL     1      -2.873  10.901  16.110  0.00  0.00    +0.000 S 
ENDBRANCH  17  20
ENDBRANCH  14  15
ENDBRANCH   8  14
TORSDOF 4
ENDMDL
MODEL 6
REMARK VINA RESULT:      -7.2      1.749      2.090
REMARK  Name = 
REMARK  6 active torsions:
REMARK  status: ('A' for Active; 'I' for Inactive)
REMARK    1  A    between atoms: C_1  and  C_2
REMARK    2  A    between atoms: C_2  and  C_3
REMARK    3  A    between atoms: C_2  and  C_4
REMARK    4  A    between atoms: N_11  and  C_12
REMARK    5  A    between atoms: C_12  and  C_13
REMARK    6  A    between atoms: C_15  and  C_16
REMARK                            x       y       z     vdW  Elec       q    Type
REMARK                         _______ _______ _______ _____ _____    ______ ____
ROOT
ATOM      1  C   UNL     1       6.604   4.251  14.388  0.00  0.00    +0.000 A 
ATOM      2  N   UNL     1       7.429   5.251  14.738  0.00  0.00    +0.000 NA
ATOM      3  C   UNL     1       7.412   5.613  16.037  0.00  0.00    +0.000 A 
ATOM      4  C   UNL     1       6.603   5.027  16.980  0.00  0.00    +0.000 A 
ATOM      5  C   UNL     1       5.788   4.008  16.531  0.00  0.00    +0.000 A 
ATOM      6  N   UNL     1       5.773   3.613  15.235  0.00  0.00    +0.000 NA
ATOM      7  C   UNL     1       4.783   3.344  17.456  0.00  0.00    +0.000 C 
ATOM      8  N   UNL     1       4.871   3.700  18.899  0.00  0.00    +0.000 NA
ATOM      9  C   UNL     1       5.277   5.105  19.090  0.00  0.00    +0.000 C 
ATOM     10  C   UNL     1       6.617   5.424  18.420  0.00  0.00    +0.000 C 
ENDROOT
BRANCH   1  12
ATOM     11  C   UNL     1       5.187   3.623  12.423  0.00  0.00    +0.000 C 
ATOM     12  C   UNL     1       6.613   3.821  12.936  0.00  0.00    +0.000 C 
ATOM     13  C   UNL     1       7.377   4.821  12.070  0.00  0.00    +0.000 C 
ENDBRANCH   1  12
BRANCH   8  14
ATOM     14  C   UNL     1       3.556   3.498  19.551  0.00  0.00    +0.000 C 
BRANCH  14  15
ATOM     15  C   UNL     1       2.734   4.726  19.759  0.00  0.00    +0.000 A 
ATOM     16  N   UNL     1       2.576   5.758  18.960  0.00  0.00    +0.000 NA
ATOM     17  C   UNL     1       1.970   6.676  19.789  0.00  0.00    +0.000 A 
ATOM     18  N   UNL     1       1.691   6.212  21.016  0.00  0.00    +0.000 NA
ATOM     19  O   UNL     1       2.202   4.914  20.999  0.00  0.00    +0.000 OA
BRANCH  17  20
ATOM     20  C   UNL     1       1.774   8.100  19.374  0.00  0.00    +0.000 A 
ATOM     21  C   UNL     1       1.149   9.045  20.162  0.00  0.00    +0.000 A 
ATOM     22  C   UNL     1       0.991  10.291  19.485  0.00  0.00    +0.000 A 
ATOM     23  C   UNL     1       1.511  10.252  18.210  0.00  0.00    +0.000 A 
ATOM     24  S   UNL     1       2.222   8.736  17.854  0.00  0.00    +0.000 S 
ENDBRANCH  17  20
ENDBRANCH  14  15
ENDBRANCH   8  14
TORSDOF 4
ENDMDL
MODEL 7
REMARK VINA RESULT:      -7.1      2.945      4.435
REMARK  Name = 
REMARK  6 active torsions:
REMARK  status: ('A' for Active; 'I' for Inactive)
REMARK    1  A    between atoms: C_1  and  C_2
REMARK    2  A    between atoms: C_2  and  C_3
REMARK    3  A    between atoms: C_2  and  C_4
REMARK    4  A    between atoms: N_11  and  C_12
REMARK    5  A    between atoms: C_12  and  C_13
REMARK    6  A    between atoms: C_15  and  C_16
REMARK                            x       y       z     vdW  Elec       q    Type
REMARK                         _______ _______ _______ _____ _____    ______ ____
ROOT
ATOM      1  C   UNL     1       4.881   4.991  17.610  0.00  0.00    +0.000 A 
ATOM      2  N   UNL     1       4.670   4.273  18.724  0.00  0.00    +0.000 NA
ATOM      3  C   UNL     1       3.736   4.747  19.573  0.00  0.00    +0.000 A 
ATOM      4  C   UNL     1       3.027   5.904  19.356  0.00  0.00    +0.000 A 
ATOM      5  C   UNL     1       3.309   6.577  18.186  0.00  0.00    +0.000 A 
ATOM      6  N   UNL     1       4.240   6.137  17.305  0.00  0.00    +0.000 NA
ATOM      7  C   UNL     1       2.660   7.915  17.877  0.00  0.00    +0.000 C 
ATOM      8  N   UNL     1       1.564   8.348  18.786  0.00  0.00    +0.000 NA
ATOM      9  C   UNL     1       1.806   7.916  20.176  0.00  0.00    +0.000 C 
ATOM     10  C   UNL     1       1.978   6.400  20.297  0.00  0.00    +0.000 C 
ENDROOT
BRANCH   1  12
ATOM     11  C   UNL     1       5.750   5.131  15.267  0.00  0.00    +0.000 C 
ATOM     12  C   UNL     1       5.918   4.473  16.636  0.00  0.00    +0.000 C 
ATOM     13  C   UNL     1       7.333   4.679  17.176  0.00  0.00    +0.000 C 
ENDBRANCH   1  12
BRANCH   8  14
ATOM     14  C   UNL     1       1.443   9.824  18.766  0.00  0.00    +0.000 C 
BRANCH  14  15
ATOM     15  C   UNL     1       0.084  10.365  18.468  0.00  0.00    +0.000 A 
ATOM     16  N   UNL     1      -0.588  11.302  19.098  0.00  0.00    +0.000 NA
ATOM     17  C   UNL     1      -1.850  11.161  18.567  0.00  0.00    +0.000 A 
ATOM     18  N   UNL     1      -1.942  10.239  17.598  0.00  0.00    +0.000 NA
ATOM     19  O   UNL     1      -0.654   9.705  17.532  0.00  0.00    +0.000 OA
BRANCH  17  20
ATOM     20  C   UNL     1      -3.028  11.890  19.134  0.00  0.00    +0.000 A 
ATOM     21  C   UNL     1      -2.972  12.652  20.283  0.00  0.00    +0.000 A 
ATOM     22  C   UNL     1      -4.256  13.143  20.666  0.00  0.00    +0.000 A 
ATOM     23  C   UNL     1      -5.240  12.745  19.788  0.00  0.00    +0.000 A 
ATOM     24  S   UNL     1      -4.608  11.824  18.491  0.00  0.00    +0.000 S 
ENDBRANCH  17  20
ENDBRANCH  14  15
ENDBRANCH   8  14
TORSDOF 4
ENDMDL
MODEL 8
REMARK VINA RESULT:      -7.1      2.972      9.041
REMARK  Name = 
REMARK  6 active torsions:
REMARK  status: ('A' for Active; 'I' for Inactive)
REMARK    1  A    between atoms: C_1  and  C_2
REMARK    2  A    between atoms: C_2  and  C_3
REMARK    3  A    between atoms: C_2  and  C_4
REMARK    4  A    between atoms: N_11  and  C_12
REMARK    5  A    between atoms: C_12  and  C_13
REMARK    6  A    between atoms: C_15  and  C_16
REMARK                            x       y       z     vdW  Elec       q    Type
REMARK                         _______ _______ _______ _____ _____    ______ ____
ROOT
ATOM      1  C   UNL     1       0.414   9.196  21.251  0.00  0.00    +0.000 A 
ATOM      2  N   UNL     1       0.362  10.167  20.325  0.00  0.00    +0.000 NA
ATOM      3  C   UNL     1       1.007   9.923  19.166  0.00  0.00    +0.000 A 
ATOM      4  C   UNL     1       1.702   8.766  18.911  0.00  0.00    +0.000 A 
ATOM      5  C   UNL     1       1.701   7.823  19.918  0.00  0.00    +0.000 A 
ATOM      6  N   UNL     1       1.067   8.028  21.099  0.00  0.00    +0.000 NA
ATOM      7  C   UNL     1       2.510   6.544  19.793  0.00  0.00    +0.000 C 
ATOM      8  N   UNL     1       3.118   6.269  18.463  0.00  0.00    +0.000 NA
ATOM      9  C   UNL     1       3.541   7.511  17.790  0.00  0.00    +0.000 C 
ATOM     10  C   UNL     1       2.389   8.503  17.610  0.00  0.00    +0.000 C 
ENDROOT
BRANCH   1  12
ATOM     11  C   UNL     1       0.640   9.284  23.742  0.00  0.00    +0.000 C 
ATOM     12  C   UNL     1      -0.312   9.443  22.557  0.00  0.00    +0.000 C 
ATOM     13  C   UNL     1      -0.977  10.819  22.566  0.00  0.00    +0.000 C 
ENDBRANCH   1  12
BRANCH   8  14
ATOM     14  C   UNL     1       4.302   5.392  18.619  0.00  0.00    +0.000 C 
BRANCH  14  15
ATOM     15  C   UNL     1       5.257   5.373  17.472  0.00  0.00    +0.000 A 
ATOM     16  N   UNL     1       5.002   5.248  16.188  0.00  0.00    +0.000 NA
ATOM     17  C   UNL     1       6.253   5.006  15.667  0.00  0.00    +0.000 A 
ATOM     18  N   UNL     1       7.246   5.060  16.567  0.00  0.00    +0.000 NA
ATOM     19  O   UNL     1       6.584   5.301  17.771  0.00  0.00    +0.000 OA
BRANCH  17  20
ATOM     20  C   UNL     1       6.444   4.591  14.242  0.00  0.00    +0.000 A 
ATOM     21  C   UNL     1       5.629   3.684  13.596  0.00  0.00    +0.000 A 
ATOM     22  C   UNL     1       6.098   3.379  12.283  0.00  0.00    +0.000 A 
ATOM     23  C   UNL     1       7.247   4.073  11.974  0.00  0.00    +0.000 A 
ATOM     24  S   UNL     1       7.727   5.116  13.244  0.00  0.00    +0.000 S 
ENDBRANCH  17  20
ENDBRANCH  14  15
ENDBRANCH   8  14
TORSDOF 4
ENDMDL
MODEL 9
REMARK VINA RESULT:      -7.1      2.357      3.640
REMARK  Name = 
REMARK  6 active torsions:
REMARK  status: ('A' for Active; 'I' for Inactive)
REMARK    1  A    between atoms: C_1  and  C_2
REMARK    2  A    between atoms: C_2  and  C_3
REMARK    3  A    between atoms: C_2  and  C_4
REMARK    4  A    between atoms: N_11  and  C_12
REMARK    5  A    between atoms: C_12  and  C_13
REMARK    6  A    between atoms: C_15  and  C_16
REMARK                            x       y       z     vdW  Elec       q    Type
REMARK                         _______ _______ _______ _____ _____    ______ ____
ROOT
ATOM      1  C   UNL     1       4.732   4.060  16.976  0.00  0.00    +0.000 A 
ATOM      2  N   UNL     1       4.046   2.907  17.025  0.00  0.00    +0.000 NA
ATOM      3  C   UNL     1       2.962   2.890  17.826  0.00  0.00    +0.000 A 
ATOM      4  C   UNL     1       2.553   3.966  18.577  0.00  0.00    +0.000 A 
ATOM      5  C   UNL     1       3.316   5.109  18.464  0.00  0.00    +0.000 A 
ATOM      6  N   UNL     1       4.415   5.170  17.672  0.00  0.00    +0.000 NA
ATOM      7  C   UNL     1       3.021   6.334  19.312  0.00  0.00    +0.000 C 
ATOM      8  N   UNL     1       1.759   6.309  20.100  0.00  0.00    +0.000 NA
ATOM      9  C   UNL     1       1.444   4.950  20.580  0.00  0.00    +0.000 C 
ATOM     10  C   UNL     1       1.333   3.936  19.438  0.00  0.00    +0.000 C 
ENDROOT
BRANCH   1  12
ATOM     11  C   UNL     1       5.682   4.986  14.853  0.00  0.00    +0.000 C 
ATOM     12  C   UNL     1       5.948   4.106  16.075  0.00  0.00    +0.000 C 
ATOM     13  C   UNL     1       7.182   4.584  16.839  0.00  0.00    +0.000 C 
ENDBRANCH   1  12
BRANCH   8  14
ATOM     14  C   UNL     1       1.877   7.206  21.273  0.00  0.00    +0.000 C 
BRANCH  14  15
ATOM     15  C   UNL     1       1.220   8.540  21.144  0.00  0.00    +0.000 A 
ATOM     16  N   UNL     1       0.994   9.246  20.059  0.00  0.00    +0.000 NA
ATOM     17  C   UNL     1       0.646  10.473  20.579  0.00  0.00    +0.000 A 
ATOM     18  N   UNL     1       0.579  10.506  21.918  0.00  0.00    +0.000 NA
ATOM     19  O   UNL     1       0.964   9.220  22.297  0.00  0.00    +0.000 OA
BRANCH  17  20
ATOM     20  C   UNL     1       0.492  11.680  19.709  0.00  0.00    +0.000 A 
ATOM     21  C   UNL     1       1.558  12.386  19.188  0.00  0.00    +0.000 A 
ATOM     22  C   UNL     1       1.137  13.558  18.490  0.00  0.00    +0.000 A 
ATOM     23  C   UNL     1      -0.234  13.695  18.496  0.00  0.00    +0.000 A 
ATOM     24  S   UNL     1      -1.004  12.395  19.300  0.00  0.00    +0.000 S 
ENDBRANCH  17  20
ENDBRANCH  14  15
ENDBRANCH   8  14
TORSDOF 4
ENDMDL
