MODEL 1
REMARK VINA RESULT:      -6.1      0.000      0.000
REMARK  Name = 
REMARK  6 active torsions:
REMARK  status: ('A' for Active; 'I' for Inactive)
REMARK    1  A    between atoms: C_1  and  C_2
REMARK    2  A    between atoms: C_2  and  C_3
REMARK    3  A    between atoms: C_3  and  N_4
REMARK    4  A    between atoms: C_7  and  S_8
REMARK    5  A    between atoms: N_9  and  C_10
REMARK    6  A    between atoms: C_10  and  C_11
REMARK                            x       y       z     vdW  Elec       q    Type
REMARK                         _______ _______ _______ _____ _____    ______ ____
ROOT
ATOM      1  N   UNL     1       5.602   4.196  16.639  0.00  0.00    +0.000 NA
ATOM      2  C   UNL     1       6.062   5.301  17.404  0.00  0.00    +0.000 C 
ATOM      3  N   UNL     1       5.027   6.175  17.888  0.00  0.00    +0.000 NA
ATOM      4  C   UNL     1       3.845   5.714  17.984  0.00  0.00    +0.000 C 
ATOM      5  N   UNL     1       3.456   4.399  17.661  0.00  0.00    +0.000 N 
ATOM      6  C   UNL     1       4.422   3.500  17.030  0.00  0.00    +0.000 C 
ENDROOT
BRANCH   4   7
ATOM      7  S   UNL     1       2.662   6.831  18.605  0.00  0.00    +0.000 S 
ATOM      8  H   UNL     1       1.700   5.902  18.708  0.00  0.00    +0.000 HD
ENDBRANCH   4   7
BRANCH   1   9
ATOM      9  C   UNL     1       6.247   3.829  15.394  0.00  0.00    +0.000 C 
BRANCH   9  11
ATOM     10  C   UNL     1       6.086   3.567  12.846  0.00  0.00    +0.000 C 
ATOM     11  C   UNL     1       5.582   4.293  14.085  0.00  0.00    +0.000 C 
ENDBRANCH   9  11
ENDBRANCH   1   9
BRANCH   5  12
ATOM     12  C   UNL     1       2.043   3.907  17.735  0.00  0.00    +0.000 C 
BRANCH  12  13
ATOM     13  C   UNL     1       1.750   3.071  18.990  0.00  0.00    +0.000 C 
ATOM     14  C   UNL     1       0.893   3.733  20.054  0.00  0.00    +0.000 C 
ATOM     15  C   UNL     1       1.328   3.022  21.314  0.00  0.00    +0.000 C 
ATOM     16  C   UNL     1       2.785   2.712  21.052  0.00  0.00    +0.000 C 
ATOM     17  O   UNL     1       2.972   2.663  19.630  0.00  0.00    +0.000 OA
ENDBRANCH  12  13
ENDBRANCH   5  12
TORSDOF 5
ENDMDL
MODEL 2
REMARK VINA RESULT:      -6.1      1.883      2.788
REMARK  Name = 
REMARK  6 active torsions:
REMARK  status: ('A' for Active; 'I' for Inactive)
REMARK    1  A    between atoms: C_1  and  C_2
REMARK    2  A    between atoms: C_2  and  C_3
REMARK    3  A    between atoms: C_3  and  N_4
REMARK    4  A    between atoms: C_7  and  S_8
REMARK    5  A    between atoms: N_9  and  C_10
REMARK    6  A    between atoms: C_10  and  C_11
REMARK                            x       y       z     vdW  Elec       q    Type
REMARK                         _______ _______ _______ _____ _____    ______ ____
ROOT
ATOM      1  N   UNL     1       6.196   4.054  14.438  0.00  0.00    +0.000 NA
ATOM      2  C   UNL     1       7.411   4.789  14.418  0.00  0.00    +0.000 C 
ATOM      3  N   UNL     1       7.526   5.796  15.439  0.00  0.00    +0.000 NA
ATOM      4  C   UNL     1       6.805   5.684  16.480  0.00  0.00    +0.000 C 
ATOM      5  N   UNL     1       5.895   4.638  16.732  0.00  0.00    +0.000 N 
ATOM      6  C   UNL     1       5.622   3.658  15.680  0.00  0.00    +0.000 C 
ENDROOT
BRANCH   4   7
ATOM      7  S   UNL     1       7.029   6.931  17.676  0.00  0.00    +0.000 S 
ATOM      8  H   UNL     1       6.477   6.214  18.665  0.00  0.00    +0.000 HD
ENDBRANCH   4   7
BRANCH   1   9
ATOM      9  C   UNL     1       5.459   3.796  13.217  0.00  0.00    +0.000 C 
BRANCH   9  11
ATOM     10  C   UNL     1       5.721   1.953  11.451  0.00  0.00    +0.000 C 
ATOM     11  C   UNL     1       6.250   3.267  12.007  0.00  0.00    +0.000 C 
ENDBRANCH   9  11
ENDBRANCH   1   9
BRANCH   5  12
ATOM     12  C   UNL     1       5.022   4.567  17.947  0.00  0.00    +0.000 C 
BRANCH  12  13
ATOM     13  C   UNL     1       3.690   3.841  17.703  0.00  0.00    +0.000 C 
ATOM     14  C   UNL     1       2.429   4.648  17.956  0.00  0.00    +0.000 C 
ATOM     15  C   UNL     1       1.415   3.576  18.282  0.00  0.00    +0.000 C 
ATOM     16  C   UNL     1       2.244   2.511  18.964  0.00  0.00    +0.000 C 
ATOM     17  O   UNL     1       3.598   2.655  18.512  0.00  0.00    +0.000 OA
ENDBRANCH  12  13
ENDBRANCH   5  12
TORSDOF 5
ENDMDL
MODEL 3
REMARK VINA RESULT:      -6.0      2.600      6.070
REMARK  Name = 
REMARK  6 active torsions:
REMARK  status: ('A' for Active; 'I' for Inactive)
REMARK    1  A    between atoms: C_1  and  C_2
REMARK    2  A    between atoms: C_2  and  C_3
REMARK    3  A    between atoms: C_3  and  N_4
REMARK    4  A    between atoms: C_7  and  S_8
REMARK    5  A    between atoms: N_9  and  C_10
REMARK    6  A    between atoms: C_10  and  C_11
REMARK                            x       y       z     vdW  Elec       q    Type
REMARK                         _______ _______ _______ _____ _____    ______ ____
ROOT
ATOM      1  N   UNL     1       3.879   3.813  18.265  0.00  0.00    +0.000 NA
ATOM      2  C   UNL     1       3.928   4.903  19.174  0.00  0.00    +0.000 C 
ATOM      3  N   UNL     1       5.238   5.458  19.384  0.00  0.00    +0.000 NA
ATOM      4  C   UNL     1       6.125   5.262  18.493  0.00  0.00    +0.000 C 
ATOM      5  N   UNL     1       5.932   4.547  17.296  0.00  0.00    +0.000 N 
ATOM      6  C   UNL     1       4.671   3.836  17.081  0.00  0.00    +0.000 C 
ENDROOT
BRANCH   4   7
ATOM      7  S   UNL     1       7.673   5.994  18.815  0.00  0.00    +0.000 S 
ATOM      8  H   UNL     1       7.406   7.097  18.101  0.00  0.00    +0.000 HD
ENDBRANCH   4   7
BRANCH   1   9
ATOM      9  C   UNL     1       3.123   2.615  18.574  0.00  0.00    +0.000 C 
BRANCH   9  11
ATOM     10  C   UNL     1       0.844   2.960  19.701  0.00  0.00    +0.000 C 
ATOM     11  C   UNL     1       1.594   2.677  18.408  0.00  0.00    +0.000 C 
ENDBRANCH   9  11
ENDBRANCH   1   9
BRANCH   5  12
ATOM     12  C   UNL     1       7.016   4.290  16.294  0.00  0.00    +0.000 C 
BRANCH  12  13
ATOM     13  C   UNL     1       6.667   4.771  14.877  0.00  0.00    +0.000 C 
ATOM     14  C   UNL     1       6.255   3.698  13.885  0.00  0.00    +0.000 C 
ATOM     15  C   UNL     1       6.627   4.318  12.559  0.00  0.00    +0.000 C 
ATOM     16  C   UNL     1       7.841   5.156  12.895  0.00  0.00    +0.000 C 
ATOM     17  O   UNL     1       7.773   5.481  14.291  0.00  0.00    +0.000 OA
ENDBRANCH  12  13
ENDBRANCH   5  12
TORSDOF 5
ENDMDL
MODEL 4
REMARK VINA RESULT:      -6.0      1.720      2.225
REMARK  Name = 
REMARK  6 active torsions:
REMARK  status: ('A' for Active; 'I' for Inactive)
REMARK    1  A    between atoms: C_1  and  C_2
REMARK    2  A    between atoms: C_2  and  C_3
REMARK    3  A    between atoms: C_3  and  N_4
REMARK    4  A    between atoms: C_7  and  S_8
REMARK    5  A    between atoms: N_9  and  C_10
REMARK    6  A    between atoms: C_10  and  C_11
REMARK                            x       y       z     vdW  Elec       q    Type
REMARK                         _______ _______ _______ _____ _____    ______ ____
ROOT
ATOM      1  N   UNL     1       5.807   4.109  15.664  0.00  0.00    +0.000 NA
ATOM      2  C   UNL     1       7.212   4.065  15.871  0.00  0.00    +0.000 C 
ATOM      3  N   UNL     1       7.671   4.745  17.052  0.00  0.00    +0.000 NA
ATOM      4  C   UNL     1       6.841   4.942  17.995  0.00  0.00    +0.000 C 
ATOM      5  N   UNL     1       5.491   4.539  17.989  0.00  0.00    +0.000 N 
ATOM      6  C   UNL     1       4.919   3.970  16.769  0.00  0.00    +0.000 C 
ENDROOT
BRANCH   4   7
ATOM      7  S   UNL     1       7.489   5.747  19.398  0.00  0.00    +0.000 S 
ATOM      8  H   UNL     1       6.781   5.010  20.265  0.00  0.00    +0.000 HD
ENDBRANCH   4   7
BRANCH   1   9
ATOM      9  C   UNL     1       5.254   4.411  14.358  0.00  0.00    +0.000 C 
BRANCH   9  11
ATOM     10  C   UNL     1       4.916   3.404  12.023  0.00  0.00    +0.000 C 
ATOM     11  C   UNL     1       5.898   3.730  13.138  0.00  0.00    +0.000 C 
ENDBRANCH   9  11
ENDBRANCH   1   9
BRANCH   5  12
ATOM     12  C   UNL     1       4.527   4.836  19.096  0.00  0.00    +0.000 C 
BRANCH  12  13
ATOM     13  C   UNL     1       3.263   3.965  19.059  0.00  0.00    +0.000 C 
ATOM     14  C   UNL     1       1.948   4.676  19.330  0.00  0.00    +0.000 C 
ATOM     15  C   UNL     1       1.080   3.563  19.868  0.00  0.00    +0.000 C 
ATOM     16  C   UNL     1       2.065   2.672  20.591  0.00  0.00    +0.000 C 
ATOM     17  O   UNL     1       3.358   2.885  20.006  0.00  0.00    +0.000 OA
ENDBRANCH  12  13
ENDBRANCH   5  12
TORSDOF 5
ENDMDL
MODEL 5
REMARK VINA RESULT:      -5.9      2.537      5.556
REMARK  Name = 
REMARK  6 active torsions:
REMARK  status: ('A' for Active; 'I' for Inactive)
REMARK    1  A    between atoms: C_1  and  C_2
REMARK    2  A    between atoms: C_2  and  C_3
REMARK    3  A    between atoms: C_3  and  N_4
REMARK    4  A    between atoms: C_7  and  S_8
REMARK    5  A    between atoms: N_9  and  C_10
REMARK    6  A    between atoms: C_10  and  C_11
REMARK                            x       y       z     vdW  Elec       q    Type
REMARK                         _______ _______ _______ _____ _____    ______ ____
ROOT
ATOM      1  N   UNL     1       3.370   3.555  18.605  0.00  0.00    +0.000 NA
ATOM      2  C   UNL     1       4.298   3.319  19.654  0.00  0.00    +0.000 C 
ATOM      3  N   UNL     1       5.633   3.789  19.397  0.00  0.00    +0.000 NA
ATOM      4  C   UNL     1       5.794   4.702  18.526  0.00  0.00    +0.000 C 
ATOM      5  N   UNL     1       4.762   5.310  17.785  0.00  0.00    +0.000 N 
ATOM      6  C   UNL     1       3.400   4.786  17.889  0.00  0.00    +0.000 C 
ENDROOT
BRANCH   4   7
ATOM      7  S   UNL     1       7.438   5.231  18.300  0.00  0.00    +0.000 S 
ATOM      8  H   UNL     1       7.729   5.196  19.608  0.00  0.00    +0.000 HD
ENDBRANCH   4   7
BRANCH   1   9
ATOM      9  C   UNL     1       2.460   2.516  18.165  0.00  0.00    +0.000 C 
BRANCH   9  11
ATOM     10  C   UNL     1       0.788   3.129  20.013  0.00  0.00    +0.000 C 
ATOM     11  C   UNL     1       0.984   2.638  18.586  0.00  0.00    +0.000 C 
ENDBRANCH   9  11
ENDBRANCH   1   9
BRANCH   5  12
ATOM     12  C   UNL     1       4.994   6.346  16.728  0.00  0.00    +0.000 C 
BRANCH  12  13
ATOM     13  C   UNL     1       5.347   5.752  15.355  0.00  0.00    +0.000 C 
ATOM     14  C   UNL     1       5.057   4.273  15.168  0.00  0.00    +0.000 C 
ATOM     15  C   UNL     1       6.053   3.878  14.102  0.00  0.00    +0.000 C 
ATOM     16  C   UNL     1       7.232   4.784  14.376  0.00  0.00    +0.000 C 
ATOM     17  O   UNL     1       6.741   5.947  15.057  0.00  0.00    +0.000 OA
ENDBRANCH  12  13
ENDBRANCH   5  12
TORSDOF 5
ENDMDL
MODEL 6
REMARK VINA RESULT:      -5.9      1.956      2.823
REMARK  Name = 
REMARK  6 active torsions:
REMARK  status: ('A' for Active; 'I' for Inactive)
REMARK    1  A    between atoms: C_1  and  C_2
REMARK    2  A    between atoms: C_2  and  C_3
REMARK    3  A    between atoms: C_3  and  N_4
REMARK    4  A    between atoms: C_7  and  S_8
REMARK    5  A    between atoms: N_9  and  C_10
REMARK    6  A    between atoms: C_10  and  C_11
REMARK                            x       y       z     vdW  Elec       q    Type
REMARK                         _______ _______ _______ _____ _____    ______ ____
ROOT
ATOM      1  N   UNL     1       6.063   4.182  14.811  0.00  0.00    +0.000 NA
ATOM      2  C   UNL     1       7.236   4.949  14.575  0.00  0.00    +0.000 C 
ATOM      3  N   UNL     1       7.556   5.895  15.610  0.00  0.00    +0.000 NA
ATOM      4  C   UNL     1       7.081   5.702  16.773  0.00  0.00    +0.000 C 
ATOM      5  N   UNL     1       6.261   4.619  17.147  0.00  0.00    +0.000 N 
ATOM      6  C   UNL     1       5.779   3.697  16.119  0.00  0.00    +0.000 C 
ENDROOT
BRANCH   4   7
ATOM      7  S   UNL     1       7.543   6.881  17.970  0.00  0.00    +0.000 S 
ATOM      8  H   UNL     1       8.683   6.250  18.288  0.00  0.00    +0.000 HD
ENDBRANCH   4   7
BRANCH   1   9
ATOM      9  C   UNL     1       5.082   3.978  13.763  0.00  0.00    +0.000 C 
BRANCH   9  11
ATOM     10  C   UNL     1       4.471   3.143  11.415  0.00  0.00    +0.000 C 
ATOM     11  C   UNL     1       5.580   3.407  12.423  0.00  0.00    +0.000 C 
ENDBRANCH   9  11
ENDBRANCH   1   9
BRANCH   5  12
ATOM     12  C   UNL     1       5.674   4.452  18.515  0.00  0.00    +0.000 C 
BRANCH  12  13
ATOM     13  C   UNL     1       4.140   4.518  18.536  0.00  0.00    +0.000 C 
ATOM     14  C   UNL     1       3.525   5.561  19.453  0.00  0.00    +0.000 C 
ATOM     15  C   UNL     1       2.168   4.969  19.758  0.00  0.00    +0.000 C 
ATOM     16  C   UNL     1       2.427   3.479  19.736  0.00  0.00    +0.000 C 
ATOM     17  O   UNL     1       3.578   3.248  18.910  0.00  0.00    +0.000 OA
ENDBRANCH  12  13
ENDBRANCH   5  12
TORSDOF 5
ENDMDL
MODEL 7
REMARK VINA RESULT:      -5.8      1.210      1.569
REMARK  Name = 
REMARK  6 active torsions:
REMARK  status: ('A' for Active; 'I' for Inactive)
REMARK    1  A    between atoms: C_1  and  C_2
REMARK    2  A    between atoms: C_2  and  C_3
REMARK    3  A    between atoms: C_3  and  N_4
REMARK    4  A    between atoms: C_7  and  S_8
REMARK    5  A    between atoms: N_9  and  C_10
REMARK    6  A    between atoms: C_10  and  C_11
REMARK                            x       y       z     vdW  Elec       q    Type
REMARK                         _______ _______ _______ _____ _____    ______ ____
ROOT
ATOM      1  N   UNL     1       5.668   5.076  16.582  0.00  0.00    +0.000 NA
ATOM      2  C   UNL     1       5.518   6.382  16.043  0.00  0.00    +0.000 C 
ATOM      3  N   UNL     1       4.383   7.114  16.538  0.00  0.00    +0.000 NA
ATOM      4  C   UNL     1       3.882   6.767  17.654  0.00  0.00    +0.000 C 
ATOM      5  N   UNL     1       4.353   5.717  18.466  0.00  0.00    +0.000 N 
ATOM      6  C   UNL     1       5.411   4.841  17.963  0.00  0.00    +0.000 C 
ENDROOT
BRANCH   4   7
ATOM      7  S   UNL     1       2.529   7.725  18.190  0.00  0.00    +0.000 S 
ATOM      8  H   UNL     1       1.952   7.759  16.980  0.00  0.00    +0.000 HD
ENDBRANCH   4   7
BRANCH   1   9
ATOM      9  C   UNL     1       5.967   3.945  15.726  0.00  0.00    +0.000 C 
BRANCH   9  11
ATOM     10  C   UNL     1       5.731   3.658  13.187  0.00  0.00    +0.000 C 
ATOM     11  C   UNL     1       6.547   4.241  14.331  0.00  0.00    +0.000 C 
ENDBRANCH   9  11
ENDBRANCH   1   9
BRANCH   5  12
ATOM     12  C   UNL     1       3.703   5.301  19.750  0.00  0.00    +0.000 C 
BRANCH  12  13
ATOM     13  C   UNL     1       2.923   3.982  19.643  0.00  0.00    +0.000 C 
ATOM     14  C   UNL     1       1.612   4.037  18.878  0.00  0.00    +0.000 C 
ATOM     15  C   UNL     1       0.829   2.898  19.488  0.00  0.00    +0.000 C 
ATOM     16  C   UNL     1       1.314   2.871  20.920  0.00  0.00    +0.000 C 
ATOM     17  O   UNL     1       2.623   3.457  20.949  0.00  0.00    +0.000 OA
ENDBRANCH  12  13
ENDBRANCH   5  12
TORSDOF 5
ENDMDL
MODEL 8
REMARK VINA RESULT:      -5.8      1.737      5.634
REMARK  Name = 
REMARK  6 active torsions:
REMARK  status: ('A' for Active; 'I' for Inactive)
REMARK    1  A    between atoms: C_1  and  C_2
REMARK    2  A    between atoms: C_2  and  C_3
REMARK    3  A    between atoms: C_3  and  N_4
REMARK    4  A    between atoms: C_7  and  S_8
REMARK    5  A    between atoms: N_9  and  C_10
REMARK    6  A    between atoms: C_10  and  C_11
REMARK                            x       y       z     vdW  Elec       q    Type
REMARK                         _______ _______ _______ _____ _____    ______ ____
ROOT
ATOM      1  N   UNL     1       2.310   2.981  18.680  0.00  0.00    +0.000 NA
ATOM      2  C   UNL     1       1.472   3.905  18.001  0.00  0.00    +0.000 C 
ATOM      3  N   UNL     1       2.038   5.215  17.820  0.00  0.00    +0.000 NA
ATOM      4  C   UNL     1       3.303   5.337  17.866  0.00  0.00    +0.000 C 
ATOM      5  N   UNL     1       4.215   4.284  18.074  0.00  0.00    +0.000 N 
ATOM      6  C   UNL     1       3.708   2.952  18.407  0.00  0.00    +0.000 C 
ENDROOT
BRANCH   4   7
ATOM      7  S   UNL     1       3.903   6.952  17.608  0.00  0.00    +0.000 S 
ATOM      8  H   UNL     1       4.474   6.653  16.432  0.00  0.00    +0.000 HD
ENDBRANCH   4   7
BRANCH   1   9
ATOM      9  C   UNL     1       1.789   2.138  19.738  0.00  0.00    +0.000 C 
BRANCH   9  11
ATOM     10  C   UNL     1       2.159   4.026  21.436  0.00  0.00    +0.000 C 
ATOM     11  C   UNL     1       1.314   2.829  21.029  0.00  0.00    +0.000 C 
ENDBRANCH   9  11
ENDBRANCH   1   9
BRANCH   5  12
ATOM     12  C   UNL     1       5.697   4.473  18.177  0.00  0.00    +0.000 C 
BRANCH  12  13
ATOM     13  C   UNL     1       6.442   4.203  16.861  0.00  0.00    +0.000 C 
ATOM     14  C   UNL     1       7.034   5.416  16.164  0.00  0.00    +0.000 C 
ATOM     15  C   UNL     1       7.072   4.975  14.719  0.00  0.00    +0.000 C 
ATOM     16  C   UNL     1       5.870   4.065  14.602  0.00  0.00    +0.000 C 
ATOM     17  O   UNL     1       5.582   3.551  15.910  0.00  0.00    +0.000 OA
ENDBRANCH  12  13
ENDBRANCH   5  12
TORSDOF 5
ENDMDL
MODEL 9
REMARK VINA RESULT:      -5.8      2.701      5.522
REMARK  Name = 
REMARK  6 active torsions:
REMARK  status: ('A' for Active; 'I' for Inactive)
REMARK    1  A    between atoms: C_1  and  C_2
REMARK    2  A    between atoms: C_2  and  C_3
REMARK    3  A    between atoms: C_3  and  N_4
REMARK    4  A    between atoms: C_7  and  S_8
REMARK    5  A    between atoms: N_9  and  C_10
REMARK    6  A    between atoms: C_10  and  C_11
REMARK                            x       y       z     vdW  Elec       q    Type
REMARK                         _______ _______ _______ _____ _____    ______ ____
ROOT
ATOM      1  N   UNL     1       2.651   5.917  19.807  0.00  0.00    +0.000 NA
ATOM      2  C   UNL     1       1.732   4.893  20.161  0.00  0.00    +0.000 C 
ATOM      3  N   UNL     1       1.945   3.634  19.500  0.00  0.00    +0.000 NA
ATOM      4  C   UNL     1       3.099   3.391  19.024  0.00  0.00    +0.000 C 
ATOM      5  N   UNL     1       4.208   4.255  19.097  0.00  0.00    +0.000 N 
ATOM      6  C   UNL     1       4.029   5.607  19.627  0.00  0.00    +0.000 C 
ENDROOT
BRANCH   4   7
ATOM      7  S   UNL     1       3.276   1.832  18.266  0.00  0.00    +0.000 S 
ATOM      8  H   UNL     1       3.220   2.325  17.021  0.00  0.00    +0.000 HD
ENDBRANCH   4   7
BRANCH   1   9
ATOM      9  C   UNL     1       2.194   7.260  19.508  0.00  0.00    +0.000 C 
BRANCH   9  11
ATOM     10  C   UNL     1       1.889   9.191  17.846  0.00  0.00    +0.000 C 
ATOM     11  C   UNL     1       2.478   7.811  18.099  0.00  0.00    +0.000 C 
ENDBRANCH   9  11
ENDBRANCH   1   9
BRANCH   5  12
ATOM     12  C   UNL     1       5.540   3.958  18.478  0.00  0.00    +0.000 C 
BRANCH  12  13
ATOM     13  C   UNL     1       5.867   4.849  17.270  0.00  0.00    +0.000 C 
ATOM     14  C   UNL     1       4.855   4.845  16.138  0.00  0.00    +0.000 C 
ATOM     15  C   UNL     1       5.702   5.211  14.941  0.00  0.00    +0.000 C 
ATOM     16  C   UNL     1       7.048   4.606  15.271  0.00  0.00    +0.000 C 
ATOM     17  O   UNL     1       7.137   4.490  16.698  0.00  0.00    +0.000 OA
ENDBRANCH  12  13
ENDBRANCH   5  12
TORSDOF 5
ENDMDL
