MODEL 1
REMARK VINA RESULT:      -6.9      0.000      0.000
REMARK  Name = 
REMARK  7 active torsions:
REMARK  status: ('A' for Active; 'I' for Inactive)
REMARK    1  A    between atoms: O_1  and  C_2
REMARK    2  A    between atoms: C_2  and  CA_3
REMARK    3  A    between atoms: CA_3  and  CB_4
REMARK    4  A    between atoms: CA_3  and  N_6
REMARK    5  A    between atoms: CB_4  and  OG_5
REMARK    6  A    between atoms: N_6  and  C_7
REMARK    7  A    between atoms: C_9  and  C_10
REMARK                            x       y       z     vdW  Elec       q    Type
REMARK                         _______ _______ _______ _____ _____    ______ ____
ROOT
ATOM      1  C   UNK A   0       5.589   4.172  16.597  0.00  0.00    +0.000 A 
ATOM      2  N   UNK A   0       6.128   4.999  17.508  0.00  0.00    +0.000 NA
ATOM      3  C   UNK A   0       7.044   5.890  17.079  0.00  0.00    +0.000 A 
ATOM      4  N   UNK A   0       7.527   5.930  15.819  0.00  0.00    +0.000 NA
ATOM      5  C   UNK A   0       6.981   5.102  14.923  0.00  0.00    +0.000 A 
ATOM      6  C   UNK A   0       7.484   5.090  13.627  0.00  0.00    +0.000 A 
ATOM      7  C   UNK A   0       6.930   4.287  12.627  0.00  0.00    +0.000 A 
ATOM      8  C   UNK A   0       5.833   3.487  12.914  0.00  0.00    +0.000 A 
ATOM      9  C   UNK A   0       5.342   3.450  14.216  0.00  0.00    +0.000 A 
ATOM     10  C   UNK A   0       5.930   4.234  15.237  0.00  0.00    +0.000 A 
ENDROOT
BRANCH   3  11
ATOM     11  C   UNK A   0       7.535   6.948  18.054  0.00  0.00    +0.000 C 
ATOM     12  F   UNK A   0       8.472   6.480  18.932  0.00  0.00    +0.000 F 
ATOM     13  F   UNK A   0       8.110   8.029  17.442  0.00  0.00    +0.000 F 
ENDBRANCH   3  11
BRANCH   1  14
ATOM     14  N   SER A   1       4.685   3.187  17.029  0.00  0.00    +0.000 N 
ATOM     15  H   SER A   1       3.980   3.037  16.305  0.00  0.00    +0.000 HD
BRANCH  14  16
ATOM     16  CA  SER A   1       4.037   3.405  18.337  0.00  0.00    +0.000 C 
BRANCH  16  17
ATOM     17  C   SER A   1       2.567   3.810  18.088  0.00  0.00    +0.000 C 
BRANCH  17  18
ATOM     18  O   SER A   1       2.125   3.279  16.834  0.00  0.00    +0.000 OA
ATOM     19  H   SER A   1       1.936   4.045  16.263  0.00  0.00    +0.000 HD
ENDBRANCH  17  18
ENDBRANCH  16  17
BRANCH  16  20
ATOM     20  CB  SER A   1       4.069   2.122  19.198  0.00  0.00    +0.000 C 
BRANCH  20  21
ATOM     21  OG  SER A   1       4.151   0.941  18.398  0.00  0.00    +0.000 OA
ATOM     22  H   SER A   1       3.900   1.203  17.494  0.00  0.00    +0.000 HD
ENDBRANCH  20  21
ENDBRANCH  16  20
ENDBRANCH  14  16
ENDBRANCH   1  14
TORSDOF 7
ENDMDL
MODEL 2
REMARK VINA RESULT:      -6.9      3.630      6.048
REMARK  Name = 
REMARK  7 active torsions:
REMARK  status: ('A' for Active; 'I' for Inactive)
REMARK    1  A    between atoms: O_1  and  C_2
REMARK    2  A    between atoms: C_2  and  CA_3
REMARK    3  A    between atoms: CA_3  and  CB_4
REMARK    4  A    between atoms: CA_3  and  N_6
REMARK    5  A    between atoms: CB_4  and  OG_5
REMARK    6  A    between atoms: N_6  and  C_7
REMARK    7  A    between atoms: C_9  and  C_10
REMARK                            x       y       z     vdW  Elec       q    Type
REMARK                         _______ _______ _______ _____ _____    ______ ____
ROOT
ATOM      1  C   UNK A   0       3.967   5.050  18.000  0.00  0.00    +0.000 A 
ATOM      2  N   UNK A   0       3.549   6.295  17.722  0.00  0.00    +0.000 NA
ATOM      3  C   UNK A   0       2.700   6.879  18.591  0.00  0.00    +0.000 A 
ATOM      4  N   UNK A   0       2.166   6.253  19.661  0.00  0.00    +0.000 NA
ATOM      5  C   UNK A   0       2.591   5.014  19.927  0.00  0.00    +0.000 A 
ATOM      6  C   UNK A   0       2.030   4.328  20.997  0.00  0.00    +0.000 A 
ATOM      7  C   UNK A   0       2.461   3.050  21.363  0.00  0.00    +0.000 A 
ATOM      8  C   UNK A   0       3.492   2.442  20.660  0.00  0.00    +0.000 A 
ATOM      9  C   UNK A   0       4.037   3.094  19.557  0.00  0.00    +0.000 A 
ATOM     10  C   UNK A   0       3.571   4.371  19.163  0.00  0.00    +0.000 A 
ENDROOT
BRANCH   3  11
ATOM     11  C   UNK A   0       2.355   8.345  18.389  0.00  0.00    +0.000 C 
ATOM     12  F   UNK A   0       1.602   8.573  17.271  0.00  0.00    +0.000 F 
ATOM     13  F   UNK A   0       1.647   8.887  19.427  0.00  0.00    +0.000 F 
ENDBRANCH   3  11
BRANCH   1  14
ATOM     14  N   SER A   1       4.796   4.391  17.075  0.00  0.00    +0.000 N 
ATOM     15  H   SER A   1       4.990   3.446  17.411  0.00  0.00    +0.000 HD
BRANCH  14  16
ATOM     16  CA  SER A   1       6.052   5.071  16.705  0.00  0.00    +0.000 C 
BRANCH  16  17
ATOM     17  C   SER A   1       7.075   4.851  17.841  0.00  0.00    +0.000 C 
BRANCH  17  18
ATOM     18  O   SER A   1       8.174   4.070  17.360  0.00  0.00    +0.000 OA
ATOM     19  H   SER A   1       8.960   4.371  17.848  0.00  0.00    +0.000 HD
ENDBRANCH  17  18
ENDBRANCH  16  17
BRANCH  16  20
ATOM     20  CB  SER A   1       6.629   4.502  15.389  0.00  0.00    +0.000 C 
BRANCH  20  21
ATOM     21  OG  SER A   1       7.598   5.373  14.807  0.00  0.00    +0.000 OA
ATOM     22  H   SER A   1       7.965   4.902  14.037  0.00  0.00    +0.000 HD
ENDBRANCH  20  21
ENDBRANCH  16  20
ENDBRANCH  14  16
ENDBRANCH   1  14
TORSDOF 7
ENDMDL
MODEL 3
REMARK VINA RESULT:      -6.8      1.062      1.110
REMARK  Name = 
REMARK  7 active torsions:
REMARK  status: ('A' for Active; 'I' for Inactive)
REMARK    1  A    between atoms: O_1  and  C_2
REMARK    2  A    between atoms: C_2  and  CA_3
REMARK    3  A    between atoms: CA_3  and  CB_4
REMARK    4  A    between atoms: CA_3  and  N_6
REMARK    5  A    between atoms: CB_4  and  OG_5
REMARK    6  A    between atoms: N_6  and  C_7
REMARK    7  A    between atoms: C_9  and  C_10
REMARK                            x       y       z     vdW  Elec       q    Type
REMARK                         _______ _______ _______ _____ _____    ______ ____
ROOT
ATOM      1  C   UNK A   0       5.499   3.880  17.252  0.00  0.00    +0.000 A 
ATOM      2  N   UNK A   0       6.147   4.443  18.284  0.00  0.00    +0.000 NA
ATOM      3  C   UNK A   0       7.172   5.272  18.002  0.00  0.00    +0.000 A 
ATOM      4  N   UNK A   0       7.649   5.487  16.758  0.00  0.00    +0.000 NA
ATOM      5  C   UNK A   0       6.994   4.921  15.739  0.00  0.00    +0.000 A 
ATOM      6  C   UNK A   0       7.486   5.089  14.450  0.00  0.00    +0.000 A 
ATOM      7  C   UNK A   0       6.825   4.568  13.334  0.00  0.00    +0.000 A 
ATOM      8  C   UNK A   0       5.633   3.878  13.499  0.00  0.00    +0.000 A 
ATOM      9  C   UNK A   0       5.147   3.660  14.785  0.00  0.00    +0.000 A 
ATOM     10  C   UNK A   0       5.839   4.153  15.917  0.00  0.00    +0.000 A 
ENDROOT
BRANCH   3  11
ATOM     11  C   UNK A   0       7.803   6.055  19.142  0.00  0.00    +0.000 C 
ATOM     12  F   UNK A   0       8.694   5.319  19.873  0.00  0.00    +0.000 F 
ATOM     13  F   UNK A   0       8.491   7.163  18.729  0.00  0.00    +0.000 F 
ENDBRANCH   3  11
BRANCH   1  14
ATOM     14  N   SER A   1       4.474   2.956  17.518  0.00  0.00    +0.000 N 
ATOM     15  H   SER A   1       3.931   2.801  16.666  0.00  0.00    +0.000 HD
BRANCH  14  16
ATOM     16  CA  SER A   1       3.576   3.266  18.648  0.00  0.00    +0.000 C 
BRANCH  16  17
ATOM     17  C   SER A   1       2.118   3.170  18.148  0.00  0.00    +0.000 C 
BRANCH  17  18
ATOM     18  O   SER A   1       1.871   1.862  17.620  0.00  0.00    +0.000 OA
ATOM     19  H   SER A   1       2.076   1.234  18.335  0.00  0.00    +0.000 HD
ENDBRANCH  17  18
ENDBRANCH  16  17
BRANCH  16  20
ATOM     20  CB  SER A   1       3.778   2.269  19.812  0.00  0.00    +0.000 C 
BRANCH  20  21
ATOM     21  OG  SER A   1       5.159   2.005  20.059  0.00  0.00    +0.000 OA
ATOM     22  H   SER A   1       5.577   1.884  19.187  0.00  0.00    +0.000 HD
ENDBRANCH  20  21
ENDBRANCH  16  20
ENDBRANCH  14  16
ENDBRANCH   1  14
TORSDOF 7
ENDMDL
MODEL 4
REMARK VINA RESULT:      -6.8      3.873      5.661
REMARK  Name = 
REMARK  7 active torsions:
REMARK  status: ('A' for Active; 'I' for Inactive)
REMARK    1  A    between atoms: O_1  and  C_2
REMARK    2  A    between atoms: C_2  and  CA_3
REMARK    3  A    between atoms: CA_3  and  CB_4
REMARK    4  A    between atoms: CA_3  and  N_6
REMARK    5  A    between atoms: CB_4  and  OG_5
REMARK    6  A    between atoms: N_6  and  C_7
REMARK    7  A    between atoms: C_9  and  C_10
REMARK                            x       y       z     vdW  Elec       q    Type
REMARK                         _______ _______ _______ _____ _____    ______ ____
ROOT
ATOM      1  C   UNK A   0       4.464   5.460  18.945  0.00  0.00    +0.000 A 
ATOM      2  N   UNK A   0       4.047   6.715  18.709  0.00  0.00    +0.000 NA
ATOM      3  C   UNK A   0       2.773   6.884  18.303  0.00  0.00    +0.000 A 
ATOM      4  N   UNK A   0       1.929   5.868  18.019  0.00  0.00    +0.000 NA
ATOM      5  C   UNK A   0       2.357   4.625  18.260  0.00  0.00    +0.000 A 
ATOM      6  C   UNK A   0       1.528   3.557  17.940  0.00  0.00    +0.000 A 
ATOM      7  C   UNK A   0       1.889   2.234  18.209  0.00  0.00    +0.000 A 
ATOM      8  C   UNK A   0       3.100   1.964  18.832  0.00  0.00    +0.000 A 
ATOM      9  C   UNK A   0       3.965   3.016  19.120  0.00  0.00    +0.000 A 
ATOM     10  C   UNK A   0       3.614   4.352  18.809  0.00  0.00    +0.000 A 
ENDROOT
BRANCH   3  11
ATOM     11  C   UNK A   0       2.229   8.299  18.200  0.00  0.00    +0.000 C 
ATOM     12  F   UNK A   0       1.162   8.408  17.351  0.00  0.00    +0.000 F 
ATOM     13  F   UNK A   0       1.800   8.807  19.396  0.00  0.00    +0.000 F 
ENDBRANCH   3  11
BRANCH   1  14
ATOM     14  N   SER A   1       5.808   5.250  19.301  0.00  0.00    +0.000 N 
ATOM     15  H   SER A   1       5.963   5.597  20.249  0.00  0.00    +0.000 HD
BRANCH  14  16
ATOM     16  CA  SER A   1       6.831   5.789  18.384  0.00  0.00    +0.000 C 
BRANCH  16  17
ATOM     17  C   SER A   1       8.091   6.129  19.211  0.00  0.00    +0.000 C 
BRANCH  17  18
ATOM     18  O   SER A   1       8.058   5.422  20.456  0.00  0.00    +0.000 OA
ATOM     19  H   SER A   1       8.716   4.709  20.385  0.00  0.00    +0.000 HD
ENDBRANCH  17  18
ENDBRANCH  16  17
BRANCH  16  20
ATOM     20  CB  SER A   1       7.205   4.759  17.295  0.00  0.00    +0.000 C 
BRANCH  20  21
ATOM     21  OG  SER A   1       8.335   3.970  17.668  0.00  0.00    +0.000 OA
ATOM     22  H   SER A   1       8.690   4.365  18.485  0.00  0.00    +0.000 HD
ENDBRANCH  20  21
ENDBRANCH  16  20
ENDBRANCH  14  16
ENDBRANCH   1  14
TORSDOF 7
ENDMDL
MODEL 5
REMARK VINA RESULT:      -6.8      0.873      1.135
REMARK  Name = 
REMARK  7 active torsions:
REMARK  status: ('A' for Active; 'I' for Inactive)
REMARK    1  A    between atoms: O_1  and  C_2
REMARK    2  A    between atoms: C_2  and  CA_3
REMARK    3  A    between atoms: CA_3  and  CB_4
REMARK    4  A    between atoms: CA_3  and  N_6
REMARK    5  A    between atoms: CB_4  and  OG_5
REMARK    6  A    between atoms: N_6  and  C_7
REMARK    7  A    between atoms: C_9  and  C_10
REMARK                            x       y       z     vdW  Elec       q    Type
REMARK                         _______ _______ _______ _____ _____    ______ ____
ROOT
ATOM      1  C   UNK A   0       5.652   4.191  16.388  0.00  0.00    +0.000 A 
ATOM      2  N   UNK A   0       6.239   5.029  17.258  0.00  0.00    +0.000 NA
ATOM      3  C   UNK A   0       7.164   5.884  16.775  0.00  0.00    +0.000 A 
ATOM      4  N   UNK A   0       7.607   5.876  15.500  0.00  0.00    +0.000 NA
ATOM      5  C   UNK A   0       7.014   5.037  14.646  0.00  0.00    +0.000 A 
ATOM      6  C   UNK A   0       7.476   4.976  13.337  0.00  0.00    +0.000 A 
ATOM      7  C   UNK A   0       6.871   4.160  12.377  0.00  0.00    +0.000 A 
ATOM      8  C   UNK A   0       5.764   3.397  12.720  0.00  0.00    +0.000 A 
ATOM      9  C   UNK A   0       5.313   3.409  14.037  0.00  0.00    +0.000 A 
ATOM     10  C   UNK A   0       5.952   4.206  15.017  0.00  0.00    +0.000 A 
ENDROOT
BRANCH   3  11
ATOM     11  C   UNK A   0       7.710   6.956  17.704  0.00  0.00    +0.000 C 
ATOM     12  F   UNK A   0       6.991   8.119  17.667  0.00  0.00    +0.000 F 
ATOM     13  F   UNK A   0       7.733   6.580  19.019  0.00  0.00    +0.000 F 
ENDBRANCH   3  11
BRANCH   1  14
ATOM     14  N   SER A   1       4.738   3.241  16.876  0.00  0.00    +0.000 N 
ATOM     15  H   SER A   1       4.312   2.749  16.088  0.00  0.00    +0.000 HD
BRANCH  14  16
ATOM     16  CA  SER A   1       3.695   3.733  17.797  0.00  0.00    +0.000 C 
BRANCH  16  17
ATOM     17  C   SER A   1       2.349   3.091  17.391  0.00  0.00    +0.000 C 
BRANCH  17  18
ATOM     18  O   SER A   1       2.330   1.716  17.786  0.00  0.00    +0.000 OA
ATOM     19  H   SER A   1       3.029   1.272  17.274  0.00  0.00    +0.000 HD
ENDBRANCH  17  18
ENDBRANCH  16  17
BRANCH  16  20
ATOM     20  CB  SER A   1       4.016   3.352  19.259  0.00  0.00    +0.000 C 
BRANCH  20  21
ATOM     21  OG  SER A   1       5.329   2.807  19.397  0.00  0.00    +0.000 OA
ATOM     22  H   SER A   1       5.719   3.225  20.186  0.00  0.00    +0.000 HD
ENDBRANCH  20  21
ENDBRANCH  16  20
ENDBRANCH  14  16
ENDBRANCH   1  14
TORSDOF 7
ENDMDL
MODEL 6
REMARK VINA RESULT:      -6.8      2.641      4.611
REMARK  Name = 
REMARK  7 active torsions:
REMARK  status: ('A' for Active; 'I' for Inactive)
REMARK    1  A    between atoms: O_1  and  C_2
REMARK    2  A    between atoms: C_2  and  CA_3
REMARK    3  A    between atoms: CA_3  and  CB_4
REMARK    4  A    between atoms: CA_3  and  N_6
REMARK    5  A    between atoms: CB_4  and  OG_5
REMARK    6  A    between atoms: N_6  and  C_7
REMARK    7  A    between atoms: C_9  and  C_10
REMARK                            x       y       z     vdW  Elec       q    Type
REMARK                         _______ _______ _______ _____ _____    ______ ____
ROOT
ATOM      1  C   UNK A   0       6.425   4.944  15.965  0.00  0.00    +0.000 A 
ATOM      2  N   UNK A   0       7.261   5.965  16.217  0.00  0.00    +0.000 NA
ATOM      3  C   UNK A   0       6.900   6.848  17.169  0.00  0.00    +0.000 A 
ATOM      4  N   UNK A   0       5.710   6.828  17.805  0.00  0.00    +0.000 NA
ATOM      5  C   UNK A   0       4.888   5.807  17.545  0.00  0.00    +0.000 A 
ATOM      6  C   UNK A   0       3.638   5.781  18.153  0.00  0.00    +0.000 A 
ATOM      7  C   UNK A   0       2.749   4.719  17.967  0.00  0.00    +0.000 A 
ATOM      8  C   UNK A   0       3.116   3.644  17.170  0.00  0.00    +0.000 A 
ATOM      9  C   UNK A   0       4.344   3.672  16.516  0.00  0.00    +0.000 A 
ATOM     10  C   UNK A   0       5.227   4.767  16.675  0.00  0.00    +0.000 A 
ENDROOT
BRANCH   3  11
ATOM     11  C   UNK A   0       7.907   7.905  17.593  0.00  0.00    +0.000 C 
ATOM     12  F   UNK A   0       7.336   9.119  17.856  0.00  0.00    +0.000 F 
ATOM     13  F   UNK A   0       8.604   7.573  18.723  0.00  0.00    +0.000 F 
ENDBRANCH   3  11
BRANCH   1  14
ATOM     14  N   SER A   1       6.743   4.050  14.928  0.00  0.00    +0.000 N 
ATOM     15  H   SER A   1       7.726   3.782  15.004  0.00  0.00    +0.000 HD
BRANCH  14  16
ATOM     16  CA  SER A   1       6.437   4.488  13.553  0.00  0.00    +0.000 C 
BRANCH  16  17
ATOM     17  C   SER A   1       7.769   4.804  12.837  0.00  0.00    +0.000 C 
BRANCH  17  18
ATOM     18  O   SER A   1       8.471   5.827  13.551  0.00  0.00    +0.000 OA
ATOM     19  H   SER A   1       7.817   6.517  13.759  0.00  0.00    +0.000 HD
ENDBRANCH  17  18
ENDBRANCH  16  17
BRANCH  16  20
ATOM     20  CB  SER A   1       5.690   3.387  12.768  0.00  0.00    +0.000 C 
BRANCH  20  21
ATOM     21  OG  SER A   1       6.573   2.620  11.947  0.00  0.00    +0.000 OA
ATOM     22  H   SER A   1       7.093   3.261  11.429  0.00  0.00    +0.000 HD
ENDBRANCH  20  21
ENDBRANCH  16  20
ENDBRANCH  14  16
ENDBRANCH   1  14
TORSDOF 7
ENDMDL
MODEL 7
REMARK VINA RESULT:      -6.8      4.410      6.433
REMARK  Name = 
REMARK  7 active torsions:
REMARK  status: ('A' for Active; 'I' for Inactive)
REMARK    1  A    between atoms: O_1  and  C_2
REMARK    2  A    between atoms: C_2  and  CA_3
REMARK    3  A    between atoms: CA_3  and  CB_4
REMARK    4  A    between atoms: CA_3  and  N_6
REMARK    5  A    between atoms: CB_4  and  OG_5
REMARK    6  A    between atoms: N_6  and  C_7
REMARK    7  A    between atoms: C_9  and  C_10
REMARK                            x       y       z     vdW  Elec       q    Type
REMARK                         _______ _______ _______ _____ _____    ______ ____
ROOT
ATOM      1  C   UNK A   0       3.538   5.326  18.695  0.00  0.00    +0.000 A 
ATOM      2  N   UNK A   0       3.356   4.381  19.632  0.00  0.00    +0.000 NA
ATOM      3  C   UNK A   0       2.500   4.654  20.637  0.00  0.00    +0.000 A 
ATOM      4  N   UNK A   0       1.901   5.851  20.814  0.00  0.00    +0.000 NA
ATOM      5  C   UNK A   0       2.091   6.782  19.874  0.00  0.00    +0.000 A 
ATOM      6  C   UNK A   0       1.522   8.038  20.049  0.00  0.00    +0.000 A 
ATOM      7  C   UNK A   0       1.637   9.042  19.084  0.00  0.00    +0.000 A 
ATOM      8  C   UNK A   0       2.320   8.788  17.903  0.00  0.00    +0.000 A 
ATOM      9  C   UNK A   0       2.936   7.552  17.728  0.00  0.00    +0.000 A 
ATOM     10  C   UNK A   0       2.852   6.550  18.724  0.00  0.00    +0.000 A 
ENDROOT
BRANCH   3  11
ATOM     11  C   UNK A   0       2.144   3.539  21.606  0.00  0.00    +0.000 C 
ATOM     12  F   UNK A   0       0.926   2.972  21.353  0.00  0.00    +0.000 F 
ATOM     13  F   UNK A   0       3.040   2.505  21.601  0.00  0.00    +0.000 F 
ENDBRANCH   3  11
BRANCH   1  14
ATOM     14  N   SER A   1       4.478   5.095  17.676  0.00  0.00    +0.000 N 
ATOM     15  H   SER A   1       4.087   4.436  16.999  0.00  0.00    +0.000 HD
BRANCH  14  16
ATOM     16  CA  SER A   1       5.823   4.657  18.097  0.00  0.00    +0.000 C 
BRANCH  16  17
ATOM     17  C   SER A   1       6.641   4.317  16.831  0.00  0.00    +0.000 C 
BRANCH  17  18
ATOM     18  O   SER A   1       8.040   4.375  17.128  0.00  0.00    +0.000 OA
ATOM     19  H   SER A   1       8.212   3.672  17.779  0.00  0.00    +0.000 HD
ENDBRANCH  17  18
ENDBRANCH  16  17
BRANCH  16  20
ATOM     20  CB  SER A   1       6.552   5.768  18.885  0.00  0.00    +0.000 C 
BRANCH  20  21
ATOM     21  OG  SER A   1       7.296   5.245  19.987  0.00  0.00    +0.000 OA
ATOM     22  H   SER A   1       7.544   4.335  19.744  0.00  0.00    +0.000 HD
ENDBRANCH  20  21
ENDBRANCH  16  20
ENDBRANCH  14  16
ENDBRANCH   1  14
TORSDOF 7
ENDMDL
MODEL 8
REMARK VINA RESULT:      -6.7      3.602      4.326
REMARK  Name = 
REMARK  7 active torsions:
REMARK  status: ('A' for Active; 'I' for Inactive)
REMARK    1  A    between atoms: O_1  and  C_2
REMARK    2  A    between atoms: C_2  and  CA_3
REMARK    3  A    between atoms: CA_3  and  CB_4
REMARK    4  A    between atoms: CA_3  and  N_6
REMARK    5  A    between atoms: CB_4  and  OG_5
REMARK    6  A    between atoms: N_6  and  C_7
REMARK    7  A    between atoms: C_9  and  C_10
REMARK                            x       y       z     vdW  Elec       q    Type
REMARK                         _______ _______ _______ _____ _____    ______ ____
ROOT
ATOM      1  C   UNK A   0       3.115   5.149  18.876  0.00  0.00    +0.000 A 
ATOM      2  N   UNK A   0       2.508   6.292  19.234  0.00  0.00    +0.000 NA
ATOM      3  C   UNK A   0       2.732   7.383  18.474  0.00  0.00    +0.000 A 
ATOM      4  N   UNK A   0       3.606   7.421  17.446  0.00  0.00    +0.000 NA
ATOM      5  C   UNK A   0       4.203   6.276  17.100  0.00  0.00    +0.000 A 
ATOM      6  C   UNK A   0       5.139   6.291  16.073  0.00  0.00    +0.000 A 
ATOM      7  C   UNK A   0       5.764   5.124  15.626  0.00  0.00    +0.000 A 
ATOM      8  C   UNK A   0       5.438   3.903  16.201  0.00  0.00    +0.000 A 
ATOM      9  C   UNK A   0       4.537   3.872  17.262  0.00  0.00    +0.000 A 
ATOM     10  C   UNK A   0       3.935   5.061  17.740  0.00  0.00    +0.000 A 
ENDROOT
BRANCH   3  11
ATOM     11  C   UNK A   0       1.921   8.637  18.754  0.00  0.00    +0.000 C 
ATOM     12  F   UNK A   0       1.036   8.942  17.757  0.00  0.00    +0.000 F 
ATOM     13  F   UNK A   0       1.173   8.560  19.898  0.00  0.00    +0.000 F 
ENDBRANCH   3  11
BRANCH   1  14
ATOM     14  N   SER A   1       2.957   4.015  19.691  0.00  0.00    +0.000 N 
ATOM     15  H   SER A   1       3.454   3.227  19.271  0.00  0.00    +0.000 HD
BRANCH  14  16
ATOM     16  CA  SER A   1       1.574   3.626  20.029  0.00  0.00    +0.000 C 
BRANCH  16  17
ATOM     17  C   SER A   1       1.101   2.575  19.001  0.00  0.00    +0.000 C 
BRANCH  17  18
ATOM     18  O   SER A   1       2.086   1.544  18.875  0.00  0.00    +0.000 OA
ATOM     19  H   SER A   1       2.161   1.126  19.751  0.00  0.00    +0.000 HD
ENDBRANCH  17  18
ENDBRANCH  16  17
BRANCH  16  20
ATOM     20  CB  SER A   1       1.495   3.017  21.447  0.00  0.00    +0.000 C 
BRANCH  20  21
ATOM     21  OG  SER A   1       2.756   2.511  21.885  0.00  0.00    +0.000 OA
ATOM     22  H   SER A   1       2.591   2.055  22.730  0.00  0.00    +0.000 HD
ENDBRANCH  20  21
ENDBRANCH  16  20
ENDBRANCH  14  16
ENDBRANCH   1  14
TORSDOF 7
ENDMDL
MODEL 9
REMARK VINA RESULT:      -6.7      1.079      1.079
REMARK  Name = 
REMARK  7 active torsions:
REMARK  status: ('A' for Active; 'I' for Inactive)
REMARK    1  A    between atoms: O_1  and  C_2
REMARK    2  A    between atoms: C_2  and  CA_3
REMARK    3  A    between atoms: CA_3  and  CB_4
REMARK    4  A    between atoms: CA_3  and  N_6
REMARK    5  A    between atoms: CB_4  and  OG_5
REMARK    6  A    between atoms: N_6  and  C_7
REMARK    7  A    between atoms: C_9  and  C_10
REMARK                            x       y       z     vdW  Elec       q    Type
REMARK                         _______ _______ _______ _____ _____    ______ ____
ROOT
ATOM      1  C   UNK A   0       5.237   4.456  16.259  0.00  0.00    +0.000 A 
ATOM      2  N   UNK A   0       5.796   5.241  17.195  0.00  0.00    +0.000 NA
ATOM      3  C   UNK A   0       6.872   5.971  16.838  0.00  0.00    +0.000 A 
ATOM      4  N   UNK A   0       7.480   5.881  15.636  0.00  0.00    +0.000 NA
ATOM      5  C   UNK A   0       6.913   5.097  14.714  0.00  0.00    +0.000 A 
ATOM      6  C   UNK A   0       7.538   4.952  13.482  0.00  0.00    +0.000 A 
ATOM      7  C   UNK A   0       6.977   4.189  12.454  0.00  0.00    +0.000 A 
ATOM      8  C   UNK A   0       5.751   3.568  12.647  0.00  0.00    +0.000 A 
ATOM      9  C   UNK A   0       5.130   3.663  13.890  0.00  0.00    +0.000 A 
ATOM     10  C   UNK A   0       5.720   4.404  14.942  0.00  0.00    +0.000 A 
ENDROOT
BRANCH   3  11
ATOM     11  C   UNK A   0       7.410   6.994  17.825  0.00  0.00    +0.000 C 
ATOM     12  F   UNK A   0       8.208   6.445  18.789  0.00  0.00    +0.000 F 
ATOM     13  F   UNK A   0       8.162   7.975  17.238  0.00  0.00    +0.000 F 
ENDBRANCH   3  11
BRANCH   1  14
ATOM     14  N   SER A   1       4.159   3.631  16.623  0.00  0.00    +0.000 N 
ATOM     15  H   SER A   1       3.286   4.062  16.314  0.00  0.00    +0.000 HD
BRANCH  14  16
ATOM     16  CA  SER A   1       4.065   3.247  18.045  0.00  0.00    +0.000 C 
BRANCH  16  17
ATOM     17  C   SER A   1       3.050   4.186  18.734  0.00  0.00    +0.000 C 
BRANCH  17  18
ATOM     18  O   SER A   1       3.746   5.170  19.506  0.00  0.00    +0.000 OA
ATOM     19  H   SER A   1       3.103   5.874  19.700  0.00  0.00    +0.000 HD
ENDBRANCH  17  18
ENDBRANCH  16  17
BRANCH  16  20
ATOM     20  CB  SER A   1       3.587   1.786  18.200  0.00  0.00    +0.000 C 
BRANCH  20  21
ATOM     21  OG  SER A   1       2.206   1.708  18.553  0.00  0.00    +0.000 OA
ATOM     22  H   SER A   1       2.117   2.148  19.417  0.00  0.00    +0.000 HD
ENDBRANCH  20  21
ENDBRANCH  16  20
ENDBRANCH  14  16
ENDBRANCH   1  14
TORSDOF 7
ENDMDL
