MODEL 1
REMARK VINA RESULT:      -7.8      0.000      0.000
REMARK  Name = 
REMARK  7 active torsions:
REMARK  status: ('A' for Active; 'I' for Inactive)
REMARK    1  A    between atoms: C_1  and  O_2
REMARK    2  A    between atoms: O_2  and  C_3
REMARK    3  A    between atoms: N_5  and  C_6
REMARK    4  A    between atoms: C_9  and  S_10
REMARK    5  A    between atoms: S_10  and  N_13
REMARK    6  A    between atoms: C_16  and  C_17
REMARK    7  A    between atoms: C_17  and  C_18
REMARK                            x       y       z     vdW  Elec       q    Type
REMARK                         _______ _______ _______ _____ _____    ______ ____
ROOT
ATOM      1  S   UNL     1       2.997   5.661  19.050  0.00  0.00    +0.000 S 
ATOM      2  O   UNL     1       3.215   5.096  20.366  0.00  0.00    +0.000 OA
ATOM      3  O   UNL     1       2.272   4.937  18.029  0.00  0.00    +0.000 OA
ENDROOT
BRANCH   1   7
ATOM      4  C   UNL     1       0.905   9.692  19.681  0.00  0.00    +0.000 A 
ATOM      5  C   UNL     1       1.025   8.756  20.714  0.00  0.00    +0.000 A 
ATOM      6  C   UNL     1       1.650   7.527  20.507  0.00  0.00    +0.000 A 
ATOM      7  C   UNL     1       2.159   7.216  19.248  0.00  0.00    +0.000 A 
ATOM      8  C   UNL     1       2.071   8.139  18.203  0.00  0.00    +0.000 A 
ATOM      9  C   UNL     1       1.441   9.375  18.423  0.00  0.00    +0.000 A 
BRANCH   4  12
ATOM     10  C   UNL     1       0.732  11.995  20.607  0.00  0.00    +0.000 C 
ATOM     11  O   UNL     1       1.763  12.051  21.257  0.00  0.00    +0.000 OA
ATOM     12  N   UNL     1       0.274  10.942  19.854  0.00  0.00    +0.000 N 
ATOM     13  H   UNL     1      -0.608  11.109  19.388  0.00  0.00    +0.000 HD
BRANCH  10  15
ATOM     14  C   UNL     1      -1.511  12.576  20.524  0.00  0.00    +0.000 C 
ATOM     15  O   UNL     1      -0.153  13.029  20.533  0.00  0.00    +0.000 OA
ENDBRANCH  10  15
ENDBRANCH   4  12
ENDBRANCH   1   7
BRANCH   1  16
ATOM     16  N   UNL     1       4.526   6.145  18.411  0.00  0.00    +0.000 NA
ATOM     17  C   UNL     1       5.676   5.379  18.965  0.00  0.00    +0.000 C 
ATOM     18  C   UNL     1       7.004   5.904  18.428  0.00  0.00    +0.000 C 
ATOM     19  C   UNL     1       7.051   5.899  16.895  0.00  0.00    +0.000 C 
ATOM     20  C   UNL     1       5.889   6.773  16.403  0.00  0.00    +0.000 C 
ATOM     21  C   UNL     1       4.528   6.317  16.933  0.00  0.00    +0.000 C 
BRANCH  19  22
ATOM     22  C   UNL     1       6.995   4.492  16.253  0.00  0.00    +0.000 C 
BRANCH  22  23
ATOM     23  C   UNL     1       6.923   4.457  14.743  0.00  0.00    +0.000 A 
ATOM     24  C   UNL     1       7.816   5.223  13.979  0.00  0.00    +0.000 A 
ATOM     25  C   UNL     1       7.801   5.158  12.585  0.00  0.00    +0.000 A 
ATOM     26  C   UNL     1       6.901   4.317  11.937  0.00  0.00    +0.000 A 
ATOM     27  C   UNL     1       6.009   3.549  12.682  0.00  0.00    +0.000 A 
ATOM     28  C   UNL     1       6.017   3.620  14.078  0.00  0.00    +0.000 A 
ENDBRANCH  22  23
ENDBRANCH  19  22
ENDBRANCH   1  16
TORSDOF 6
ENDMDL
MODEL 2
REMARK VINA RESULT:      -7.8      0.664      1.142
REMARK  Name = 
REMARK  7 active torsions:
REMARK  status: ('A' for Active; 'I' for Inactive)
REMARK    1  A    between atoms: C_1  and  O_2
REMARK    2  A    between atoms: O_2  and  C_3
REMARK    3  A    between atoms: N_5  and  C_6
REMARK    4  A    between atoms: C_9  and  S_10
REMARK    5  A    between atoms: S_10  and  N_13
REMARK    6  A    between atoms: C_16  and  C_17
REMARK    7  A    between atoms: C_17  and  C_18
REMARK                            x       y       z     vdW  Elec       q    Type
REMARK                         _______ _______ _______ _____ _____    ______ ____
ROOT
ATOM      1  S   UNL     1       2.967   5.657  19.037  0.00  0.00    +0.000 S 
ATOM      2  O   UNL     1       3.147   5.017  20.324  0.00  0.00    +0.000 OA
ATOM      3  O   UNL     1       2.218   5.020  17.976  0.00  0.00    +0.000 OA
ENDROOT
BRANCH   1   7
ATOM      4  C   UNL     1       0.920   9.718  19.618  0.00  0.00    +0.000 A 
ATOM      5  C   UNL     1       1.430   9.323  18.377  0.00  0.00    +0.000 A 
ATOM      6  C   UNL     1       2.064   8.091  18.216  0.00  0.00    +0.000 A 
ATOM      7  C   UNL     1       2.202   7.239  19.308  0.00  0.00    +0.000 A 
ATOM      8  C   UNL     1       1.685   7.598  20.554  0.00  0.00    +0.000 A 
ATOM      9  C   UNL     1       1.047   8.840  20.706  0.00  0.00    +0.000 A 
BRANCH   4  12
ATOM     10  C   UNL     1       0.835  12.205  19.665  0.00  0.00    +0.000 C 
ATOM     11  O   UNL     1       1.975  12.472  19.323  0.00  0.00    +0.000 OA
ATOM     12  N   UNL     1       0.278  10.959  19.819  0.00  0.00    +0.000 N 
ATOM     13  H   UNL     1      -0.692  10.963  20.105  0.00  0.00    +0.000 HD
BRANCH  10  15
ATOM     14  C   UNL     1      -0.278  14.077  18.870  0.00  0.00    +0.000 C 
ATOM     15  O   UNL     1      -0.094  13.159  19.953  0.00  0.00    +0.000 OA
ENDBRANCH  10  15
ENDBRANCH   4  12
ENDBRANCH   1   7
BRANCH   1  16
ATOM     16  N   UNL     1       4.523   6.100  18.433  0.00  0.00    +0.000 NA
ATOM     17  C   UNL     1       5.635   5.279  18.986  0.00  0.00    +0.000 C 
ATOM     18  C   UNL     1       6.989   5.766  18.482  0.00  0.00    +0.000 C 
ATOM     19  C   UNL     1       7.061   5.797  16.950  0.00  0.00    +0.000 C 
ATOM     20  C   UNL     1       5.940   6.725  16.462  0.00  0.00    +0.000 C 
ATOM     21  C   UNL     1       4.554   6.307  16.960  0.00  0.00    +0.000 C 
BRANCH  19  22
ATOM     22  C   UNL     1       6.964   4.409  16.273  0.00  0.00    +0.000 C 
BRANCH  22  23
ATOM     23  C   UNL     1       6.905   4.413  14.762  0.00  0.00    +0.000 A 
ATOM     24  C   UNL     1       7.799   5.206  14.027  0.00  0.00    +0.000 A 
ATOM     25  C   UNL     1       7.796   5.178  12.631  0.00  0.00    +0.000 A 
ATOM     26  C   UNL     1       6.908   4.347  11.953  0.00  0.00    +0.000 A 
ATOM     27  C   UNL     1       6.016   3.553  12.670  0.00  0.00    +0.000 A 
ATOM     28  C   UNL     1       6.012   3.587  14.067  0.00  0.00    +0.000 A 
ENDBRANCH  22  23
ENDBRANCH  19  22
ENDBRANCH   1  16
TORSDOF 6
ENDMDL
MODEL 3
REMARK VINA RESULT:      -7.7      0.846      1.669
REMARK  Name = 
REMARK  7 active torsions:
REMARK  status: ('A' for Active; 'I' for Inactive)
REMARK    1  A    between atoms: C_1  and  O_2
REMARK    2  A    between atoms: O_2  and  C_3
REMARK    3  A    between atoms: N_5  and  C_6
REMARK    4  A    between atoms: C_9  and  S_10
REMARK    5  A    between atoms: S_10  and  N_13
REMARK    6  A    between atoms: C_16  and  C_17
REMARK    7  A    between atoms: C_17  and  C_18
REMARK                            x       y       z     vdW  Elec       q    Type
REMARK                         _______ _______ _______ _____ _____    ______ ____
ROOT
ATOM      1  S   UNL     1       2.988   5.634  18.914  0.00  0.00    +0.000 S 
ATOM      2  O   UNL     1       3.179   4.937  20.169  0.00  0.00    +0.000 OA
ATOM      3  O   UNL     1       2.238   5.041  17.828  0.00  0.00    +0.000 OA
ENDROOT
BRANCH   1   7
ATOM      4  C   UNL     1       0.916   9.649  19.690  0.00  0.00    +0.000 A 
ATOM      5  C   UNL     1       1.432   9.320  18.433  0.00  0.00    +0.000 A 
ATOM      6  C   UNL     1       2.073   8.101  18.212  0.00  0.00    +0.000 A 
ATOM      7  C   UNL     1       2.213   7.195  19.261  0.00  0.00    +0.000 A 
ATOM      8  C   UNL     1       1.691   7.490  20.522  0.00  0.00    +0.000 A 
ATOM      9  C   UNL     1       1.045   8.719  20.734  0.00  0.00    +0.000 A 
BRANCH   4  12
ATOM     10  C   UNL     1      -0.989  11.243  19.532  0.00  0.00    +0.000 C 
ATOM     11  O   UNL     1      -1.775  10.585  18.869  0.00  0.00    +0.000 OA
ATOM     12  N   UNL     1       0.266  10.875  19.951  0.00  0.00    +0.000 N 
ATOM     13  H   UNL     1       0.750  11.573  20.499  0.00  0.00    +0.000 HD
BRANCH  10  15
ATOM     14  C   UNL     1      -2.673  12.721  20.128  0.00  0.00    +0.000 C 
ATOM     15  O   UNL     1      -1.267  12.501  19.976  0.00  0.00    +0.000 OA
ENDBRANCH  10  15
ENDBRANCH   4  12
ENDBRANCH   1   7
BRANCH   1  16
ATOM     16  N   UNL     1       4.538   6.115  18.323  0.00  0.00    +0.000 NA
ATOM     17  C   UNL     1       5.669   5.358  18.926  0.00  0.00    +0.000 C 
ATOM     18  C   UNL     1       7.014   5.880  18.430  0.00  0.00    +0.000 C 
ATOM     19  C   UNL     1       7.115   5.859  16.899  0.00  0.00    +0.000 C 
ATOM     20  C   UNL     1       5.968   6.725  16.358  0.00  0.00    +0.000 C 
ATOM     21  C   UNL     1       4.590   6.271  16.845  0.00  0.00    +0.000 C 
BRANCH  19  22
ATOM     22  C   UNL     1       7.084   4.445  16.271  0.00  0.00    +0.000 C 
BRANCH  22  23
ATOM     23  C   UNL     1       7.021   4.394  14.761  0.00  0.00    +0.000 A 
ATOM     24  C   UNL     1       6.031   3.629  14.125  0.00  0.00    +0.000 A 
ATOM     25  C   UNL     1       5.923   3.617  12.733  0.00  0.00    +0.000 A 
ATOM     26  C   UNL     1       6.797   4.377  11.960  0.00  0.00    +0.000 A 
ATOM     27  C   UNL     1       7.784   5.141  12.579  0.00  0.00    +0.000 A 
ATOM     28  C   UNL     1       7.898   5.148  13.971  0.00  0.00    +0.000 A 
ENDBRANCH  22  23
ENDBRANCH  19  22
ENDBRANCH   1  16
TORSDOF 6
ENDMDL
MODEL 4
REMARK VINA RESULT:      -7.6      4.029      8.519
REMARK  Name = 
REMARK  7 active torsions:
REMARK  status: ('A' for Active; 'I' for Inactive)
REMARK    1  A    between atoms: C_1  and  O_2
REMARK    2  A    between atoms: O_2  and  C_3
REMARK    3  A    between atoms: N_5  and  C_6
REMARK    4  A    between atoms: C_9  and  S_10
REMARK    5  A    between atoms: S_10  and  N_13
REMARK    6  A    between atoms: C_16  and  C_17
REMARK    7  A    between atoms: C_17  and  C_18
REMARK                            x       y       z     vdW  Elec       q    Type
REMARK                         _______ _______ _______ _____ _____    ______ ____
ROOT
ATOM      1  S   UNL     1       7.005   6.518  17.578  0.00  0.00    +0.000 S 
ATOM      2  O   UNL     1       7.703   5.767  18.601  0.00  0.00    +0.000 OA
ATOM      3  O   UNL     1       7.565   7.729  17.017  0.00  0.00    +0.000 OA
ENDROOT
BRANCH   1   7
ATOM      4  C   UNL     1       6.339   3.721  14.008  0.00  0.00    +0.000 A 
ATOM      5  C   UNL     1       7.073   4.905  13.886  0.00  0.00    +0.000 A 
ATOM      6  C   UNL     1       7.257   5.756  14.976  0.00  0.00    +0.000 A 
ATOM      7  C   UNL     1       6.694   5.430  16.208  0.00  0.00    +0.000 A 
ATOM      8  C   UNL     1       5.972   4.245  16.363  0.00  0.00    +0.000 A 
ATOM      9  C   UNL     1       5.794   3.394  15.260  0.00  0.00    +0.000 A 
BRANCH   4  12
ATOM     10  C   UNL     1       5.173   2.959  11.945  0.00  0.00    +0.000 C 
ATOM     11  O   UNL     1       4.339   3.842  11.822  0.00  0.00    +0.000 OA
ATOM     12  N   UNL     1       6.128   2.840  12.925  0.00  0.00    +0.000 N 
ATOM     13  H   UNL     1       6.726   2.030  12.836  0.00  0.00    +0.000 HD
BRANCH  10  15
ATOM     14  C   UNL     1       6.596   1.357  11.060  0.00  0.00    +0.000 C 
ATOM     15  O   UNL     1       5.278   1.914  11.077  0.00  0.00    +0.000 OA
ENDBRANCH  10  15
ENDBRANCH   4  12
ENDBRANCH   1   7
BRANCH   1  16
ATOM     16  N   UNL     1       5.411   6.855  18.150  0.00  0.00    +0.000 NA
ATOM     17  C   UNL     1       4.487   7.348  17.092  0.00  0.00    +0.000 C 
ATOM     18  C   UNL     1       3.122   7.707  17.669  0.00  0.00    +0.000 C 
ATOM     19  C   UNL     1       2.486   6.533  18.426  0.00  0.00    +0.000 C 
ATOM     20  C   UNL     1       3.458   6.138  19.547  0.00  0.00    +0.000 C 
ATOM     21  C   UNL     1       4.858   5.796  19.036  0.00  0.00    +0.000 C 
BRANCH  19  22
ATOM     22  C   UNL     1       2.135   5.312  17.543  0.00  0.00    +0.000 C 
BRANCH  22  23
ATOM     23  C   UNL     1       2.025   3.986  18.262  0.00  0.00    +0.000 A 
ATOM     24  C   UNL     1       2.848   2.913  17.886  0.00  0.00    +0.000 A 
ATOM     25  C   UNL     1       2.800   1.701  18.577  0.00  0.00    +0.000 A 
ATOM     26  C   UNL     1       1.938   1.550  19.659  0.00  0.00    +0.000 A 
ATOM     27  C   UNL     1       1.116   2.607  20.044  0.00  0.00    +0.000 A 
ATOM     28  C   UNL     1       1.157   3.818  19.348  0.00  0.00    +0.000 A 
ENDBRANCH  22  23
ENDBRANCH  19  22
ENDBRANCH   1  16
TORSDOF 6
ENDMDL
MODEL 5
REMARK VINA RESULT:      -7.6      0.948      1.450
REMARK  Name = 
REMARK  7 active torsions:
REMARK  status: ('A' for Active; 'I' for Inactive)
REMARK    1  A    between atoms: C_1  and  O_2
REMARK    2  A    between atoms: O_2  and  C_3
REMARK    3  A    between atoms: N_5  and  C_6
REMARK    4  A    between atoms: C_9  and  S_10
REMARK    5  A    between atoms: S_10  and  N_13
REMARK    6  A    between atoms: C_16  and  C_17
REMARK    7  A    between atoms: C_17  and  C_18
REMARK                            x       y       z     vdW  Elec       q    Type
REMARK                         _______ _______ _______ _____ _____    ______ ____
ROOT
ATOM      1  S   UNL     1       2.691   5.632  19.224  0.00  0.00    +0.000 S 
ATOM      2  O   UNL     1       2.855   5.134  20.574  0.00  0.00    +0.000 OA
ATOM      3  O   UNL     1       1.887   4.925  18.251  0.00  0.00    +0.000 OA
ENDROOT
BRANCH   1   7
ATOM      4  C   UNL     1       1.050   9.898  19.584  0.00  0.00    +0.000 A 
ATOM      5  C   UNL     1       1.096   9.033  20.682  0.00  0.00    +0.000 A 
ATOM      6  C   UNL     1       1.584   7.733  20.558  0.00  0.00    +0.000 A 
ATOM      7  C   UNL     1       2.027   7.278  19.318  0.00  0.00    +0.000 A 
ATOM      8  C   UNL     1       2.010   8.126  18.208  0.00  0.00    +0.000 A 
ATOM      9  C   UNL     1       1.519   9.434  18.344  0.00  0.00    +0.000 A 
BRANCH   4  12
ATOM     10  C   UNL     1      -0.729  11.631  19.429  0.00  0.00    +0.000 C 
ATOM     11  O   UNL     1      -1.682  10.943  19.101  0.00  0.00    +0.000 OA
ATOM     12  N   UNL     1       0.558  11.218  19.672  0.00  0.00    +0.000 N 
ATOM     13  H   UNL     1       1.195  11.956  19.940  0.00  0.00    +0.000 HD
BRANCH  10  15
ATOM     14  C   UNL     1      -0.100  13.708  18.614  0.00  0.00    +0.000 C 
ATOM     15  O   UNL     1      -0.819  12.978  19.614  0.00  0.00    +0.000 OA
ENDBRANCH  10  15
ENDBRANCH   4  12
ENDBRANCH   1   7
BRANCH   1  16
ATOM     16  N   UNL     1       4.260   5.906  18.557  0.00  0.00    +0.000 NA
ATOM     17  C   UNL     1       5.247   4.842  18.890  0.00  0.00    +0.000 C 
ATOM     18  C   UNL     1       6.631   5.177  18.346  0.00  0.00    +0.000 C 
ATOM     19  C   UNL     1       6.613   5.431  16.833  0.00  0.00    +0.000 C 
ATOM     20  C   UNL     1       5.640   6.592  16.580  0.00  0.00    +0.000 C 
ATOM     21  C   UNL     1       4.237   6.330  17.131  0.00  0.00    +0.000 C 
BRANCH  19  22
ATOM     22  C   UNL     1       6.238   4.198  15.977  0.00  0.00    +0.000 C 
BRANCH  22  23
ATOM     23  C   UNL     1       6.613   4.269  14.514  0.00  0.00    +0.000 A 
ATOM     24  C   UNL     1       5.944   3.466  13.578  0.00  0.00    +0.000 A 
ATOM     25  C   UNL     1       6.238   3.561  12.216  0.00  0.00    +0.000 A 
ATOM     26  C   UNL     1       7.196   4.469  11.772  0.00  0.00    +0.000 A 
ATOM     27  C   UNL     1       7.866   5.274  12.691  0.00  0.00    +0.000 A 
ATOM     28  C   UNL     1       7.579   5.173  14.055  0.00  0.00    +0.000 A 
ENDBRANCH  22  23
ENDBRANCH  19  22
ENDBRANCH   1  16
TORSDOF 6
ENDMDL
MODEL 6
REMARK VINA RESULT:      -7.6      0.491      1.050
REMARK  Name = 
REMARK  7 active torsions:
REMARK  status: ('A' for Active; 'I' for Inactive)
REMARK    1  A    between atoms: C_1  and  O_2
REMARK    2  A    between atoms: O_2  and  C_3
REMARK    3  A    between atoms: N_5  and  C_6
REMARK    4  A    between atoms: C_9  and  S_10
REMARK    5  A    between atoms: S_10  and  N_13
REMARK    6  A    between atoms: C_16  and  C_17
REMARK    7  A    between atoms: C_17  and  C_18
REMARK                            x       y       z     vdW  Elec       q    Type
REMARK                         _______ _______ _______ _____ _____    ______ ____
ROOT
ATOM      1  S   UNL     1       2.943   5.711  18.941  0.00  0.00    +0.000 S 
ATOM      2  O   UNL     1       3.126   5.122  20.251  0.00  0.00    +0.000 OA
ATOM      3  O   UNL     1       2.223   5.016  17.895  0.00  0.00    +0.000 OA
ENDROOT
BRANCH   1   7
ATOM      4  C   UNL     1       0.932   9.780  19.586  0.00  0.00    +0.000 A 
ATOM      5  C   UNL     1       1.139   8.887  20.642  0.00  0.00    +0.000 A 
ATOM      6  C   UNL     1       1.739   7.646  20.432  0.00  0.00    +0.000 A 
ATOM      7  C   UNL     1       2.133   7.279  19.147  0.00  0.00    +0.000 A 
ATOM      8  C   UNL     1       1.956   8.159  18.076  0.00  0.00    +0.000 A 
ATOM      9  C   UNL     1       1.352   9.407  18.299  0.00  0.00    +0.000 A 
BRANCH   4  12
ATOM     10  C   UNL     1       0.947  12.264  19.732  0.00  0.00    +0.000 C 
ATOM     11  O   UNL     1       2.132  12.491  19.543  0.00  0.00    +0.000 OA
ATOM     12  N   UNL     1       0.323  11.042  19.762  0.00  0.00    +0.000 N 
ATOM     13  H   UNL     1      -0.673  11.080  19.929  0.00  0.00    +0.000 HD
BRANCH  10  15
ATOM     14  C   UNL     1      -1.229  12.959  19.332  0.00  0.00    +0.000 C 
ATOM     15  O   UNL     1       0.031  13.250  19.947  0.00  0.00    +0.000 OA
ENDBRANCH  10  15
ENDBRANCH   4  12
ENDBRANCH   1   7
BRANCH   1  16
ATOM     16  N   UNL     1       4.493   6.174  18.337  0.00  0.00    +0.000 NA
ATOM     17  C   UNL     1       5.622   5.410  18.937  0.00  0.00    +0.000 C 
ATOM     18  C   UNL     1       6.968   5.917  18.430  0.00  0.00    +0.000 C 
ATOM     19  C   UNL     1       7.059   5.885  16.898  0.00  0.00    +0.000 C 
ATOM     20  C   UNL     1       5.917   6.758  16.358  0.00  0.00    +0.000 C 
ATOM     21  C   UNL     1       4.538   6.320  16.857  0.00  0.00    +0.000 C 
BRANCH  19  22
ATOM     22  C   UNL     1       7.011   4.468  16.280  0.00  0.00    +0.000 C 
BRANCH  22  23
ATOM     23  C   UNL     1       6.996   4.406  14.769  0.00  0.00    +0.000 A 
ATOM     24  C   UNL     1       6.056   3.600  14.108  0.00  0.00    +0.000 A 
ATOM     25  C   UNL     1       5.991   3.576  12.714  0.00  0.00    +0.000 A 
ATOM     26  C   UNL     1       6.856   4.366  11.962  0.00  0.00    +0.000 A 
ATOM     27  C   UNL     1       7.793   5.173  12.605  0.00  0.00    +0.000 A 
ATOM     28  C   UNL     1       7.865   5.191  14.000  0.00  0.00    +0.000 A 
ENDBRANCH  22  23
ENDBRANCH  19  22
ENDBRANCH   1  16
TORSDOF 6
ENDMDL
MODEL 7
REMARK VINA RESULT:      -7.4      4.091      8.446
REMARK  Name = 
REMARK  7 active torsions:
REMARK  status: ('A' for Active; 'I' for Inactive)
REMARK    1  A    between atoms: C_1  and  O_2
REMARK    2  A    between atoms: O_2  and  C_3
REMARK    3  A    between atoms: N_5  and  C_6
REMARK    4  A    between atoms: C_9  and  S_10
REMARK    5  A    between atoms: S_10  and  N_13
REMARK    6  A    between atoms: C_16  and  C_17
REMARK    7  A    between atoms: C_17  and  C_18
REMARK                            x       y       z     vdW  Elec       q    Type
REMARK                         _______ _______ _______ _____ _____    ______ ____
ROOT
ATOM      1  S   UNL     1       7.141   6.547  17.591  0.00  0.00    +0.000 S 
ATOM      2  O   UNL     1       7.817   5.805  18.635  0.00  0.00    +0.000 OA
ATOM      3  O   UNL     1       7.706   7.760  17.040  0.00  0.00    +0.000 OA
ENDROOT
BRANCH   1   7
ATOM      4  C   UNL     1       6.321   3.711  14.084  0.00  0.00    +0.000 A 
ATOM      5  C   UNL     1       5.849   3.442  15.373  0.00  0.00    +0.000 A 
ATOM      6  C   UNL     1       6.117   4.304  16.435  0.00  0.00    +0.000 A 
ATOM      7  C   UNL     1       6.875   5.452  16.217  0.00  0.00    +0.000 A 
ATOM      8  C   UNL     1       7.343   5.756  14.937  0.00  0.00    +0.000 A 
ATOM      9  C   UNL     1       7.067   4.881  13.873  0.00  0.00    +0.000 A 
BRANCH   4  12
ATOM     10  C   UNL     1       5.141   3.044  11.997  0.00  0.00    +0.000 C 
ATOM     11  O   UNL     1       4.362   3.976  11.874  0.00  0.00    +0.000 OA
ATOM     12  N   UNL     1       6.073   2.857  12.987  0.00  0.00    +0.000 N 
ATOM     13  H   UNL     1       6.624   2.014  12.895  0.00  0.00    +0.000 HD
BRANCH  10  15
ATOM     14  C   UNL     1       6.497   1.410  11.065  0.00  0.00    +0.000 C 
ATOM     15  O   UNL     1       5.196   2.005  11.116  0.00  0.00    +0.000 OA
ENDBRANCH  10  15
ENDBRANCH   4  12
ENDBRANCH   1   7
BRANCH   1  16
ATOM     16  N   UNL     1       5.530   6.874  18.119  0.00  0.00    +0.000 NA
ATOM     17  C   UNL     1       4.621   7.321  17.028  0.00  0.00    +0.000 C 
ATOM     18  C   UNL     1       3.238   7.673  17.566  0.00  0.00    +0.000 C 
ATOM     19  C   UNL     1       2.605   6.510  18.342  0.00  0.00    +0.000 C 
ATOM     20  C   UNL     1       3.558   6.163  19.495  0.00  0.00    +0.000 C 
ATOM     21  C   UNL     1       4.975   5.830  19.023  0.00  0.00    +0.000 C 
BRANCH  19  22
ATOM     22  C   UNL     1       2.293   5.259  17.487  0.00  0.00    +0.000 C 
BRANCH  22  23
ATOM     23  C   UNL     1       2.202   3.950  18.239  0.00  0.00    +0.000 A 
ATOM     24  C   UNL     1       1.253   3.791  19.259  0.00  0.00    +0.000 A 
ATOM     25  C   UNL     1       1.117   2.571  19.924  0.00  0.00    +0.000 A 
ATOM     26  C   UNL     1       1.921   1.491  19.569  0.00  0.00    +0.000 A 
ATOM     27  C   UNL     1       2.867   1.635  18.556  0.00  0.00    +0.000 A 
ATOM     28  C   UNL     1       3.010   2.858  17.896  0.00  0.00    +0.000 A 
ENDBRANCH  22  23
ENDBRANCH  19  22
ENDBRANCH   1  16
TORSDOF 6
ENDMDL
MODEL 8
REMARK VINA RESULT:      -7.3      0.639      1.448
REMARK  Name = 
REMARK  7 active torsions:
REMARK  status: ('A' for Active; 'I' for Inactive)
REMARK    1  A    between atoms: C_1  and  O_2
REMARK    2  A    between atoms: O_2  and  C_3
REMARK    3  A    between atoms: N_5  and  C_6
REMARK    4  A    between atoms: C_9  and  S_10
REMARK    5  A    between atoms: S_10  and  N_13
REMARK    6  A    between atoms: C_16  and  C_17
REMARK    7  A    between atoms: C_17  and  C_18
REMARK                            x       y       z     vdW  Elec       q    Type
REMARK                         _______ _______ _______ _____ _____    ______ ____
ROOT
ATOM      1  S   UNL     1       2.626   5.636  19.491  0.00  0.00    +0.000 S 
ATOM      2  O   UNL     1       2.868   5.077  20.806  0.00  0.00    +0.000 OA
ATOM      3  O   UNL     1       1.765   4.972  18.536  0.00  0.00    +0.000 OA
ENDROOT
BRANCH   1   7
ATOM      4  C   UNL     1       0.867   9.849  19.906  0.00  0.00    +0.000 A 
ATOM      5  C   UNL     1       1.430   9.403  18.706  0.00  0.00    +0.000 A 
ATOM      6  C   UNL     1       1.975   8.124  18.596  0.00  0.00    +0.000 A 
ATOM      7  C   UNL     1       1.970   7.275  19.699  0.00  0.00    +0.000 A 
ATOM      8  C   UNL     1       1.397   7.687  20.905  0.00  0.00    +0.000 A 
ATOM      9  C   UNL     1       0.849   8.976  21.005  0.00  0.00    +0.000 A 
BRANCH   4  12
ATOM     10  C   UNL     1       0.909  12.226  20.643  0.00  0.00    +0.000 C 
ATOM     11  O   UNL     1       2.023  12.285  21.137  0.00  0.00    +0.000 OA
ATOM     12  N   UNL     1       0.311  11.139  20.054  0.00  0.00    +0.000 N 
ATOM     13  H   UNL     1      -0.621  11.309  19.701  0.00  0.00    +0.000 HD
BRANCH  10  15
ATOM     14  C   UNL     1      -0.563  13.534  21.867  0.00  0.00    +0.000 C 
ATOM     15  O   UNL     1       0.060  13.291  20.601  0.00  0.00    +0.000 OA
ENDBRANCH  10  15
ENDBRANCH   4  12
ENDBRANCH   1   7
BRANCH   1  16
ATOM     16  N   UNL     1       4.153   5.942  18.746  0.00  0.00    +0.000 NA
ATOM     17  C   UNL     1       5.167   4.883  19.001  0.00  0.00    +0.000 C 
ATOM     18  C   UNL     1       6.516   5.246  18.389  0.00  0.00    +0.000 C 
ATOM     19  C   UNL     1       6.413   5.532  16.886  0.00  0.00    +0.000 C 
ATOM     20  C   UNL     1       5.415   6.686  16.712  0.00  0.00    +0.000 C 
ATOM     21  C   UNL     1       4.047   6.397  17.333  0.00  0.00    +0.000 C 
BRANCH  19  22
ATOM     22  C   UNL     1       6.004   4.313  16.025  0.00  0.00    +0.000 C 
BRANCH  22  23
ATOM     23  C   UNL     1       6.477   4.329  14.589  0.00  0.00    +0.000 A 
ATOM     24  C   UNL     1       5.902   3.459  13.650  0.00  0.00    +0.000 A 
ATOM     25  C   UNL     1       6.287   3.500  12.309  0.00  0.00    +0.000 A 
ATOM     26  C   UNL     1       7.243   4.420  11.887  0.00  0.00    +0.000 A 
ATOM     27  C   UNL     1       7.821   5.291  12.807  0.00  0.00    +0.000 A 
ATOM     28  C   UNL     1       7.443   5.244  14.152  0.00  0.00    +0.000 A 
ENDBRANCH  22  23
ENDBRANCH  19  22
ENDBRANCH   1  16
TORSDOF 6
ENDMDL
MODEL 9
REMARK VINA RESULT:      -7.2      3.763      9.896
REMARK  Name = 
REMARK  7 active torsions:
REMARK  status: ('A' for Active; 'I' for Inactive)
REMARK    1  A    between atoms: C_1  and  O_2
REMARK    2  A    between atoms: O_2  and  C_3
REMARK    3  A    between atoms: N_5  and  C_6
REMARK    4  A    between atoms: C_9  and  S_10
REMARK    5  A    between atoms: S_10  and  N_13
REMARK    6  A    between atoms: C_16  and  C_17
REMARK    7  A    between atoms: C_17  and  C_18
REMARK                            x       y       z     vdW  Elec       q    Type
REMARK                         _______ _______ _______ _____ _____    ______ ____
ROOT
ATOM      1  S   UNL     1       0.196  10.967  19.716  0.00  0.00    +0.000 S 
ATOM      2  O   UNL     1      -0.793  11.153  18.674  0.00  0.00    +0.000 OA
ATOM      3  O   UNL     1      -0.177  10.927  21.113  0.00  0.00    +0.000 OA
ENDROOT
BRANCH   1   7
ATOM      4  C   UNL     1       2.538   7.133  18.800  0.00  0.00    +0.000 A 
ATOM      5  C   UNL     1       2.286   8.093  17.815  0.00  0.00    +0.000 A 
ATOM      6  C   UNL     1       1.560   9.249  18.101  0.00  0.00    +0.000 A 
ATOM      7  C   UNL     1       1.067   9.452  19.388  0.00  0.00    +0.000 A 
ATOM      8  C   UNL     1       1.319   8.520  20.397  0.00  0.00    +0.000 A 
ATOM      9  C   UNL     1       2.053   7.360  20.099  0.00  0.00    +0.000 A 
BRANCH   4  12
ATOM     10  C   UNL     1       2.772   4.787  18.006  0.00  0.00    +0.000 C 
ATOM     11  O   UNL     1       1.628   4.559  17.645  0.00  0.00    +0.000 OA
ATOM     12  N   UNL     1       3.264   5.950  18.544  0.00  0.00    +0.000 N 
ATOM     13  H   UNL     1       4.249   5.927  18.770  0.00  0.00    +0.000 HD
BRANCH  10  15
ATOM     14  C   UNL     1       4.556   3.802  19.112  0.00  0.00    +0.000 C 
ATOM     15  O   UNL     1       3.773   3.866  17.916  0.00  0.00    +0.000 OA
ENDBRANCH  10  15
ENDBRANCH   4  12
ENDBRANCH   1   7
BRANCH   1  16
ATOM     16  N   UNL     1       1.432  12.155  19.503  0.00  0.00    +0.000 NA
ATOM     17  C   UNL     1       1.216  13.040  18.325  0.00  0.00    +0.000 C 
ATOM     18  C   UNL     1       2.376  14.012  18.140  0.00  0.00    +0.000 C 
ATOM     19  C   UNL     1       2.634  14.853  19.397  0.00  0.00    +0.000 C 
ATOM     20  C   UNL     1       2.929  13.875  20.544  0.00  0.00    +0.000 C 
ATOM     21  C   UNL     1       1.814  12.851  20.762  0.00  0.00    +0.000 C 
BRANCH  19  22
ATOM     22  C   UNL     1       1.484  15.816  19.774  0.00  0.00    +0.000 C 
BRANCH  22  23
ATOM     23  C   UNL     1       0.982  16.714  18.665  0.00  0.00    +0.000 A 
ATOM     24  C   UNL     1      -0.391  16.974  18.539  0.00  0.00    +0.000 A 
ATOM     25  C   UNL     1      -0.865  17.845  17.556  0.00  0.00    +0.000 A 
ATOM     26  C   UNL     1       0.028  18.476  16.695  0.00  0.00    +0.000 A 
ATOM     27  C   UNL     1       1.395  18.228  16.810  0.00  0.00    +0.000 A 
ATOM     28  C   UNL     1       1.869  17.349  17.787  0.00  0.00    +0.000 A 
ENDBRANCH  22  23
ENDBRANCH  19  22
ENDBRANCH   1  16
TORSDOF 6
ENDMDL
