MODEL 1
REMARK VINA RESULT:      -6.6      0.000      0.000
REMARK  Name = 
REMARK  7 active torsions:
REMARK  status: ('A' for Active; 'I' for Inactive)
REMARK    1  A    between atoms: C_1  and  O_2
REMARK    2  A    between atoms: O_2  and  C_3
REMARK    3  A    between atoms: C_5  and  C_6
REMARK    4  A    between atoms: C_9  and  N_10
REMARK    5  A    between atoms: C_11  and  O_12
REMARK    6  A    between atoms: O_12  and  C_13
REMARK    7  A    between atoms: C_15  and  C_16
REMARK                            x       y       z     vdW  Elec       q    Type
REMARK                         _______ _______ _______ _____ _____    ______ ____
ROOT
ATOM      1  C   UNL     1       2.909   3.478  18.395  0.00  0.00    +0.000 A 
ATOM      2  C   UNL     1       3.880   3.864  17.469  0.00  0.00    +0.000 A 
ATOM      3  C   UNL     1       4.204   5.203  17.122  0.00  0.00    +0.000 A 
ATOM      4  C   UNL     1       3.440   6.183  17.792  0.00  0.00    +0.000 A 
ATOM      5  C   UNL     1       2.465   5.811  18.742  0.00  0.00    +0.000 A 
ATOM      6  C   UNL     1       2.179   4.475  19.048  0.00  0.00    +0.000 A 
ATOM      7  C   UNL     1       1.095   4.124  20.017  0.00  0.00    +0.000 C 
ENDROOT
BRANCH   3   8
ATOM      8  C   UNL     1       5.305   5.424  15.972  0.00  0.00    +0.000 C 
ATOM      9  C   UNL     1       5.556   4.270  14.925  0.00  0.00    +0.000 C 
ATOM     10  C   UNL     1       6.976   4.839  14.761  0.00  0.00    +0.000 C 
ATOM     11  C   UNL     1       6.851   5.396  16.202  0.00  0.00    +0.000 C 
BRANCH  11  12
ATOM     12  N   UNL     1       7.227   4.339  17.145  0.00  0.00    +0.000 NA
ATOM     13  H   UNL     1       7.077   3.393  16.786  0.00  0.00    +0.000 HD
ATOM     14  H   UNL     1       8.203   4.380  17.432  0.00  0.00    +0.000 HD
ENDBRANCH  11  12
ENDBRANCH   3   8
BRANCH   1  16
ATOM     15  C   UNL     1       3.656   1.234  18.579  0.00  0.00    +0.000 C 
ATOM     16  O   UNL     1       2.594   2.182  18.687  0.00  0.00    +0.000 OA
ENDBRANCH   1  16
BRANCH   4  17
ATOM     17  O   UNL     1       3.514   7.548  17.690  0.00  0.00    +0.000 OA
ATOM     18  C   UNL     1       2.374   8.341  17.951  0.00  0.00    +0.000 C 
ENDBRANCH   4  17
TORSDOF 4
ENDMDL
MODEL 2
REMARK VINA RESULT:      -6.5      0.949      3.409
REMARK  Name = 
REMARK  7 active torsions:
REMARK  status: ('A' for Active; 'I' for Inactive)
REMARK    1  A    between atoms: C_1  and  O_2
REMARK    2  A    between atoms: O_2  and  C_3
REMARK    3  A    between atoms: C_5  and  C_6
REMARK    4  A    between atoms: C_9  and  N_10
REMARK    5  A    between atoms: C_11  and  O_12
REMARK    6  A    between atoms: O_12  and  C_13
REMARK    7  A    between atoms: C_15  and  C_16
REMARK                            x       y       z     vdW  Elec       q    Type
REMARK                         _______ _______ _______ _____ _____    ______ ____
ROOT
ATOM      1  C   UNL     1       2.797   6.649  18.723  0.00  0.00    +0.000 A 
ATOM      2  C   UNL     1       3.695   6.575  17.656  0.00  0.00    +0.000 A 
ATOM      3  C   UNL     1       4.267   5.381  17.140  0.00  0.00    +0.000 A 
ATOM      4  C   UNL     1       3.868   4.204  17.809  0.00  0.00    +0.000 A 
ATOM      5  C   UNL     1       2.950   4.259  18.879  0.00  0.00    +0.000 A 
ATOM      6  C   UNL     1       2.415   5.462  19.354  0.00  0.00    +0.000 A 
ATOM      7  C   UNL     1       1.491   5.481  20.531  0.00  0.00    +0.000 C 
ENDROOT
BRANCH   3   8
ATOM      8  C   UNL     1       5.342   5.529  15.954  0.00  0.00    +0.000 C 
ATOM      9  C   UNL     1       5.447   4.384  14.873  0.00  0.00    +0.000 C 
ATOM     10  C   UNL     1       6.907   4.823  14.668  0.00  0.00    +0.000 C 
ATOM     11  C   UNL     1       6.886   5.352  16.125  0.00  0.00    +0.000 C 
BRANCH  11  12
ATOM     12  N   UNL     1       7.194   4.240  17.029  0.00  0.00    +0.000 NA
ATOM     13  H   UNL     1       6.388   3.651  17.250  0.00  0.00    +0.000 HD
ATOM     14  H   UNL     1       7.910   3.611  16.668  0.00  0.00    +0.000 HD
ENDBRANCH  11  12
ENDBRANCH   3   8
BRANCH   1  16
ATOM     15  C   UNL     1       1.930   8.809  18.261  0.00  0.00    +0.000 C 
ATOM     16  O   UNL     1       2.286   7.813  19.221  0.00  0.00    +0.000 OA
ENDBRANCH   1  16
BRANCH   4  17
ATOM     17  O   UNL     1       4.227   2.906  17.551  0.00  0.00    +0.000 OA
ATOM     18  C   UNL     1       3.479   1.841  18.101  0.00  0.00    +0.000 C 
ENDBRANCH   4  17
TORSDOF 4
ENDMDL
MODEL 3
REMARK VINA RESULT:      -6.4      2.356      4.722
REMARK  Name = 
REMARK  7 active torsions:
REMARK  status: ('A' for Active; 'I' for Inactive)
REMARK    1  A    between atoms: C_1  and  O_2
REMARK    2  A    between atoms: O_2  and  C_3
REMARK    3  A    between atoms: C_5  and  C_6
REMARK    4  A    between atoms: C_9  and  N_10
REMARK    5  A    between atoms: C_11  and  O_12
REMARK    6  A    between atoms: O_12  and  C_13
REMARK    7  A    between atoms: C_15  and  C_16
REMARK                            x       y       z     vdW  Elec       q    Type
REMARK                         _______ _______ _______ _____ _____    ______ ____
ROOT
ATOM      1  C   UNL     1       5.975   4.932  16.424  0.00  0.00    +0.000 A 
ATOM      2  C   UNL     1       4.853   4.125  16.625  0.00  0.00    +0.000 A 
ATOM      3  C   UNL     1       3.908   4.272  17.676  0.00  0.00    +0.000 A 
ATOM      4  C   UNL     1       4.185   5.331  18.567  0.00  0.00    +0.000 A 
ATOM      5  C   UNL     1       5.306   6.165  18.371  0.00  0.00    +0.000 A 
ATOM      6  C   UNL     1       6.211   5.978  17.320  0.00  0.00    +0.000 A 
ATOM      7  C   UNL     1       7.420   6.848  17.183  0.00  0.00    +0.000 C 
ENDROOT
BRANCH   3   8
ATOM      8  C   UNL     1       2.729   3.184  17.768  0.00  0.00    +0.000 C 
ATOM      9  C   UNL     1       1.279   3.662  18.166  0.00  0.00    +0.000 C 
ATOM     10  C   UNL     1       1.043   2.238  18.698  0.00  0.00    +0.000 C 
ATOM     11  C   UNL     1       2.574   2.135  18.917  0.00  0.00    +0.000 C 
BRANCH  11  12
ATOM     12  N   UNL     1       2.899   2.724  20.219  0.00  0.00    +0.000 NA
ATOM     13  H   UNL     1       3.870   2.583  20.506  0.00  0.00    +0.000 HD
ATOM     14  H   UNL     1       2.737   3.729  20.261  0.00  0.00    +0.000 HD
ENDBRANCH  11  12
ENDBRANCH   3   8
BRANCH   1  16
ATOM     15  C   UNL     1       6.406   4.110  14.240  0.00  0.00    +0.000 C 
ATOM     16  O   UNL     1       6.886   4.749  15.424  0.00  0.00    +0.000 OA
ENDBRANCH   1  16
BRANCH   4  17
ATOM     17  O   UNL     1       3.470   5.738  19.665  0.00  0.00    +0.000 OA
ATOM     18  C   UNL     1       2.521   6.779  19.547  0.00  0.00    +0.000 C 
ENDBRANCH   4  17
TORSDOF 4
ENDMDL
MODEL 4
REMARK VINA RESULT:      -6.3      2.100      3.122
REMARK  Name = 
REMARK  7 active torsions:
REMARK  status: ('A' for Active; 'I' for Inactive)
REMARK    1  A    between atoms: C_1  and  O_2
REMARK    2  A    between atoms: O_2  and  C_3
REMARK    3  A    between atoms: C_5  and  C_6
REMARK    4  A    between atoms: C_9  and  N_10
REMARK    5  A    between atoms: C_11  and  O_12
REMARK    6  A    between atoms: O_12  and  C_13
REMARK    7  A    between atoms: C_15  and  C_16
REMARK                            x       y       z     vdW  Elec       q    Type
REMARK                         _______ _______ _______ _____ _____    ______ ____
ROOT
ATOM      1  C   UNL     1       2.638   4.120  19.508  0.00  0.00    +0.000 A 
ATOM      2  C   UNL     1       3.753   4.959  19.484  0.00  0.00    +0.000 A 
ATOM      3  C   UNL     1       4.771   4.952  18.493  0.00  0.00    +0.000 A 
ATOM      4  C   UNL     1       4.593   3.987  17.478  0.00  0.00    +0.000 A 
ATOM      5  C   UNL     1       3.465   3.140  17.479  0.00  0.00    +0.000 A 
ATOM      6  C   UNL     1       2.488   3.184  18.481  0.00  0.00    +0.000 A 
ATOM      7  C   UNL     1       1.338   2.226  18.476  0.00  0.00    +0.000 C 
ENDROOT
BRANCH   3   8
ATOM      8  C   UNL     1       6.012   5.953  18.699  0.00  0.00    +0.000 C 
ATOM      9  C   UNL     1       6.527   6.794  17.467  0.00  0.00    +0.000 C 
ATOM     10  C   UNL     1       7.897   6.827  18.166  0.00  0.00    +0.000 C 
ATOM     11  C   UNL     1       7.499   5.503  18.868  0.00  0.00    +0.000 C 
BRANCH  11  12
ATOM     12  N   UNL     1       7.819   4.387  17.974  0.00  0.00    +0.000 NA
ATOM     13  H   UNL     1       7.153   3.613  18.023  0.00  0.00    +0.000 HD
ATOM     14  H   UNL     1       7.867   4.656  16.992  0.00  0.00    +0.000 HD
ENDBRANCH  11  12
ENDBRANCH   3   8
BRANCH   1  16
ATOM     15  C   UNL     1       2.044   3.476  21.713  0.00  0.00    +0.000 C 
ATOM     16  O   UNL     1       1.690   4.124  20.490  0.00  0.00    +0.000 OA
ENDBRANCH   1  16
BRANCH   4  17
ATOM     17  O   UNL     1       5.383   3.734  16.386  0.00  0.00    +0.000 OA
ATOM     18  C   UNL     1       5.198   4.470  15.193  0.00  0.00    +0.000 C 
ENDBRANCH   4  17
TORSDOF 4
ENDMDL
MODEL 5
REMARK VINA RESULT:      -6.3      1.901      2.252
REMARK  Name = 
REMARK  7 active torsions:
REMARK  status: ('A' for Active; 'I' for Inactive)
REMARK    1  A    between atoms: C_1  and  O_2
REMARK    2  A    between atoms: O_2  and  C_3
REMARK    3  A    between atoms: C_5  and  C_6
REMARK    4  A    between atoms: C_9  and  N_10
REMARK    5  A    between atoms: C_11  and  O_12
REMARK    6  A    between atoms: O_12  and  C_13
REMARK    7  A    between atoms: C_15  and  C_16
REMARK                            x       y       z     vdW  Elec       q    Type
REMARK                         _______ _______ _______ _____ _____    ______ ____
ROOT
ATOM      1  C   UNL     1       2.194   4.064  18.529  0.00  0.00    +0.000 A 
ATOM      2  C   UNL     1       3.050   3.868  17.443  0.00  0.00    +0.000 A 
ATOM      3  C   UNL     1       4.328   4.466  17.282  0.00  0.00    +0.000 A 
ATOM      4  C   UNL     1       4.708   5.329  18.332  0.00  0.00    +0.000 A 
ATOM      5  C   UNL     1       3.862   5.527  19.444  0.00  0.00    +0.000 A 
ATOM      6  C   UNL     1       2.607   4.916  19.556  0.00  0.00    +0.000 A 
ATOM      7  C   UNL     1       1.715   5.201  20.723  0.00  0.00    +0.000 C 
ENDROOT
BRANCH   3   8
ATOM      8  C   UNL     1       5.119   4.165  15.915  0.00  0.00    +0.000 C 
ATOM      9  C   UNL     1       6.694   4.076  15.948  0.00  0.00    +0.000 C 
ATOM     10  C   UNL     1       6.667   4.495  14.467  0.00  0.00    +0.000 C 
ATOM     11  C   UNL     1       5.315   5.196  14.756  0.00  0.00    +0.000 C 
BRANCH  11  12
ATOM     12  N   UNL     1       5.589   6.537  15.281  0.00  0.00    +0.000 NA
ATOM     13  H   UNL     1       6.557   6.840  15.155  0.00  0.00    +0.000 HD
ATOM     14  H   UNL     1       5.010   7.262  14.860  0.00  0.00    +0.000 HD
ENDBRANCH  11  12
ENDBRANCH   3   8
BRANCH   1  16
ATOM     15  C   UNL     1       0.918   2.092  18.865  0.00  0.00    +0.000 C 
ATOM     16  O   UNL     1       0.955   3.502  18.645  0.00  0.00    +0.000 OA
ENDBRANCH   1  16
BRANCH   4  17
ATOM     17  O   UNL     1       5.870   6.042  18.481  0.00  0.00    +0.000 OA
ATOM     18  C   UNL     1       6.905   5.546  19.304  0.00  0.00    +0.000 C 
ENDBRANCH   4  17
TORSDOF 4
ENDMDL
MODEL 6
REMARK VINA RESULT:      -6.2      1.764      2.124
REMARK  Name = 
REMARK  7 active torsions:
REMARK  status: ('A' for Active; 'I' for Inactive)
REMARK    1  A    between atoms: C_1  and  O_2
REMARK    2  A    between atoms: O_2  and  C_3
REMARK    3  A    between atoms: C_5  and  C_6
REMARK    4  A    between atoms: C_9  and  N_10
REMARK    5  A    between atoms: C_11  and  O_12
REMARK    6  A    between atoms: O_12  and  C_13
REMARK    7  A    between atoms: C_15  and  C_16
REMARK                            x       y       z     vdW  Elec       q    Type
REMARK                         _______ _______ _______ _____ _____    ______ ____
ROOT
ATOM      1  C   UNL     1       2.683   4.292  18.319  0.00  0.00    +0.000 A 
ATOM      2  C   UNL     1       3.451   4.418  17.160  0.00  0.00    +0.000 A 
ATOM      3  C   UNL     1       4.731   5.029  17.080  0.00  0.00    +0.000 A 
ATOM      4  C   UNL     1       5.211   5.545  18.303  0.00  0.00    +0.000 A 
ATOM      5  C   UNL     1       4.455   5.413  19.487  0.00  0.00    +0.000 A 
ATOM      6  C   UNL     1       3.195   4.804  19.514  0.00  0.00    +0.000 A 
ATOM      7  C   UNL     1       2.400   4.739  20.780  0.00  0.00    +0.000 C 
ENDROOT
BRANCH   3   8
ATOM      8  C   UNL     1       5.410   5.138  15.626  0.00  0.00    +0.000 C 
ATOM      9  C   UNL     1       5.482   3.848  14.720  0.00  0.00    +0.000 C 
ATOM     10  C   UNL     1       6.710   4.487  14.050  0.00  0.00    +0.000 C 
ATOM     11  C   UNL     1       6.947   5.265  15.370  0.00  0.00    +0.000 C 
BRANCH  11  12
ATOM     12  N   UNL     1       7.709   4.411  16.284  0.00  0.00    +0.000 NA
ATOM     13  H   UNL     1       7.328   3.467  16.382  0.00  0.00    +0.000 HD
ATOM     14  H   UNL     1       8.683   4.294  16.011  0.00  0.00    +0.000 HD
ENDBRANCH  11  12
ENDBRANCH   3   8
BRANCH   1  16
ATOM     15  C   UNL     1       1.395   2.309  18.513  0.00  0.00    +0.000 C 
ATOM     16  O   UNL     1       1.441   3.729  18.363  0.00  0.00    +0.000 OA
ENDBRANCH   1  16
BRANCH   4  17
ATOM     17  O   UNL     1       6.401   6.176  18.561  0.00  0.00    +0.000 OA
ATOM     18  C   UNL     1       7.312   5.620  19.487  0.00  0.00    +0.000 C 
ENDBRANCH   4  17
TORSDOF 4
ENDMDL
MODEL 7
REMARK VINA RESULT:      -6.2      2.058      5.482
REMARK  Name = 
REMARK  7 active torsions:
REMARK  status: ('A' for Active; 'I' for Inactive)
REMARK    1  A    between atoms: C_1  and  O_2
REMARK    2  A    between atoms: O_2  and  C_3
REMARK    3  A    between atoms: C_5  and  C_6
REMARK    4  A    between atoms: C_9  and  N_10
REMARK    5  A    between atoms: C_11  and  O_12
REMARK    6  A    between atoms: O_12  and  C_13
REMARK    7  A    between atoms: C_15  and  C_16
REMARK                            x       y       z     vdW  Elec       q    Type
REMARK                         _______ _______ _______ _____ _____    ______ ____
ROOT
ATOM      1  C   UNL     1       5.613   6.109  16.712  0.00  0.00    +0.000 A 
ATOM      2  C   UNL     1       4.515   6.310  17.551  0.00  0.00    +0.000 A 
ATOM      3  C   UNL     1       3.504   5.352  17.830  0.00  0.00    +0.000 A 
ATOM      4  C   UNL     1       3.668   4.117  17.168  0.00  0.00    +0.000 A 
ATOM      5  C   UNL     1       4.780   3.892  16.328  0.00  0.00    +0.000 A 
ATOM      6  C   UNL     1       5.750   4.870  16.081  0.00  0.00    +0.000 A 
ATOM      7  C   UNL     1       6.880   4.610  15.136  0.00  0.00    +0.000 C 
ENDROOT
BRANCH   3   8
ATOM      8  C   UNL     1       2.282   5.817  18.766  0.00  0.00    +0.000 C 
ATOM      9  C   UNL     1       2.442   7.124  19.637  0.00  0.00    +0.000 C 
ATOM     10  C   UNL     1       1.410   6.512  20.599  0.00  0.00    +0.000 C 
ATOM     11  C   UNL     1       1.867   5.117  20.101  0.00  0.00    +0.000 C 
BRANCH  11  12
ATOM     12  N   UNL     1       3.044   4.709  20.873  0.00  0.00    +0.000 NA
ATOM     13  H   UNL     1       2.831   4.076  21.648  0.00  0.00    +0.000 HD
ATOM     14  H   UNL     1       3.753   4.239  20.313  0.00  0.00    +0.000 HD
ENDBRANCH  11  12
ENDBRANCH   3   8
BRANCH   1  16
ATOM     15  C   UNL     1       7.425   7.418  17.507  0.00  0.00    +0.000 C 
ATOM     16  O   UNL     1       6.554   7.058  16.434  0.00  0.00    +0.000 OA
ENDBRANCH   1  16
BRANCH   4  17
ATOM     17  O   UNL     1       2.881   2.996  17.233  0.00  0.00    +0.000 OA
ATOM     18  C   UNL     1       3.194   1.963  18.146  0.00  0.00    +0.000 C 
ENDBRANCH   4  17
TORSDOF 4
ENDMDL
MODEL 8
REMARK VINA RESULT:      -6.2      1.625      3.596
REMARK  Name = 
REMARK  7 active torsions:
REMARK  status: ('A' for Active; 'I' for Inactive)
REMARK    1  A    between atoms: C_1  and  O_2
REMARK    2  A    between atoms: O_2  and  C_3
REMARK    3  A    between atoms: C_5  and  C_6
REMARK    4  A    between atoms: C_9  and  N_10
REMARK    5  A    between atoms: C_11  and  O_12
REMARK    6  A    between atoms: O_12  and  C_13
REMARK    7  A    between atoms: C_15  and  C_16
REMARK                            x       y       z     vdW  Elec       q    Type
REMARK                         _______ _______ _______ _____ _____    ______ ____
ROOT
ATOM      1  C   UNL     1       2.712   6.893  18.808  0.00  0.00    +0.000 A 
ATOM      2  C   UNL     1       3.762   6.688  17.910  0.00  0.00    +0.000 A 
ATOM      3  C   UNL     1       4.667   5.594  17.934  0.00  0.00    +0.000 A 
ATOM      4  C   UNL     1       4.446   4.674  18.982  0.00  0.00    +0.000 A 
ATOM      5  C   UNL     1       3.381   4.858  19.890  0.00  0.00    +0.000 A 
ATOM      6  C   UNL     1       2.516   5.957  19.826  0.00  0.00    +0.000 A 
ATOM      7  C   UNL     1       1.436   6.145  20.845  0.00  0.00    +0.000 C 
ENDROOT
BRANCH   3   8
ATOM      8  C   UNL     1       5.854   5.591  16.851  0.00  0.00    +0.000 C 
ATOM      9  C   UNL     1       5.498   5.799  15.328  0.00  0.00    +0.000 C 
ATOM     10  C   UNL     1       6.782   5.015  15.005  0.00  0.00    +0.000 C 
ATOM     11  C   UNL     1       6.625   4.315  16.379  0.00  0.00    +0.000 C 
BRANCH  11  12
ATOM     12  N   UNL     1       5.717   3.177  16.220  0.00  0.00    +0.000 NA
ATOM     13  H   UNL     1       5.230   3.158  15.321  0.00  0.00    +0.000 HD
ATOM     14  H   UNL     1       6.180   2.274  16.308  0.00  0.00    +0.000 HD
ENDBRANCH  11  12
ENDBRANCH   3   8
BRANCH   1  16
ATOM     15  C   UNL     1       2.134   8.949  17.773  0.00  0.00    +0.000 C 
ATOM     16  O   UNL     1       1.875   7.972  18.782  0.00  0.00    +0.000 OA
ENDBRANCH   1  16
BRANCH   4  17
ATOM     17  O   UNL     1       5.129   3.521  19.272  0.00  0.00    +0.000 OA
ATOM     18  C   UNL     1       4.442   2.403  19.796  0.00  0.00    +0.000 C 
ENDBRANCH   4  17
TORSDOF 4
ENDMDL
MODEL 9
REMARK VINA RESULT:      -6.1      2.142      4.548
REMARK  Name = 
REMARK  7 active torsions:
REMARK  status: ('A' for Active; 'I' for Inactive)
REMARK    1  A    between atoms: C_1  and  O_2
REMARK    2  A    between atoms: O_2  and  C_3
REMARK    3  A    between atoms: C_5  and  C_6
REMARK    4  A    between atoms: C_9  and  N_10
REMARK    5  A    between atoms: C_11  and  O_12
REMARK    6  A    between atoms: O_12  and  C_13
REMARK    7  A    between atoms: C_15  and  C_16
REMARK                            x       y       z     vdW  Elec       q    Type
REMARK                         _______ _______ _______ _____ _____    ______ ____
ROOT
ATOM      1  C   UNL     1       5.648   5.008  16.817  0.00  0.00    +0.000 A 
ATOM      2  C   UNL     1       4.469   4.275  16.972  0.00  0.00    +0.000 A 
ATOM      3  C   UNL     1       3.256   4.769  17.520  0.00  0.00    +0.000 A 
ATOM      4  C   UNL     1       3.308   6.116  17.938  0.00  0.00    +0.000 A 
ATOM      5  C   UNL     1       4.486   6.876  17.776  0.00  0.00    +0.000 A 
ATOM      6  C   UNL     1       5.660   6.343  17.232  0.00  0.00    +0.000 A 
ATOM      7  C   UNL     1       6.905   7.167  17.134  0.00  0.00    +0.000 C 
ENDROOT
BRANCH   3   8
ATOM      8  C   UNL     1       2.039   3.731  17.679  0.00  0.00    +0.000 C 
ATOM      9  C   UNL     1       1.198   3.739  19.014  0.00  0.00    +0.000 C 
ATOM     10  C   UNL     1       0.878   2.262  18.726  0.00  0.00    +0.000 C 
ATOM     11  C   UNL     1       2.205   2.196  17.927  0.00  0.00    +0.000 C 
BRANCH  11  12
ATOM     12  N   UNL     1       3.300   1.928  18.864  0.00  0.00    +0.000 NA
ATOM     13  H   UNL     1       3.104   1.171  19.523  0.00  0.00    +0.000 HD
ATOM     14  H   UNL     1       4.175   1.681  18.405  0.00  0.00    +0.000 HD
ENDBRANCH  11  12
ENDBRANCH   3   8
BRANCH   1  16
ATOM     15  C   UNL     1       6.840   4.253  14.910  0.00  0.00    +0.000 C 
ATOM     16  O   UNL     1       6.812   4.500  16.317  0.00  0.00    +0.000 OA
ENDBRANCH   1  16
BRANCH   4  17
ATOM     17  O   UNL     1       2.314   6.883  18.492  0.00  0.00    +0.000 OA
ATOM     18  C   UNL     1       2.296   7.120  19.885  0.00  0.00    +0.000 C 
ENDBRANCH   4  17
TORSDOF 4
ENDMDL
