MODEL 1
REMARK VINA RESULT:      -6.7      0.000      0.000
REMARK  Name = 
REMARK  6 active torsions:
REMARK  status: ('A' for Active; 'I' for Inactive)
REMARK    1  A    between atoms: C_1  and  C_2
REMARK    2  A    between atoms: C_2  and  O_3
REMARK    3  A    between atoms: O_3  and  C_4
REMARK    4  A    between atoms: C_4  and  N_5
REMARK    5  A    between atoms: C_6  and  N_7
REMARK    6  A    between atoms: C_8  and  C_9
REMARK                            x       y       z     vdW  Elec       q    Type
REMARK                         _______ _______ _______ _____ _____    ______ ____
ROOT
ATOM      1  N   UNL     1       4.492   5.554  17.195  0.00  0.00    +0.000 N 
ATOM      2  C   UNL     1       4.739   4.215  17.350  0.00  0.00    +0.000 A 
ATOM      3  C   UNL     1       4.041   3.752  18.465  0.00  0.00    +0.000 A 
ATOM      4  C   UNL     1       3.335   4.890  18.996  0.00  0.00    +0.000 A 
ATOM      5  C   UNL     1       2.491   5.179  20.086  0.00  0.00    +0.000 A 
ATOM      6  N   UNL     1       2.100   4.256  21.066  0.00  0.00    +0.000 N 
ATOM      7  N   UNL     1       1.989   6.416  20.233  0.00  0.00    +0.000 NA
ATOM      8  C   UNL     1       2.315   7.350  19.325  0.00  0.00    +0.000 A 
ATOM      9  N   UNL     1       3.135   7.222  18.277  0.00  0.00    +0.000 NA
ATOM     10  C   UNL     1       3.617   5.970  18.162  0.00  0.00    +0.000 A 
ATOM     11  H   UNL     1       1.596   3.487  20.627  0.00  0.00    +0.000 HD
ATOM     12  H   UNL     1       1.470   4.770  21.686  0.00  0.00    +0.000 HD
ENDROOT
BRANCH   3  13
ATOM     13  C   UNL     1       4.104   2.358  18.904  0.00  0.00    +0.000 C 
ATOM     14  N   UNL     1       4.860   2.080  19.996  0.00  0.00    +0.000 N 
ATOM     15  O   UNL     1       3.534   1.427  18.321  0.00  0.00    +0.000 OA
ATOM     16  H   UNL     1       5.660   2.683  20.190  0.00  0.00    +0.000 HD
ATOM     17  H   UNL     1       4.987   1.092  20.176  0.00  0.00    +0.000 HD
ENDBRANCH   3  13
BRANCH   2  18
ATOM     18  N   UNL     1       5.543   3.534  16.512  0.00  0.00    +0.000 N 
ATOM     19  H   UNL     1       6.444   3.149  16.785  0.00  0.00    +0.000 HD
ATOM     20  H   UNL     1       5.156   3.140  15.650  0.00  0.00    +0.000 HD
ENDBRANCH   2  18
BRANCH   1  21
ATOM     21  C   UNL     1       5.083   6.427  16.192  0.00  0.00    +0.000 C 
BRANCH  21  22
ATOM     22  O   UNL     1       6.502   6.357  16.315  0.00  0.00    +0.000 OA
BRANCH  22  24
ATOM     23  C   UNL     1       7.663   6.376  18.385  0.00  0.00    +0.000 C 
ATOM     24  C   UNL     1       7.003   7.227  17.318  0.00  0.00    +0.000 C 
ENDBRANCH  22  24
ENDBRANCH  21  22
ENDBRANCH   1  21
TORSDOF 5
ENDMDL
MODEL 2
REMARK VINA RESULT:      -6.3      1.938      3.850
REMARK  Name = 
REMARK  6 active torsions:
REMARK  status: ('A' for Active; 'I' for Inactive)
REMARK    1  A    between atoms: C_1  and  C_2
REMARK    2  A    between atoms: C_2  and  O_3
REMARK    3  A    between atoms: O_3  and  C_4
REMARK    4  A    between atoms: C_4  and  N_5
REMARK    5  A    between atoms: C_6  and  N_7
REMARK    6  A    between atoms: C_8  and  C_9
REMARK                            x       y       z     vdW  Elec       q    Type
REMARK                         _______ _______ _______ _____ _____    ______ ____
ROOT
ATOM      1  N   UNL     1       3.147   6.238  19.001  0.00  0.00    +0.000 N 
ATOM      2  C   UNL     1       4.181   6.080  18.115  0.00  0.00    +0.000 A 
ATOM      3  C   UNL     1       4.735   4.813  18.288  0.00  0.00    +0.000 A 
ATOM      4  C   UNL     1       3.976   4.183  19.338  0.00  0.00    +0.000 A 
ATOM      5  C   UNL     1       3.983   2.964  20.043  0.00  0.00    +0.000 A 
ATOM      6  N   UNL     1       4.903   1.925  19.844  0.00  0.00    +0.000 N 
ATOM      7  N   UNL     1       3.049   2.729  20.980  0.00  0.00    +0.000 NA
ATOM      8  C   UNL     1       2.129   3.677  21.218  0.00  0.00    +0.000 A 
ATOM      9  N   UNL     1       2.038   4.888  20.656  0.00  0.00    +0.000 NA
ATOM     10  C   UNL     1       2.988   5.086  19.724  0.00  0.00    +0.000 A 
ATOM     11  H   UNL     1       4.839   1.594  18.883  0.00  0.00    +0.000 HD
ATOM     12  H   UNL     1       4.614   1.181  20.483  0.00  0.00    +0.000 HD
ENDROOT
BRANCH   3  13
ATOM     13  C   UNL     1       5.869   4.341  17.494  0.00  0.00    +0.000 C 
ATOM     14  N   UNL     1       7.066   4.220  18.122  0.00  0.00    +0.000 N 
ATOM     15  O   UNL     1       5.800   4.076  16.286  0.00  0.00    +0.000 OA
ATOM     16  H   UNL     1       7.256   4.837  18.912  0.00  0.00    +0.000 HD
ATOM     17  H   UNL     1       7.845   4.028  17.505  0.00  0.00    +0.000 HD
ENDBRANCH   3  13
BRANCH   2  18
ATOM     18  N   UNL     1       4.537   7.050  17.252  0.00  0.00    +0.000 N 
ATOM     19  H   UNL     1       5.294   6.956  16.580  0.00  0.00    +0.000 HD
ATOM     20  H   UNL     1       3.882   7.811  17.051  0.00  0.00    +0.000 HD
ENDBRANCH   2  18
BRANCH   1  21
ATOM     21  C   UNL     1       2.351   7.442  19.190  0.00  0.00    +0.000 C 
BRANCH  21  22
ATOM     22  O   UNL     1       1.952   7.922  17.907  0.00  0.00    +0.000 OA
BRANCH  22  24
ATOM     23  C   UNL     1       0.967   9.704  19.126  0.00  0.00    +0.000 C 
ATOM     24  C   UNL     1       1.760   9.327  17.890  0.00  0.00    +0.000 C 
ENDBRANCH  22  24
ENDBRANCH  21  22
ENDBRANCH   1  21
TORSDOF 5
ENDMDL
MODEL 3
REMARK VINA RESULT:      -6.3      1.869      3.531
REMARK  Name = 
REMARK  6 active torsions:
REMARK  status: ('A' for Active; 'I' for Inactive)
REMARK    1  A    between atoms: C_1  and  C_2
REMARK    2  A    between atoms: C_2  and  O_3
REMARK    3  A    between atoms: O_3  and  C_4
REMARK    4  A    between atoms: C_4  and  N_5
REMARK    5  A    between atoms: C_6  and  N_7
REMARK    6  A    between atoms: C_8  and  C_9
REMARK                            x       y       z     vdW  Elec       q    Type
REMARK                         _______ _______ _______ _____ _____    ______ ____
ROOT
ATOM      1  N   UNL     1       4.425   4.715  17.287  0.00  0.00    +0.000 N 
ATOM      2  C   UNL     1       4.052   5.967  17.700  0.00  0.00    +0.000 A 
ATOM      3  C   UNL     1       2.998   5.851  18.604  0.00  0.00    +0.000 A 
ATOM      4  C   UNL     1       2.737   4.440  18.737  0.00  0.00    +0.000 A 
ATOM      5  C   UNL     1       1.832   3.607  19.421  0.00  0.00    +0.000 A 
ATOM      6  N   UNL     1       0.802   4.055  20.259  0.00  0.00    +0.000 N 
ATOM      7  N   UNL     1       1.932   2.272  19.301  0.00  0.00    +0.000 NA
ATOM      8  C   UNL     1       2.903   1.771  18.521  0.00  0.00    +0.000 A 
ATOM      9  N   UNL     1       3.793   2.447  17.786  0.00  0.00    +0.000 NA
ATOM     10  C   UNL     1       3.662   3.778  17.932  0.00  0.00    +0.000 A 
ATOM     11  H   UNL     1       1.199   4.587  21.031  0.00  0.00    +0.000 HD
ATOM     12  H   UNL     1       0.357   3.208  20.619  0.00  0.00    +0.000 HD
ENDROOT
BRANCH   3  13
ATOM     13  C   UNL     1       2.367   7.017  19.223  0.00  0.00    +0.000 C 
ATOM     14  N   UNL     1       2.219   7.005  20.572  0.00  0.00    +0.000 N 
ATOM     15  O   UNL     1       1.940   7.988  18.585  0.00  0.00    +0.000 OA
ATOM     16  H   UNL     1       2.119   6.102  21.034  0.00  0.00    +0.000 HD
ATOM     17  H   UNL     1       1.654   7.762  20.937  0.00  0.00    +0.000 HD
ENDBRANCH   3  13
BRANCH   2  18
ATOM     18  N   UNL     1       4.662   7.079  17.248  0.00  0.00    +0.000 N 
ATOM     19  H   UNL     1       4.188   7.970  17.123  0.00  0.00    +0.000 HD
ATOM     20  H   UNL     1       5.684   7.142  17.279  0.00  0.00    +0.000 HD
ENDBRANCH   2  18
BRANCH   1  21
ATOM     21  C   UNL     1       5.442   4.403  16.294  0.00  0.00    +0.000 C 
BRANCH  21  22
ATOM     22  O   UNL     1       6.606   5.172  16.587  0.00  0.00    +0.000 OA
BRANCH  22  24
ATOM     23  C   UNL     1       7.666   5.580  18.671  0.00  0.00    +0.000 C 
ATOM     24  C   UNL     1       7.425   4.563  17.573  0.00  0.00    +0.000 C 
ENDBRANCH  22  24
ENDBRANCH  21  22
ENDBRANCH   1  21
TORSDOF 5
ENDMDL
MODEL 4
REMARK VINA RESULT:      -6.3      1.701      2.312
REMARK  Name = 
REMARK  6 active torsions:
REMARK  status: ('A' for Active; 'I' for Inactive)
REMARK    1  A    between atoms: C_1  and  C_2
REMARK    2  A    between atoms: C_2  and  O_3
REMARK    3  A    between atoms: O_3  and  C_4
REMARK    4  A    between atoms: C_4  and  N_5
REMARK    5  A    between atoms: C_6  and  N_7
REMARK    6  A    between atoms: C_8  and  C_9
REMARK                            x       y       z     vdW  Elec       q    Type
REMARK                         _______ _______ _______ _____ _____    ______ ____
ROOT
ATOM      1  N   UNL     1       4.424   4.310  18.257  0.00  0.00    +0.000 N 
ATOM      2  C   UNL     1       3.958   3.371  19.140  0.00  0.00    +0.000 A 
ATOM      3  C   UNL     1       2.999   3.959  19.963  0.00  0.00    +0.000 A 
ATOM      4  C   UNL     1       2.889   5.330  19.533  0.00  0.00    +0.000 A 
ATOM      5  C   UNL     1       2.176   6.486  19.906  0.00  0.00    +0.000 A 
ATOM      6  N   UNL     1       1.270   6.563  20.972  0.00  0.00    +0.000 N 
ATOM      7  N   UNL     1       2.336   7.623  19.208  0.00  0.00    +0.000 NA
ATOM      8  C   UNL     1       3.183   7.621  18.166  0.00  0.00    +0.000 A 
ATOM      9  N   UNL     1       3.949   6.612  17.737  0.00  0.00    +0.000 NA
ATOM     10  C   UNL     1       3.761   5.491  18.459  0.00  0.00    +0.000 A 
ATOM     11  H   UNL     1       0.507   5.905  20.819  0.00  0.00    +0.000 HD
ATOM     12  H   UNL     1       0.907   7.519  20.951  0.00  0.00    +0.000 HD
ENDROOT
BRANCH   3  13
ATOM     13  C   UNL     1       2.315   3.217  21.022  0.00  0.00    +0.000 C 
ATOM     14  N   UNL     1       0.961   3.150  20.964  0.00  0.00    +0.000 N 
ATOM     15  O   UNL     1       2.898   2.677  21.970  0.00  0.00    +0.000 OA
ATOM     16  H   UNL     1       0.462   3.920  20.517  0.00  0.00    +0.000 HD
ATOM     17  H   UNL     1       0.526   2.751  21.787  0.00  0.00    +0.000 HD
ENDBRANCH   3  13
BRANCH   2  18
ATOM     18  N   UNL     1       4.414   2.104  19.143  0.00  0.00    +0.000 N 
ATOM     19  H   UNL     1       4.558   1.559  19.989  0.00  0.00    +0.000 HD
ATOM     20  H   UNL     1       4.367   1.550  18.283  0.00  0.00    +0.000 HD
ENDBRANCH   2  18
BRANCH   1  21
ATOM     21  C   UNL     1       5.480   4.119  17.275  0.00  0.00    +0.000 C 
BRANCH  21  22
ATOM     22  O   UNL     1       6.732   4.108  17.959  0.00  0.00    +0.000 OA
BRANCH  22  24
ATOM     23  C   UNL     1       7.766   5.878  19.156  0.00  0.00    +0.000 C 
ATOM     24  C   UNL     1       7.456   5.315  17.783  0.00  0.00    +0.000 C 
ENDBRANCH  22  24
ENDBRANCH  21  22
ENDBRANCH   1  21
TORSDOF 5
ENDMDL
MODEL 5
REMARK VINA RESULT:      -6.3      1.792      2.512
REMARK  Name = 
REMARK  6 active torsions:
REMARK  status: ('A' for Active; 'I' for Inactive)
REMARK    1  A    between atoms: C_1  and  C_2
REMARK    2  A    between atoms: C_2  and  O_3
REMARK    3  A    between atoms: O_3  and  C_4
REMARK    4  A    between atoms: C_4  and  N_5
REMARK    5  A    between atoms: C_6  and  N_7
REMARK    6  A    between atoms: C_8  and  C_9
REMARK                            x       y       z     vdW  Elec       q    Type
REMARK                         _______ _______ _______ _____ _____    ______ ____
ROOT
ATOM      1  N   UNL     1       4.098   4.015  17.756  0.00  0.00    +0.000 N 
ATOM      2  C   UNL     1       3.672   3.115  18.698  0.00  0.00    +0.000 A 
ATOM      3  C   UNL     1       2.921   3.787  19.660  0.00  0.00    +0.000 A 
ATOM      4  C   UNL     1       2.897   5.170  19.257  0.00  0.00    +0.000 A 
ATOM      5  C   UNL     1       2.382   6.388  19.738  0.00  0.00    +0.000 A 
ATOM      6  N   UNL     1       1.664   6.542  20.932  0.00  0.00    +0.000 N 
ATOM      7  N   UNL     1       2.557   7.515  19.027  0.00  0.00    +0.000 NA
ATOM      8  C   UNL     1       3.228   7.442  17.867  0.00  0.00    +0.000 A 
ATOM      9  N   UNL     1       3.805   6.364  17.322  0.00  0.00    +0.000 NA
ATOM     10  C   UNL     1       3.607   5.257  18.061  0.00  0.00    +0.000 A 
ATOM     11  H   UNL     1       0.819   5.973  20.896  0.00  0.00    +0.000 HD
ATOM     12  H   UNL     1       1.409   7.532  20.970  0.00  0.00    +0.000 HD
ENDROOT
BRANCH   3  13
ATOM     13  C   UNL     1       2.330   3.102  20.810  0.00  0.00    +0.000 C 
ATOM     14  N   UNL     1       0.977   3.110  20.915  0.00  0.00    +0.000 N 
ATOM     15  O   UNL     1       2.993   2.546  21.695  0.00  0.00    +0.000 OA
ATOM     16  H   UNL     1       0.470   3.898  20.512  0.00  0.00    +0.000 HD
ATOM     17  H   UNL     1       0.623   2.750  21.792  0.00  0.00    +0.000 HD
ENDBRANCH   3  13
BRANCH   2  18
ATOM     18  N   UNL     1       3.981   1.806  18.626  0.00  0.00    +0.000 N 
ATOM     19  H   UNL     1       4.893   1.429  18.872  0.00  0.00    +0.000 HD
ATOM     20  H   UNL     1       3.230   1.112  18.589  0.00  0.00    +0.000 HD
ENDBRANCH   2  18
BRANCH   1  21
ATOM     21  C   UNL     1       4.964   3.730  16.622  0.00  0.00    +0.000 C 
BRANCH  21  22
ATOM     22  O   UNL     1       6.279   4.180  16.938  0.00  0.00    +0.000 OA
BRANCH  22  24
ATOM     23  C   UNL     1       6.259   4.377  14.573  0.00  0.00    +0.000 C 
ATOM     24  C   UNL     1       6.890   4.871  15.860  0.00  0.00    +0.000 C 
ENDBRANCH  22  24
ENDBRANCH  21  22
ENDBRANCH   1  21
TORSDOF 5
ENDMDL
MODEL 6
REMARK VINA RESULT:      -6.2      2.123      3.760
REMARK  Name = 
REMARK  6 active torsions:
REMARK  status: ('A' for Active; 'I' for Inactive)
REMARK    1  A    between atoms: C_1  and  C_2
REMARK    2  A    between atoms: C_2  and  O_3
REMARK    3  A    between atoms: O_3  and  C_4
REMARK    4  A    between atoms: C_4  and  N_5
REMARK    5  A    between atoms: C_6  and  N_7
REMARK    6  A    between atoms: C_8  and  C_9
REMARK                            x       y       z     vdW  Elec       q    Type
REMARK                         _______ _______ _______ _____ _____    ______ ____
ROOT
ATOM      1  N   UNL     1       4.092   4.469  17.161  0.00  0.00    +0.000 N 
ATOM      2  C   UNL     1       3.865   5.762  17.554  0.00  0.00    +0.000 A 
ATOM      3  C   UNL     1       2.879   5.769  18.540  0.00  0.00    +0.000 A 
ATOM      4  C   UNL     1       2.506   4.392  18.744  0.00  0.00    +0.000 A 
ATOM      5  C   UNL     1       1.589   3.665  19.525  0.00  0.00    +0.000 A 
ATOM      6  N   UNL     1       0.671   4.230  20.422  0.00  0.00    +0.000 N 
ATOM      7  N   UNL     1       1.561   2.324  19.448  0.00  0.00    +0.000 NA
ATOM      8  C   UNL     1       2.419   1.713  18.616  0.00  0.00    +0.000 A 
ATOM      9  N   UNL     1       3.304   2.284  17.790  0.00  0.00    +0.000 NA
ATOM     10  C   UNL     1       3.303   3.626  17.897  0.00  0.00    +0.000 A 
ATOM     11  H   UNL     1       1.173   4.747  21.142  0.00  0.00    +0.000 HD
ATOM     12  H   UNL     1       0.183   3.437  20.846  0.00  0.00    +0.000 HD
ENDROOT
BRANCH   3  13
ATOM     13  C   UNL     1       2.403   7.005  19.161  0.00  0.00    +0.000 C 
ATOM     14  N   UNL     1       2.320   7.032  20.515  0.00  0.00    +0.000 N 
ATOM     15  O   UNL     1       2.051   8.005  18.522  0.00  0.00    +0.000 OA
ATOM     16  H   UNL     1       2.148   6.152  21.002  0.00  0.00    +0.000 HD
ATOM     17  H   UNL     1       1.855   7.850  20.889  0.00  0.00    +0.000 HD
ENDBRANCH   3  13
BRANCH   2  18
ATOM     18  N   UNL     1       4.533   6.800  17.017  0.00  0.00    +0.000 N 
ATOM     19  H   UNL     1       4.732   6.888  16.023  0.00  0.00    +0.000 HD
ATOM     20  H   UNL     1       4.621   7.672  17.547  0.00  0.00    +0.000 HD
ENDBRANCH   2  18
BRANCH   1  21
ATOM     21  C   UNL     1       4.996   4.037  16.106  0.00  0.00    +0.000 C 
BRANCH  21  22
ATOM     22  O   UNL     1       6.315   4.463  16.443  0.00  0.00    +0.000 OA
BRANCH  22  24
ATOM     23  C   UNL     1       6.370   4.230  14.081  0.00  0.00    +0.000 C 
ATOM     24  C   UNL     1       7.093   4.772  15.298  0.00  0.00    +0.000 C 
ENDBRANCH  22  24
ENDBRANCH  21  22
ENDBRANCH   1  21
TORSDOF 5
ENDMDL
MODEL 7
REMARK VINA RESULT:      -6.2      1.774      4.469
REMARK  Name = 
REMARK  6 active torsions:
REMARK  status: ('A' for Active; 'I' for Inactive)
REMARK    1  A    between atoms: C_1  and  C_2
REMARK    2  A    between atoms: C_2  and  O_3
REMARK    3  A    between atoms: O_3  and  C_4
REMARK    4  A    between atoms: C_4  and  N_5
REMARK    5  A    between atoms: C_6  and  N_7
REMARK    6  A    between atoms: C_8  and  C_9
REMARK                            x       y       z     vdW  Elec       q    Type
REMARK                         _______ _______ _______ _____ _____    ______ ____
ROOT
ATOM      1  N   UNL     1       3.611   4.576  19.799  0.00  0.00    +0.000 N 
ATOM      2  C   UNL     1       4.710   3.932  19.294  0.00  0.00    +0.000 A 
ATOM      3  C   UNL     1       5.213   4.668  18.223  0.00  0.00    +0.000 A 
ATOM      4  C   UNL     1       4.360   5.822  18.093  0.00  0.00    +0.000 A 
ATOM      5  C   UNL     1       4.240   6.941  17.247  0.00  0.00    +0.000 A 
ATOM      6  N   UNL     1       5.068   7.210  16.149  0.00  0.00    +0.000 N 
ATOM      7  N   UNL     1       3.282   7.854  17.478  0.00  0.00    +0.000 NA
ATOM      8  C   UNL     1       2.457   7.665  18.520  0.00  0.00    +0.000 A 
ATOM      9  N   UNL     1       2.433   6.630  19.368  0.00  0.00    +0.000 NA
ATOM     10  C   UNL     1       3.407   5.739  19.106  0.00  0.00    +0.000 A 
ATOM     11  H   UNL     1       6.032   7.307  16.464  0.00  0.00    +0.000 HD
ATOM     12  H   UNL     1       4.739   8.103  15.774  0.00  0.00    +0.000 HD
ENDROOT
BRANCH   3  13
ATOM     13  C   UNL     1       6.386   4.238  17.461  0.00  0.00    +0.000 C 
ATOM     14  N   UNL     1       6.173   3.730  16.220  0.00  0.00    +0.000 N 
ATOM     15  O   UNL     1       7.544   4.287  17.894  0.00  0.00    +0.000 OA
ATOM     16  H   UNL     1       5.284   3.263  16.040  0.00  0.00    +0.000 HD
ATOM     17  H   UNL     1       6.992   3.318  15.791  0.00  0.00    +0.000 HD
ENDBRANCH   3  13
BRANCH   2  18
ATOM     18  N   UNL     1       5.160   2.773  19.811  0.00  0.00    +0.000 N 
ATOM     19  H   UNL     1       6.059   2.676  20.277  0.00  0.00    +0.000 HD
ATOM     20  H   UNL     1       4.498   2.016  20.002  0.00  0.00    +0.000 HD
ENDBRANCH   2  18
BRANCH   1  21
ATOM     21  C   UNL     1       2.756   4.102  20.877  0.00  0.00    +0.000 C 
BRANCH  21  22
ATOM     22  O   UNL     1       2.276   2.804  20.533  0.00  0.00    +0.000 OA
BRANCH  22  24
ATOM     23  C   UNL     1       0.952   2.412  18.603  0.00  0.00    +0.000 C 
ATOM     24  C   UNL     1       0.939   2.827  20.061  0.00  0.00    +0.000 C 
ENDBRANCH  22  24
ENDBRANCH  21  22
ENDBRANCH   1  21
TORSDOF 5
ENDMDL
MODEL 8
REMARK VINA RESULT:      -6.1      0.956      1.012
REMARK  Name = 
REMARK  6 active torsions:
REMARK  status: ('A' for Active; 'I' for Inactive)
REMARK    1  A    between atoms: C_1  and  C_2
REMARK    2  A    between atoms: C_2  and  O_3
REMARK    3  A    between atoms: O_3  and  C_4
REMARK    4  A    between atoms: C_4  and  N_5
REMARK    5  A    between atoms: C_6  and  N_7
REMARK    6  A    between atoms: C_8  and  C_9
REMARK                            x       y       z     vdW  Elec       q    Type
REMARK                         _______ _______ _______ _____ _____    ______ ____
ROOT
ATOM      1  N   UNL     1       4.632   5.585  18.133  0.00  0.00    +0.000 N 
ATOM      2  C   UNL     1       4.949   4.251  18.126  0.00  0.00    +0.000 A 
ATOM      3  C   UNL     1       4.103   3.581  19.007  0.00  0.00    +0.000 A 
ATOM      4  C   UNL     1       3.230   4.582  19.565  0.00  0.00    +0.000 A 
ATOM      5  C   UNL     1       2.188   4.647  20.510  0.00  0.00    +0.000 A 
ATOM      6  N   UNL     1       1.702   3.560  21.248  0.00  0.00    +0.000 N 
ATOM      7  N   UNL     1       1.575   5.819  20.748  0.00  0.00    +0.000 NA
ATOM      8  C   UNL     1       1.982   6.904  20.069  0.00  0.00    +0.000 A 
ATOM      9  N   UNL     1       2.983   6.987  19.184  0.00  0.00    +0.000 NA
ATOM     10  C   UNL     1       3.571   5.795  18.973  0.00  0.00    +0.000 A 
ATOM     11  H   UNL     1       1.343   2.850  20.611  0.00  0.00    +0.000 HD
ATOM     12  H   UNL     1       0.934   3.935  21.810  0.00  0.00    +0.000 HD
ENDROOT
BRANCH   3  13
ATOM     13  C   UNL     1       4.194   2.138  19.233  0.00  0.00    +0.000 C 
ATOM     14  N   UNL     1       5.026   1.710  20.216  0.00  0.00    +0.000 N 
ATOM     15  O   UNL     1       3.581   1.297  18.563  0.00  0.00    +0.000 OA
ATOM     16  H   UNL     1       5.840   2.284  20.438  0.00  0.00    +0.000 HD
ATOM     17  H   UNL     1       5.163   0.708  20.241  0.00  0.00    +0.000 HD
ENDBRANCH   3  13
BRANCH   2  18
ATOM     18  N   UNL     1       5.938   3.756  17.358  0.00  0.00    +0.000 N 
ATOM     19  H   UNL     1       6.325   4.244  16.554  0.00  0.00    +0.000 HD
ATOM     20  H   UNL     1       6.525   2.999  17.719  0.00  0.00    +0.000 HD
ENDBRANCH   2  18
BRANCH   1  21
ATOM     21  C   UNL     1       5.322   6.637  17.402  0.00  0.00    +0.000 C 
BRANCH  21  22
ATOM     22  O   UNL     1       6.639   6.764  17.934  0.00  0.00    +0.000 OA
BRANCH  22  24
ATOM     23  C   UNL     1       8.106   8.630  17.905  0.00  0.00    +0.000 C 
ATOM     24  C   UNL     1       7.497   7.509  17.085  0.00  0.00    +0.000 C 
ENDBRANCH  22  24
ENDBRANCH  21  22
ENDBRANCH   1  21
TORSDOF 5
ENDMDL
MODEL 9
REMARK VINA RESULT:      -6.1      2.126      3.976
REMARK  Name = 
REMARK  6 active torsions:
REMARK  status: ('A' for Active; 'I' for Inactive)
REMARK    1  A    between atoms: C_1  and  C_2
REMARK    2  A    between atoms: C_2  and  O_3
REMARK    3  A    between atoms: O_3  and  C_4
REMARK    4  A    between atoms: C_4  and  N_5
REMARK    5  A    between atoms: C_6  and  N_7
REMARK    6  A    between atoms: C_8  and  C_9
REMARK                            x       y       z     vdW  Elec       q    Type
REMARK                         _______ _______ _______ _____ _____    ______ ____
ROOT
ATOM      1  N   UNL     1       3.092   5.980  18.374  0.00  0.00    +0.000 N 
ATOM      2  C   UNL     1       4.218   5.903  17.595  0.00  0.00    +0.000 A 
ATOM      3  C   UNL     1       4.557   4.563  17.421  0.00  0.00    +0.000 A 
ATOM      4  C   UNL     1       3.566   3.801  18.139  0.00  0.00    +0.000 A 
ATOM      5  C   UNL     1       3.296   2.450  18.426  0.00  0.00    +0.000 A 
ATOM      6  N   UNL     1       4.082   1.367  18.010  0.00  0.00    +0.000 N 
ATOM      7  N   UNL     1       2.207   2.124  19.141  0.00  0.00    +0.000 NA
ATOM      8  C   UNL     1       1.402   3.111  19.566  0.00  0.00    +0.000 A 
ATOM      9  N   UNL     1       1.566   4.429  19.403  0.00  0.00    +0.000 NA
ATOM     10  C   UNL     1       2.666   4.715  18.682  0.00  0.00    +0.000 A 
ATOM     11  H   UNL     1       4.120   1.346  16.992  0.00  0.00    +0.000 HD
ATOM     12  H   UNL     1       3.598   0.533  18.351  0.00  0.00    +0.000 HD
ENDROOT
BRANCH   3  13
ATOM     13  C   UNL     1       5.723   4.147  16.641  0.00  0.00    +0.000 C 
ATOM     14  N   UNL     1       6.931   4.177  17.257  0.00  0.00    +0.000 N 
ATOM     15  O   UNL     1       5.668   3.800  15.454  0.00  0.00    +0.000 OA
ATOM     16  H   UNL     1       7.071   4.857  18.004  0.00  0.00    +0.000 HD
ATOM     17  H   UNL     1       7.719   4.018  16.642  0.00  0.00    +0.000 HD
ENDBRANCH   3  13
BRANCH   2  18
ATOM     18  N   UNL     1       4.833   7.002  17.119  0.00  0.00    +0.000 N 
ATOM     19  H   UNL     1       5.486   6.988  16.340  0.00  0.00    +0.000 HD
ATOM     20  H   UNL     1       4.455   7.927  17.341  0.00  0.00    +0.000 HD
ENDBRANCH   2  18
BRANCH   1  21
ATOM     21  C   UNL     1       2.453   7.199  18.845  0.00  0.00    +0.000 C 
BRANCH  21  22
ATOM     22  O   UNL     1       1.999   7.934  17.711  0.00  0.00    +0.000 OA
BRANCH  22  24
ATOM     23  C   UNL     1       0.619   9.792  18.241  0.00  0.00    +0.000 C 
ATOM     24  C   UNL     1       2.030   9.336  17.925  0.00  0.00    +0.000 C 
ENDBRANCH  22  24
ENDBRANCH  21  22
ENDBRANCH   1  21
TORSDOF 5
ENDMDL
