MODEL 1
REMARK VINA RESULT:      -7.1      0.000      0.000
REMARK  Name = 
REMARK  3 active torsions:
REMARK  status: ('A' for Active; 'I' for Inactive)
REMARK    1  A    between atoms: C_1  and  C_2
REMARK    2  A    between atoms: C_9  and  C_11
REMARK    3  A    between atoms: N_14  and  C_15
REMARK                            x       y       z     vdW  Elec       q    Type
REMARK                         _______ _______ _______ _____ _____    ______ ____
ROOT
ATOM      1  C   UNL     1       8.220   5.521  13.286  0.00  0.00    +0.000 C 
ATOM      2  C   UNL     1       7.028   4.687  13.670  0.00  0.00    +0.000 C 
ATOM      3  O   UNL     1       6.527   3.923  12.845  0.00  0.00    +0.000 OA
ATOM      4  N   UNL     1       6.576   4.761  14.988  0.00  0.00    +0.000 N 
ATOM      5  C   UNL     1       7.034   5.728  15.986  0.00  0.00    +0.000 C 
ATOM      6  C   UNL     1       5.950   6.670  16.512  0.00  0.00    +0.000 C 
ATOM      7  C   UNL     1       4.676   6.074  17.120  0.00  0.00    +0.000 C 
ATOM      8  N   UNL     1       4.680   4.638  17.386  0.00  0.00    +0.000 N 
ATOM      9  C   UNL     1       4.757   4.196  18.706  0.00  0.00    +0.000 C 
ATOM     10  O   UNL     1       4.895   5.015  19.618  0.00  0.00    +0.000 OA
ATOM     11  C   UNL     1       4.562   3.802  16.191  0.00  0.00    +0.000 C 
ATOM     12  C   UNL     1       5.909   3.564  15.500  0.00  0.00    +0.000 C 
ENDROOT
BRANCH   9  13
ATOM     13  C   UNL     1       4.546   2.702  19.055  0.00  0.00    +0.000 C 
ATOM     14  C   UNL     1       3.447   2.066  18.189  0.00  0.00    +0.000 C 
ATOM     15  C   UNL     1       2.068   2.607  18.551  0.00  0.00    +0.000 C 
ATOM     16  N   UNL     1       1.813   2.694  19.983  0.00  0.00    +0.000 N 
ATOM     17  C   UNL     1       0.506   3.177  20.392  0.00  0.00    +0.000 C 
ATOM     18  C   UNL     1       2.816   2.735  20.932  0.00  0.00    +0.000 C 
ATOM     19  O   UNL     1       2.597   2.982  22.120  0.00  0.00    +0.000 OA
ATOM     20  C   UNL     1       4.208   2.352  20.496  0.00  0.00    +0.000 C 
ENDBRANCH   9  13
TORSDOF 1
ENDMDL
MODEL 2
REMARK VINA RESULT:      -7.0      4.567      6.702
REMARK  Name = 
REMARK  3 active torsions:
REMARK  status: ('A' for Active; 'I' for Inactive)
REMARK    1  A    between atoms: C_1  and  C_2
REMARK    2  A    between atoms: C_9  and  C_11
REMARK    3  A    between atoms: N_14  and  C_15
REMARK                            x       y       z     vdW  Elec       q    Type
REMARK                         _______ _______ _______ _____ _____    ______ ____
ROOT
ATOM      1  C   UNL     1      -0.510  11.956  19.776  0.00  0.00    +0.000 C 
ATOM      2  C   UNL     1       0.290  10.984  20.599  0.00  0.00    +0.000 C 
ATOM      3  O   UNL     1       0.554  11.250  21.771  0.00  0.00    +0.000 OA
ATOM      4  N   UNL     1       0.645   9.768  20.013  0.00  0.00    +0.000 N 
ATOM      5  C   UNL     1       0.479   9.430  18.599  0.00  0.00    +0.000 C 
ATOM      6  C   UNL     1       1.780   9.140  17.851  0.00  0.00    +0.000 C 
ATOM      7  C   UNL     1       2.724   8.060  18.389  0.00  0.00    +0.000 C 
ATOM      8  N   UNL     1       2.207   7.198  19.449  0.00  0.00    +0.000 N 
ATOM      9  C   UNL     1       1.888   5.874  19.147  0.00  0.00    +0.000 C 
ATOM     10  O   UNL     1       1.976   5.474  17.984  0.00  0.00    +0.000 OA
ATOM     11  C   UNL     1       2.114   7.842  20.759  0.00  0.00    +0.000 C 
ATOM     12  C   UNL     1       0.820   8.645  20.934  0.00  0.00    +0.000 C 
ENDROOT
BRANCH   9  13
ATOM     13  C   UNL     1       1.545   4.867  20.272  0.00  0.00    +0.000 C 
ATOM     14  C   UNL     1       2.812   4.301  20.934  0.00  0.00    +0.000 C 
ATOM     15  C   UNL     1       3.571   3.377  19.989  0.00  0.00    +0.000 C 
ATOM     16  N   UNL     1       2.729   2.435  19.264  0.00  0.00    +0.000 N 
ATOM     17  C   UNL     1       3.397   1.507  18.367  0.00  0.00    +0.000 C 
ATOM     18  C   UNL     1       1.374   2.620  19.070  0.00  0.00    +0.000 C 
ATOM     19  O   UNL     1       0.708   1.911  18.312  0.00  0.00    +0.000 OA
ATOM     20  C   UNL     1       0.684   3.667  19.909  0.00  0.00    +0.000 C 
ENDBRANCH   9  13
TORSDOF 1
ENDMDL
MODEL 3
REMARK VINA RESULT:      -6.7      3.645      6.825
REMARK  Name = 
REMARK  3 active torsions:
REMARK  status: ('A' for Active; 'I' for Inactive)
REMARK    1  A    between atoms: C_1  and  C_2
REMARK    2  A    between atoms: C_9  and  C_11
REMARK    3  A    between atoms: N_14  and  C_15
REMARK                            x       y       z     vdW  Elec       q    Type
REMARK                         _______ _______ _______ _____ _____    ______ ____
ROOT
ATOM      1  C   UNL     1      -0.174   9.836  21.162  0.00  0.00    +0.000 C 
ATOM      2  C   UNL     1       0.384   9.565  19.791  0.00  0.00    +0.000 C 
ATOM      3  O   UNL     1      -0.011  10.224  18.831  0.00  0.00    +0.000 OA
ATOM      4  N   UNL     1       1.397   8.612  19.675  0.00  0.00    +0.000 N 
ATOM      5  C   UNL     1       1.832   7.706  20.738  0.00  0.00    +0.000 C 
ATOM      6  C   UNL     1       1.636   6.220  20.436  0.00  0.00    +0.000 C 
ATOM      7  C   UNL     1       2.252   5.631  19.162  0.00  0.00    +0.000 C 
ATOM      8  N   UNL     1       3.200   6.472  18.437  0.00  0.00    +0.000 N 
ATOM      9  C   UNL     1       4.557   6.153  18.481  0.00  0.00    +0.000 C 
ATOM     10  O   UNL     1       4.943   5.218  19.186  0.00  0.00    +0.000 OA
ATOM     11  C   UNL     1       2.585   7.572  17.693  0.00  0.00    +0.000 C 
ATOM     12  C   UNL     1       2.329   8.807  18.564  0.00  0.00    +0.000 C 
ENDROOT
BRANCH   9  13
ATOM     13  C   UNL     1       5.571   6.877  17.561  0.00  0.00    +0.000 C 
ATOM     14  C   UNL     1       5.080   6.930  16.105  0.00  0.00    +0.000 C 
ATOM     15  C   UNL     1       5.094   5.549  15.460  0.00  0.00    +0.000 C 
ATOM     16  N   UNL     1       6.300   4.775  15.722  0.00  0.00    +0.000 N 
ATOM     17  C   UNL     1       6.386   3.459  15.112  0.00  0.00    +0.000 C 
ATOM     18  C   UNL     1       7.146   5.023  16.785  0.00  0.00    +0.000 C 
ATOM     19  O   UNL     1       8.063   4.260  17.097  0.00  0.00    +0.000 OA
ATOM     20  C   UNL     1       6.992   6.337  17.510  0.00  0.00    +0.000 C 
ENDBRANCH   9  13
TORSDOF 1
ENDMDL
MODEL 4
REMARK VINA RESULT:      -6.2      2.090      3.018
REMARK  Name = 
REMARK  3 active torsions:
REMARK  status: ('A' for Active; 'I' for Inactive)
REMARK    1  A    between atoms: C_1  and  C_2
REMARK    2  A    between atoms: C_9  and  C_11
REMARK    3  A    between atoms: N_14  and  C_15
REMARK                            x       y       z     vdW  Elec       q    Type
REMARK                         _______ _______ _______ _____ _____    ______ ____
ROOT
ATOM      1  C   UNL     1       7.342   9.298  17.638  0.00  0.00    +0.000 C 
ATOM      2  C   UNL     1       7.668   7.860  17.935  0.00  0.00    +0.000 C 
ATOM      3  O   UNL     1       8.745   7.574  18.456  0.00  0.00    +0.000 OA
ATOM      4  N   UNL     1       6.690   6.900  17.669  0.00  0.00    +0.000 N 
ATOM      5  C   UNL     1       5.444   7.141  16.942  0.00  0.00    +0.000 C 
ATOM      6  C   UNL     1       5.294   6.348  15.643  0.00  0.00    +0.000 C 
ATOM      7  C   UNL     1       5.419   4.821  15.684  0.00  0.00    +0.000 C 
ATOM      8  N   UNL     1       5.427   4.194  17.003  0.00  0.00    +0.000 N 
ATOM      9  C   UNL     1       4.303   3.481  17.419  0.00  0.00    +0.000 C 
ATOM     10  O   UNL     1       3.299   3.451  16.705  0.00  0.00    +0.000 OA
ATOM     11  C   UNL     1       6.676   4.367  17.746  0.00  0.00    +0.000 C 
ATOM     12  C   UNL     1       6.735   5.699  18.503  0.00  0.00    +0.000 C 
ENDROOT
BRANCH   9  13
ATOM     13  C   UNL     1       4.343   2.621  18.706  0.00  0.00    +0.000 C 
ATOM     14  C   UNL     1       3.312   1.481  18.661  0.00  0.00    +0.000 C 
ATOM     15  C   UNL     1       1.886   2.014  18.756  0.00  0.00    +0.000 C 
ATOM     16  N   UNL     1       1.694   3.037  19.774  0.00  0.00    +0.000 N 
ATOM     17  C   UNL     1       0.350   3.566  19.933  0.00  0.00    +0.000 C 
ATOM     18  C   UNL     1       2.725   3.795  20.294  0.00  0.00    +0.000 C 
ATOM     19  O   UNL     1       2.530   4.771  21.023  0.00  0.00    +0.000 OA
ATOM     20  C   UNL     1       4.136   3.327  20.037  0.00  0.00    +0.000 C 
ENDBRANCH   9  13
TORSDOF 1
ENDMDL
MODEL 5
REMARK VINA RESULT:      -6.1      3.107      6.374
REMARK  Name = 
REMARK  3 active torsions:
REMARK  status: ('A' for Active; 'I' for Inactive)
REMARK    1  A    between atoms: C_1  and  C_2
REMARK    2  A    between atoms: C_9  and  C_11
REMARK    3  A    between atoms: N_14  and  C_15
REMARK                            x       y       z     vdW  Elec       q    Type
REMARK                         _______ _______ _______ _____ _____    ______ ____
ROOT
ATOM      1  C   UNL     1       1.406   8.667  21.696  0.00  0.00    +0.000 C 
ATOM      2  C   UNL     1       1.421   8.422  20.211  0.00  0.00    +0.000 C 
ATOM      3  O   UNL     1       0.939   9.261  19.451  0.00  0.00    +0.000 OA
ATOM      4  N   UNL     1       2.056   7.271  19.745  0.00  0.00    +0.000 N 
ATOM      5  C   UNL     1       2.541   6.173  20.583  0.00  0.00    +0.000 C 
ATOM      6  C   UNL     1       1.873   4.823  20.321  0.00  0.00    +0.000 C 
ATOM      7  C   UNL     1       1.886   4.248  18.901  0.00  0.00    +0.000 C 
ATOM      8  N   UNL     1       2.752   4.909  17.928  0.00  0.00    +0.000 N 
ATOM      9  C   UNL     1       3.920   4.267  17.518  0.00  0.00    +0.000 C 
ATOM     10  O   UNL     1       4.240   3.193  18.033  0.00  0.00    +0.000 OA
ATOM     11  C   UNL     1       2.253   6.201  17.456  0.00  0.00    +0.000 C 
ATOM     12  C   UNL     1       2.617   7.356  18.396  0.00  0.00    +0.000 C 
ENDROOT
BRANCH   9  13
ATOM     13  C   UNL     1       4.754   4.820  16.337  0.00  0.00    +0.000 C 
ATOM     14  C   UNL     1       6.102   4.092  16.203  0.00  0.00    +0.000 C 
ATOM     15  C   UNL     1       7.038   4.434  17.357  0.00  0.00    +0.000 C 
ATOM     16  N   UNL     1       7.083   5.851  17.694  0.00  0.00    +0.000 N 
ATOM     17  C   UNL     1       7.979   6.245  18.768  0.00  0.00    +0.000 C 
ATOM     18  C   UNL     1       6.086   6.745  17.358  0.00  0.00    +0.000 C 
ATOM     19  O   UNL     1       6.050   7.897  17.795  0.00  0.00    +0.000 OA
ATOM     20  C   UNL     1       5.072   6.307  16.330  0.00  0.00    +0.000 C 
ENDBRANCH   9  13
TORSDOF 1
ENDMDL
MODEL 6
REMARK VINA RESULT:      -6.0      2.461      2.997
REMARK  Name = 
REMARK  3 active torsions:
REMARK  status: ('A' for Active; 'I' for Inactive)
REMARK    1  A    between atoms: C_1  and  C_2
REMARK    2  A    between atoms: C_9  and  C_11
REMARK    3  A    between atoms: N_14  and  C_15
REMARK                            x       y       z     vdW  Elec       q    Type
REMARK                         _______ _______ _______ _____ _____    ______ ____
ROOT
ATOM      1  C   UNL     1       8.276   6.389  19.097  0.00  0.00    +0.000 C 
ATOM      2  C   UNL     1       7.687   5.247  18.315  0.00  0.00    +0.000 C 
ATOM      3  O   UNL     1       8.426   4.373  17.862  0.00  0.00    +0.000 OA
ATOM      4  N   UNL     1       6.298   5.184  18.194  0.00  0.00    +0.000 N 
ATOM      5  C   UNL     1       5.366   6.240  18.593  0.00  0.00    +0.000 C 
ATOM      6  C   UNL     1       4.538   6.829  17.451  0.00  0.00    +0.000 C 
ATOM      7  C   UNL     1       3.696   5.891  16.580  0.00  0.00    +0.000 C 
ATOM      8  N   UNL     1       3.542   4.516  17.048  0.00  0.00    +0.000 N 
ATOM      9  C   UNL     1       2.310   4.112  17.563  0.00  0.00    +0.000 C 
ATOM     10  O   UNL     1       1.399   4.933  17.685  0.00  0.00    +0.000 OA
ATOM     11  C   UNL     1       4.734   3.684  16.881  0.00  0.00    +0.000 C 
ATOM     12  C   UNL     1       5.734   3.845  18.032  0.00  0.00    +0.000 C 
ENDROOT
BRANCH   9  13
ATOM     13  C   UNL     1       2.031   2.619  17.868  0.00  0.00    +0.000 C 
ATOM     14  C   UNL     1       0.706   2.432  18.625  0.00  0.00    +0.000 C 
ATOM     15  C   UNL     1       0.796   2.968  20.049  0.00  0.00    +0.000 C 
ATOM     16  N   UNL     1       2.017   2.600  20.754  0.00  0.00    +0.000 N 
ATOM     17  C   UNL     1       2.150   3.058  22.126  0.00  0.00    +0.000 C 
ATOM     18  C   UNL     1       3.177   2.213  20.113  0.00  0.00    +0.000 C 
ATOM     19  O   UNL     1       4.249   2.072  20.706  0.00  0.00    +0.000 OA
ATOM     20  C   UNL     1       3.080   1.848  18.652  0.00  0.00    +0.000 C 
ENDBRANCH   9  13
TORSDOF 1
ENDMDL
MODEL 7
REMARK VINA RESULT:      -6.0      1.866      2.925
REMARK  Name = 
REMARK  3 active torsions:
REMARK  status: ('A' for Active; 'I' for Inactive)
REMARK    1  A    between atoms: C_1  and  C_2
REMARK    2  A    between atoms: C_9  and  C_11
REMARK    3  A    between atoms: N_14  and  C_15
REMARK                            x       y       z     vdW  Elec       q    Type
REMARK                         _______ _______ _______ _____ _____    ______ ____
ROOT
ATOM      1  C   UNL     1       6.996   5.143  15.513  0.00  0.00    +0.000 C 
ATOM      2  C   UNL     1       5.587   4.616  15.476  0.00  0.00    +0.000 C 
ATOM      3  O   UNL     1       5.208   3.955  14.510  0.00  0.00    +0.000 OA
ATOM      4  N   UNL     1       4.776   4.841  16.590  0.00  0.00    +0.000 N 
ATOM      5  C   UNL     1       5.108   5.716  17.715  0.00  0.00    +0.000 C 
ATOM      6  C   UNL     1       4.158   6.898  17.910  0.00  0.00    +0.000 C 
ATOM      7  C   UNL     1       2.658   6.630  18.069  0.00  0.00    +0.000 C 
ATOM      8  N   UNL     1       2.252   5.242  18.271  0.00  0.00    +0.000 N 
ATOM      9  C   UNL     1       1.812   4.845  19.534  0.00  0.00    +0.000 C 
ATOM     10  O   UNL     1       1.842   5.645  20.471  0.00  0.00    +0.000 OA
ATOM     11  C   UNL     1       2.326   4.410  17.070  0.00  0.00    +0.000 C 
ATOM     12  C   UNL     1       3.730   3.846  16.825  0.00  0.00    +0.000 C 
ENDROOT
BRANCH   9  13
ATOM     13  C   UNL     1       1.170   3.452  19.746  0.00  0.00    +0.000 C 
ATOM     14  C   UNL     1       1.223   3.019  21.220  0.00  0.00    +0.000 C 
ATOM     15  C   UNL     1       2.650   2.710  21.659  0.00  0.00    +0.000 C 
ATOM     16  N   UNL     1       3.411   1.910  20.709  0.00  0.00    +0.000 N 
ATOM     17  C   UNL     1       4.771   1.558  21.083  0.00  0.00    +0.000 C 
ATOM     18  C   UNL     1       3.090   1.812  19.369  0.00  0.00    +0.000 C 
ATOM     19  O   UNL     1       3.835   1.278  18.544  0.00  0.00    +0.000 OA
ATOM     20  C   UNL     1       1.724   2.287  18.941  0.00  0.00    +0.000 C 
ENDBRANCH   9  13
TORSDOF 1
ENDMDL
MODEL 8
REMARK VINA RESULT:      -5.9      4.107      7.020
REMARK  Name = 
REMARK  3 active torsions:
REMARK  status: ('A' for Active; 'I' for Inactive)
REMARK    1  A    between atoms: C_1  and  C_2
REMARK    2  A    between atoms: C_9  and  C_11
REMARK    3  A    between atoms: N_14  and  C_15
REMARK                            x       y       z     vdW  Elec       q    Type
REMARK                         _______ _______ _______ _____ _____    ______ ____
ROOT
ATOM      1  C   UNL     1      -0.294  10.764  20.814  0.00  0.00    +0.000 C 
ATOM      2  C   UNL     1       0.022  10.123  19.490  0.00  0.00    +0.000 C 
ATOM      3  O   UNL     1      -0.563  10.500  18.475  0.00  0.00    +0.000 OA
ATOM      4  N   UNL     1       1.033   9.163  19.453  0.00  0.00    +0.000 N 
ATOM      5  C   UNL     1       1.685   8.576  20.625  0.00  0.00    +0.000 C 
ATOM      6  C   UNL     1       1.495   7.066  20.776  0.00  0.00    +0.000 C 
ATOM      7  C   UNL     1       1.897   6.145  19.619  0.00  0.00    +0.000 C 
ATOM      8  N   UNL     1       2.669   6.746  18.534  0.00  0.00    +0.000 N 
ATOM      9  C   UNL     1       4.023   6.435  18.416  0.00  0.00    +0.000 C 
ATOM     10  O   UNL     1       4.563   5.723  19.265  0.00  0.00    +0.000 OA
ATOM     11  C   UNL     1       1.890   7.608  17.645  0.00  0.00    +0.000 C 
ATOM     12  C   UNL     1       1.745   9.037  18.182  0.00  0.00    +0.000 C 
ENDROOT
BRANCH   9  13
ATOM     13  C   UNL     1       4.829   6.868  17.167  0.00  0.00    +0.000 C 
ATOM     14  C   UNL     1       5.057   5.694  16.201  0.00  0.00    +0.000 C 
ATOM     15  C   UNL     1       6.024   4.671  16.785  0.00  0.00    +0.000 C 
ATOM     16  N   UNL     1       7.206   5.250  17.410  0.00  0.00    +0.000 N 
ATOM     17  C   UNL     1       8.182   4.324  17.961  0.00  0.00    +0.000 C 
ATOM     18  C   UNL     1       7.268   6.555  17.855  0.00  0.00    +0.000 C 
ATOM     19  O   UNL     1       8.204   6.983  18.535  0.00  0.00    +0.000 OA
ATOM     20  C   UNL     1       6.192   7.505  17.389  0.00  0.00    +0.000 C 
ENDBRANCH   9  13
TORSDOF 1
ENDMDL
MODEL 9
REMARK VINA RESULT:      -5.9      5.062      7.605
REMARK  Name = 
REMARK  3 active torsions:
REMARK  status: ('A' for Active; 'I' for Inactive)
REMARK    1  A    between atoms: C_1  and  C_2
REMARK    2  A    between atoms: C_9  and  C_11
REMARK    3  A    between atoms: N_14  and  C_15
REMARK                            x       y       z     vdW  Elec       q    Type
REMARK                         _______ _______ _______ _____ _____    ______ ____
ROOT
ATOM      1  C   UNL     1      -1.732  11.590  21.626  0.00  0.00    +0.000 C 
ATOM      2  C   UNL     1      -0.611  10.667  22.022  0.00  0.00    +0.000 C 
ATOM      3  O   UNL     1      -0.254  10.610  23.198  0.00  0.00    +0.000 OA
ATOM      4  N   UNL     1      -0.062   9.846  21.036  0.00  0.00    +0.000 N 
ATOM      5  C   UNL     1      -0.343   9.941  19.603  0.00  0.00    +0.000 C 
ATOM      6  C   UNL     1       0.869  10.273  18.732  0.00  0.00    +0.000 C 
ATOM      7  C   UNL     1       2.113   9.382  18.814  0.00  0.00    +0.000 C 
ATOM      8  N   UNL     1       1.976   8.122  19.540  0.00  0.00    +0.000 N 
ATOM      9  C   UNL     1       1.945   6.928  18.820  0.00  0.00    +0.000 C 
ATOM     10  O   UNL     1       1.960   6.956  17.588  0.00  0.00    +0.000 OA
ATOM     11  C   UNL     1       1.919   8.266  20.995  0.00  0.00    +0.000 C 
ATOM     12  C   UNL     1       0.509   8.583  21.505  0.00  0.00    +0.000 C 
ENDROOT
BRANCH   9  13
ATOM     13  C   UNL     1       2.020   5.563  19.547  0.00  0.00    +0.000 C 
ATOM     14  C   UNL     1       3.439   5.269  20.061  0.00  0.00    +0.000 C 
ATOM     15  C   UNL     1       4.404   4.998  18.912  0.00  0.00    +0.000 C 
ATOM     16  N   UNL     1       3.879   4.111  17.883  0.00  0.00    +0.000 N 
ATOM     17  C   UNL     1       4.761   3.791  16.774  0.00  0.00    +0.000 C 
ATOM     18  C   UNL     1       2.530   3.889  17.687  0.00  0.00    +0.000 C 
ATOM     19  O   UNL     1       2.091   3.278  16.710  0.00  0.00    +0.000 OA
ATOM     20  C   UNL     1       1.584   4.326  18.779  0.00  0.00    +0.000 C 
ENDBRANCH   9  13
TORSDOF 1
ENDMDL
