MODEL 1
REMARK VINA RESULT:      -6.9      0.000      0.000
REMARK  Name = 
REMARK  3 active torsions:
REMARK  status: ('A' for Active; 'I' for Inactive)
REMARK    1  A    between atoms: C_1  and  N_2
REMARK    2  A    between atoms: N_2  and  N_3
REMARK    3  A    between atoms: C_8  and  C_9
REMARK                            x       y       z     vdW  Elec       q    Type
REMARK                         _______ _______ _______ _____ _____    ______ ____
ROOT
ATOM      1  C   UNL     1       6.326   3.801  13.267  0.00  0.00    +0.000 C 
ATOM      2  N   UNL     1       6.897   4.656  14.318  0.00  0.00    +0.000 N 
ATOM      3  C   UNL     1       6.292   4.545  15.569  0.00  0.00    +0.000 A 
ATOM      4  N   UNL     1       5.338   3.696  15.877  0.00  0.00    +0.000 NA
ATOM      5  C   UNL     1       5.000   3.848  17.184  0.00  0.00    +0.000 A 
ATOM      6  C   UNL     1       4.178   3.296  18.149  0.00  0.00    +0.000 A 
ATOM      7  N   UNL     1       4.359   3.979  19.375  0.00  0.00    +0.000 NA
ATOM      8  C   UNL     1       5.280   4.898  19.138  0.00  0.00    +0.000 A 
ATOM      9  N   UNL     1       5.661   4.818  17.851  0.00  0.00    +0.000 N 
ATOM     10  S   UNL     1       6.785   5.610  16.944  0.00  0.00    +0.000 S 
ENDROOT
BRANCH   6  11
ATOM     11  C   UNL     1       3.269   2.169  17.994  0.00  0.00    +0.000 C 
ATOM     12  N   UNL     1       3.837   0.964  18.296  0.00  0.00    +0.000 N 
ATOM     13  O   UNL     1       2.106   2.246  17.616  0.00  0.00    +0.000 OA
ATOM     14  H   UNL     1       4.810   0.924  18.571  0.00  0.00    +0.000 HD
ATOM     15  H   UNL     1       3.296   0.122  18.169  0.00  0.00    +0.000 HD
ENDBRANCH   6  11
BRANCH   2  16
ATOM     16  N   UNL     1       7.923   5.524  14.124  0.00  0.00    +0.000 NA
ATOM     17  O   UNL     1       8.179   5.748  12.937  0.00  0.00    +0.000 OA
ENDBRANCH   2  16
TORSDOF 2
ENDMDL
MODEL 2
REMARK VINA RESULT:      -6.8      1.009      1.009
REMARK  Name = 
REMARK  3 active torsions:
REMARK  status: ('A' for Active; 'I' for Inactive)
REMARK    1  A    between atoms: C_1  and  N_2
REMARK    2  A    between atoms: N_2  and  N_3
REMARK    3  A    between atoms: C_8  and  C_9
REMARK                            x       y       z     vdW  Elec       q    Type
REMARK                         _______ _______ _______ _____ _____    ______ ____
ROOT
ATOM      1  C   UNL     1       6.090   3.901  13.751  0.00  0.00    +0.000 C 
ATOM      2  N   UNL     1       6.605   4.752  14.834  0.00  0.00    +0.000 N 
ATOM      3  C   UNL     1       5.818   4.795  15.983  0.00  0.00    +0.000 A 
ATOM      4  N   UNL     1       4.733   4.085  16.186  0.00  0.00    +0.000 NA
ATOM      5  C   UNL     1       4.232   4.360  17.417  0.00  0.00    +0.000 A 
ATOM      6  C   UNL     1       3.218   3.973  18.274  0.00  0.00    +0.000 A 
ATOM      7  N   UNL     1       3.305   4.710  19.478  0.00  0.00    +0.000 NA
ATOM      8  C   UNL     1       4.357   5.499  19.338  0.00  0.00    +0.000 A 
ATOM      9  N   UNL     1       4.906   5.290  18.128  0.00  0.00    +0.000 N 
ATOM     10  S   UNL     1       6.238   5.885  17.364  0.00  0.00    +0.000 S 
ENDROOT
BRANCH   6  11
ATOM     11  C   UNL     1       2.208   2.950  18.039  0.00  0.00    +0.000 C 
ATOM     12  N   UNL     1       2.731   1.720  17.759  0.00  0.00    +0.000 N 
ATOM     13  O   UNL     1       0.997   3.134  18.064  0.00  0.00    +0.000 OA
ATOM     14  H   UNL     1       3.736   1.603  17.709  0.00  0.00    +0.000 HD
ATOM     15  H   UNL     1       2.107   0.961  17.533  0.00  0.00    +0.000 HD
ENDBRANCH   6  11
BRANCH   2  16
ATOM     16  N   UNL     1       7.748   5.481  14.754  0.00  0.00    +0.000 NA
ATOM     17  O   UNL     1       8.161   5.651  13.603  0.00  0.00    +0.000 OA
ENDBRANCH   2  16
TORSDOF 2
ENDMDL
MODEL 3
REMARK VINA RESULT:      -6.6      1.779      5.271
REMARK  Name = 
REMARK  3 active torsions:
REMARK  status: ('A' for Active; 'I' for Inactive)
REMARK    1  A    between atoms: C_1  and  N_2
REMARK    2  A    between atoms: N_2  and  N_3
REMARK    3  A    between atoms: C_8  and  C_9
REMARK                            x       y       z     vdW  Elec       q    Type
REMARK                         _______ _______ _______ _____ _____    ______ ____
ROOT
ATOM      1  C   UNL     1       2.783   2.162  17.761  0.00  0.00    +0.000 C 
ATOM      2  N   UNL     1       3.260   3.229  18.653  0.00  0.00    +0.000 N 
ATOM      3  C   UNL     1       4.324   3.984  18.162  0.00  0.00    +0.000 A 
ATOM      4  N   UNL     1       4.851   3.862  16.965  0.00  0.00    +0.000 NA
ATOM      5  C   UNL     1       5.852   4.767  16.816  0.00  0.00    +0.000 A 
ATOM      6  C   UNL     1       6.749   5.228  15.869  0.00  0.00    +0.000 A 
ATOM      7  N   UNL     1       7.537   6.262  16.424  0.00  0.00    +0.000 NA
ATOM      8  C   UNL     1       7.101   6.418  17.663  0.00  0.00    +0.000 A 
ATOM      9  N   UNL     1       6.107   5.542  17.892  0.00  0.00    +0.000 N 
ATOM     10  S   UNL     1       5.115   5.255  19.176  0.00  0.00    +0.000 S 
ENDROOT
BRANCH   6  11
ATOM     11  C   UNL     1       6.884   4.776  14.490  0.00  0.00    +0.000 C 
ATOM     12  N   UNL     1       6.268   3.583  14.244  0.00  0.00    +0.000 N 
ATOM     13  O   UNL     1       7.495   5.370  13.609  0.00  0.00    +0.000 OA
ATOM     14  H   UNL     1       5.801   3.095  14.998  0.00  0.00    +0.000 HD
ATOM     15  H   UNL     1       6.352   3.168  13.328  0.00  0.00    +0.000 HD
ENDBRANCH   6  11
BRANCH   2  16
ATOM     16  N   UNL     1       2.746   3.482  19.885  0.00  0.00    +0.000 NA
ATOM     17  O   UNL     1       3.042   2.641  20.739  0.00  0.00    +0.000 OA
ENDBRANCH   2  16
TORSDOF 2
ENDMDL
MODEL 4
REMARK VINA RESULT:      -6.6      2.650      3.665
REMARK  Name = 
REMARK  3 active torsions:
REMARK  status: ('A' for Active; 'I' for Inactive)
REMARK    1  A    between atoms: C_1  and  N_2
REMARK    2  A    between atoms: N_2  and  N_3
REMARK    3  A    between atoms: C_8  and  C_9
REMARK                            x       y       z     vdW  Elec       q    Type
REMARK                         _______ _______ _______ _____ _____    ______ ____
ROOT
ATOM      1  C   UNL     1       7.516   5.664  19.219  0.00  0.00    +0.000 C 
ATOM      2  N   UNL     1       6.912   5.135  17.987  0.00  0.00    +0.000 N 
ATOM      3  C   UNL     1       5.658   4.549  18.143  0.00  0.00    +0.000 A 
ATOM      4  N   UNL     1       4.970   4.516  19.261  0.00  0.00    +0.000 NA
ATOM      5  C   UNL     1       3.786   3.887  19.049  0.00  0.00    +0.000 A 
ATOM      6  C   UNL     1       2.612   3.561  19.703  0.00  0.00    +0.000 A 
ATOM      7  N   UNL     1       1.747   2.877  18.817  0.00  0.00    +0.000 NA
ATOM      8  C   UNL     1       2.392   2.820  17.664  0.00  0.00    +0.000 A 
ATOM      9  N   UNL     1       3.589   3.418  17.798  0.00  0.00    +0.000 N 
ATOM     10  S   UNL     1       4.825   3.738  16.758  0.00  0.00    +0.000 S 
ENDROOT
BRANCH   6  11
ATOM     11  C   UNL     1       2.255   3.873  21.081  0.00  0.00    +0.000 C 
ATOM     12  N   UNL     1       2.361   5.200  21.384  0.00  0.00    +0.000 N 
ATOM     13  O   UNL     1       1.903   3.055  21.922  0.00  0.00    +0.000 OA
ATOM     14  H   UNL     1       2.689   5.851  20.680  0.00  0.00    +0.000 HD
ATOM     15  H   UNL     1       2.182   5.503  22.329  0.00  0.00    +0.000 HD
ENDBRANCH   6  11
BRANCH   2  16
ATOM     16  N   UNL     1       7.509   5.171  16.767  0.00  0.00    +0.000 NA
ATOM     17  O   UNL     1       7.584   6.300  16.273  0.00  0.00    +0.000 OA
ENDBRANCH   2  16
TORSDOF 2
ENDMDL
MODEL 5
REMARK VINA RESULT:      -6.5      2.676      5.869
REMARK  Name = 
REMARK  3 active torsions:
REMARK  status: ('A' for Active; 'I' for Inactive)
REMARK    1  A    between atoms: C_1  and  N_2
REMARK    2  A    between atoms: N_2  and  N_3
REMARK    3  A    between atoms: C_8  and  C_9
REMARK                            x       y       z     vdW  Elec       q    Type
REMARK                         _______ _______ _______ _____ _____    ______ ____
ROOT
ATOM      1  C   UNL     1       2.480   4.705  20.762  0.00  0.00    +0.000 C 
ATOM      2  N   UNL     1       2.567   3.993  19.479  0.00  0.00    +0.000 N 
ATOM      3  C   UNL     1       3.736   4.215  18.753  0.00  0.00    +0.000 A 
ATOM      4  N   UNL     1       4.761   4.925  19.165  0.00  0.00    +0.000 NA
ATOM      5  C   UNL     1       5.733   4.914  18.217  0.00  0.00    +0.000 A 
ATOM      6  C   UNL     1       7.023   5.361  17.998  0.00  0.00    +0.000 A 
ATOM      7  N   UNL     1       7.458   4.949  16.717  0.00  0.00    +0.000 NA
ATOM      8  C   UNL     1       6.453   4.260  16.203  0.00  0.00    +0.000 A 
ATOM      9  N   UNL     1       5.439   4.235  17.087  0.00  0.00    +0.000 N 
ATOM     10  S   UNL     1       3.957   3.518  17.099  0.00  0.00    +0.000 S 
ENDROOT
BRANCH   6  11
ATOM     11  C   UNL     1       7.862   6.116  18.919  0.00  0.00    +0.000 C 
ATOM     12  N   UNL     1       8.073   5.482  20.110  0.00  0.00    +0.000 N 
ATOM     13  O   UNL     1       8.340   7.222  18.695  0.00  0.00    +0.000 OA
ATOM     14  H   UNL     1       7.637   4.584  20.284  0.00  0.00    +0.000 HD
ATOM     15  H   UNL     1       8.602   5.952  20.828  0.00  0.00    +0.000 HD
ENDBRANCH   6  11
BRANCH   2  16
ATOM     16  N   UNL     1       1.593   3.186  18.985  0.00  0.00    +0.000 NA
ATOM     17  O   UNL     1       1.575   2.054  19.477  0.00  0.00    +0.000 OA
ENDBRANCH   2  16
TORSDOF 2
ENDMDL
MODEL 6
REMARK VINA RESULT:      -6.5      1.853      1.971
REMARK  Name = 
REMARK  3 active torsions:
REMARK  status: ('A' for Active; 'I' for Inactive)
REMARK    1  A    between atoms: C_1  and  N_2
REMARK    2  A    between atoms: N_2  and  N_3
REMARK    3  A    between atoms: C_8  and  C_9
REMARK                            x       y       z     vdW  Elec       q    Type
REMARK                         _______ _______ _______ _____ _____    ______ ____
ROOT
ATOM      1  C   UNL     1       6.100   3.584  14.882  0.00  0.00    +0.000 C 
ATOM      2  N   UNL     1       6.158   4.743  15.784  0.00  0.00    +0.000 N 
ATOM      3  C   UNL     1       5.124   4.824  16.715  0.00  0.00    +0.000 A 
ATOM      4  N   UNL     1       4.186   3.921  16.887  0.00  0.00    +0.000 NA
ATOM      5  C   UNL     1       3.358   4.311  17.890  0.00  0.00    +0.000 A 
ATOM      6  C   UNL     1       2.265   3.868  18.612  0.00  0.00    +0.000 A 
ATOM      7  N   UNL     1       1.909   4.837  19.579  0.00  0.00    +0.000 NA
ATOM      8  C   UNL     1       2.784   5.818  19.440  0.00  0.00    +0.000 A 
ATOM      9  N   UNL     1       3.639   5.507  18.450  0.00  0.00    +0.000 N 
ATOM     10  S   UNL     1       4.970   6.247  17.821  0.00  0.00    +0.000 S 
ENDROOT
BRANCH   6  11
ATOM     11  C   UNL     1       1.567   2.597  18.464  0.00  0.00    +0.000 C 
ATOM     12  N   UNL     1       2.366   1.585  18.013  0.00  0.00    +0.000 N 
ATOM     13  O   UNL     1       0.378   2.413  18.695  0.00  0.00    +0.000 OA
ATOM     14  H   UNL     1       3.337   1.773  17.795  0.00  0.00    +0.000 HD
ATOM     15  H   UNL     1       1.957   0.681  17.833  0.00  0.00    +0.000 HD
ENDBRANCH   6  11
BRANCH   2  16
ATOM     16  N   UNL     1       7.117   5.704  15.734  0.00  0.00    +0.000 NA
ATOM     17  O   UNL     1       7.848   5.638  14.743  0.00  0.00    +0.000 OA
ENDBRANCH   2  16
TORSDOF 2
ENDMDL
MODEL 7
REMARK VINA RESULT:      -6.4      2.797      3.368
REMARK  Name = 
REMARK  3 active torsions:
REMARK  status: ('A' for Active; 'I' for Inactive)
REMARK    1  A    between atoms: C_1  and  N_2
REMARK    2  A    between atoms: N_2  and  N_3
REMARK    3  A    between atoms: C_8  and  C_9
REMARK                            x       y       z     vdW  Elec       q    Type
REMARK                         _______ _______ _______ _____ _____    ______ ____
ROOT
ATOM      1  C   UNL     1       8.041   6.103  19.020  0.00  0.00    +0.000 C 
ATOM      2  N   UNL     1       7.064   6.168  17.923  0.00  0.00    +0.000 N 
ATOM      3  C   UNL     1       6.004   5.268  18.016  0.00  0.00    +0.000 A 
ATOM      4  N   UNL     1       5.784   4.458  19.025  0.00  0.00    +0.000 NA
ATOM      5  C   UNL     1       4.655   3.739  18.794  0.00  0.00    +0.000 A 
ATOM      6  C   UNL     1       3.835   2.805  19.400  0.00  0.00    +0.000 A 
ATOM      7  N   UNL     1       2.756   2.490  18.540  0.00  0.00    +0.000 NA
ATOM      8  C   UNL     1       2.930   3.236  17.462  0.00  0.00    +0.000 A 
ATOM      9  N   UNL     1       4.044   3.975  17.613  0.00  0.00    +0.000 N 
ATOM     10  S   UNL     1       4.779   5.126  16.693  0.00  0.00    +0.000 S 
ENDROOT
BRANCH   6  11
ATOM     11  C   UNL     1       3.991   2.224  20.727  0.00  0.00    +0.000 C 
ATOM     12  N   UNL     1       5.176   1.568  20.899  0.00  0.00    +0.000 N 
ATOM     13  O   UNL     1       3.160   2.282  21.625  0.00  0.00    +0.000 OA
ATOM     14  H   UNL     1       5.830   1.504  20.128  0.00  0.00    +0.000 HD
ATOM     15  H   UNL     1       5.350   1.091  21.770  0.00  0.00    +0.000 HD
ENDBRANCH   6  11
BRANCH   2  16
ATOM     16  N   UNL     1       7.162   7.011  16.862  0.00  0.00    +0.000 NA
ATOM     17  O   UNL     1       7.760   8.063  17.104  0.00  0.00    +0.000 OA
ENDBRANCH   2  16
TORSDOF 2
ENDMDL
MODEL 8
REMARK VINA RESULT:      -6.4      2.760      5.858
REMARK  Name = 
REMARK  3 active torsions:
REMARK  status: ('A' for Active; 'I' for Inactive)
REMARK    1  A    between atoms: C_1  and  N_2
REMARK    2  A    between atoms: N_2  and  N_3
REMARK    3  A    between atoms: C_8  and  C_9
REMARK                            x       y       z     vdW  Elec       q    Type
REMARK                         _______ _______ _______ _____ _____    ______ ____
ROOT
ATOM      1  C   UNL     1       4.793   1.781  20.530  0.00  0.00    +0.000 C 
ATOM      2  N   UNL     1       3.702   2.748  20.338  0.00  0.00    +0.000 N 
ATOM      3  C   UNL     1       3.991   3.810  19.484  0.00  0.00    +0.000 A 
ATOM      4  N   UNL     1       5.102   3.951  18.799  0.00  0.00    +0.000 NA
ATOM      5  C   UNL     1       5.038   5.086  18.056  0.00  0.00    +0.000 A 
ATOM      6  C   UNL     1       5.761   5.794  17.114  0.00  0.00    +0.000 A 
ATOM      7  N   UNL     1       5.043   6.952  16.734  0.00  0.00    +0.000 NA
ATOM      8  C   UNL     1       3.916   6.915  17.424  0.00  0.00    +0.000 A 
ATOM      9  N   UNL     1       3.910   5.815  18.198  0.00  0.00    +0.000 N 
ATOM     10  S   UNL     1       2.809   5.155  19.230  0.00  0.00    +0.000 S 
ENDROOT
BRANCH   6  11
ATOM     11  C   UNL     1       7.053   5.435  16.543  0.00  0.00    +0.000 C 
ATOM     12  N   UNL     1       7.639   4.361  17.150  0.00  0.00    +0.000 N 
ATOM     13  O   UNL     1       7.604   6.021  15.618  0.00  0.00    +0.000 OA
ATOM     14  H   UNL     1       7.179   3.917  17.935  0.00  0.00    +0.000 HD
ATOM     15  H   UNL     1       8.558   4.072  16.853  0.00  0.00    +0.000 HD
ENDBRANCH   6  11
BRANCH   2  16
ATOM     16  N   UNL     1       2.491   2.664  20.948  0.00  0.00    +0.000 NA
ATOM     17  O   UNL     1       2.532   2.794  22.175  0.00  0.00    +0.000 OA
ENDBRANCH   2  16
TORSDOF 2
ENDMDL
MODEL 9
REMARK VINA RESULT:      -6.4      2.403      5.512
REMARK  Name = 
REMARK  3 active torsions:
REMARK  status: ('A' for Active; 'I' for Inactive)
REMARK    1  A    between atoms: C_1  and  N_2
REMARK    2  A    between atoms: N_2  and  N_3
REMARK    3  A    between atoms: C_8  and  C_9
REMARK                            x       y       z     vdW  Elec       q    Type
REMARK                         _______ _______ _______ _____ _____    ______ ____
ROOT
ATOM      1  C   UNL     1       3.200   1.411  18.627  0.00  0.00    +0.000 C 
ATOM      2  N   UNL     1       2.503   2.704  18.595  0.00  0.00    +0.000 N 
ATOM      3  C   UNL     1       3.260   3.777  18.129  0.00  0.00    +0.000 A 
ATOM      4  N   UNL     1       4.481   3.694  17.654  0.00  0.00    +0.000 NA
ATOM      5  C   UNL     1       4.906   4.926  17.273  0.00  0.00    +0.000 A 
ATOM      6  C   UNL     1       5.984   5.550  16.672  0.00  0.00    +0.000 A 
ATOM      7  N   UNL     1       5.730   6.938  16.563  0.00  0.00    +0.000 NA
ATOM      8  C   UNL     1       4.523   7.120  17.071  0.00  0.00    +0.000 A 
ATOM      9  N   UNL     1       4.036   5.937  17.485  0.00  0.00    +0.000 N 
ATOM     10  S   UNL     1       2.601   5.462  18.139  0.00  0.00    +0.000 S 
ENDROOT
BRANCH   6  11
ATOM     11  C   UNL     1       7.204   4.923  16.181  0.00  0.00    +0.000 C 
ATOM     12  N   UNL     1       7.457   5.179  14.863  0.00  0.00    +0.000 N 
ATOM     13  O   UNL     1       7.951   4.215  16.845  0.00  0.00    +0.000 OA
ATOM     14  H   UNL     1       6.804   5.738  14.327  0.00  0.00    +0.000 HD
ATOM     15  H   UNL     1       8.254   4.745  14.424  0.00  0.00    +0.000 HD
ENDBRANCH   6  11
BRANCH   2  16
ATOM     16  N   UNL     1       1.221   2.892  19.004  0.00  0.00    +0.000 NA
ATOM     17  O   UNL     1       0.396   2.175  18.431  0.00  0.00    +0.000 OA
ENDBRANCH   2  16
TORSDOF 2
ENDMDL
