MODEL 1
REMARK VINA RESULT:      -8.2      0.000      0.000
REMARK  Name = 
REMARK  7 active torsions:
REMARK  status: ('A' for Active; 'I' for Inactive)
REMARK    1  A    between atoms: C_2  and  C_3
REMARK    2  A    between atoms: C_3  and  O_4
REMARK    3  A    between atoms: O_4  and  C_5
REMARK    4  A    between atoms: C_8  and  C_9
REMARK    5  A    between atoms: C_9  and  N_10
REMARK    6  A    between atoms: N_13  and  C_14
REMARK    7  A    between atoms: N_26  and  C_27
REMARK                            x       y       z     vdW  Elec       q    Type
REMARK                         _______ _______ _______ _____ _____    ______ ____
ROOT
ATOM      1  C   UNL     1       6.826   5.537  17.953  0.00  0.00    +0.000 A 
ATOM      2  C   UNL     1       6.554   6.458  17.015  0.00  0.00    +0.000 A 
ATOM      3  O   UNL     1       7.082   7.734  16.948  0.00  0.00    +0.000 OA
ATOM      4  C   UNL     1       7.887   8.178  17.994  0.00  0.00    +0.000 A 
ATOM      5  C   UNL     1       8.327   7.333  18.931  0.00  0.00    +0.000 A 
ATOM      6  C   UNL     1       7.906   5.914  18.924  0.00  0.00    +0.000 A 
ATOM      7  O   UNL     1       8.424   5.122  19.702  0.00  0.00    +0.000 OA
ENDROOT
BRANCH   1   8
ATOM      8  O   UNL     1       6.109   4.332  18.006  0.00  0.00    +0.000 OA
BRANCH   8   9
ATOM      9  C   UNL     1       5.132   4.211  16.971  0.00  0.00    +0.000 C 
BRANCH   9  11
ATOM     10  O   UNL     1       2.815   3.724  16.500  0.00  0.00    +0.000 OA
ATOM     11  C   UNL     1       3.637   4.101  17.340  0.00  0.00    +0.000 C 
ATOM     12  N   UNL     1       3.274   4.436  18.623  0.00  0.00    +0.000 N 
ATOM     13  H   UNL     1       3.984   4.854  19.213  0.00  0.00    +0.000 HD
BRANCH  12  14
ATOM     14  C   UNL     1       1.868   4.456  19.043  0.00  0.00    +0.000 C 
ATOM     15  C   UNL     1       1.211   3.064  19.018  0.00  0.00    +0.000 C 
ATOM     16  C   UNL     1       1.781   2.140  20.092  0.00  0.00    +0.000 C 
ATOM     17  C   UNL     1       1.649   2.753  21.484  0.00  0.00    +0.000 C 
ATOM     18  C   UNL     1       2.232   4.162  21.552  0.00  0.00    +0.000 C 
ATOM     19  C   UNL     1       1.705   5.071  20.440  0.00  0.00    +0.000 C 
ENDBRANCH  12  14
ENDBRANCH   9  11
ENDBRANCH   8   9
ENDBRANCH   1   8
BRANCH   4  20
ATOM     20  C   UNL     1       8.202   9.673  17.993  0.00  0.00    +0.000 C 
BRANCH  20  21
ATOM     21  N   UNL     1       9.472  10.033  18.648  0.00  0.00    +0.000 NA
ATOM     22  C   UNL     1      10.333  10.882  17.799  0.00  0.00    +0.000 C 
ATOM     23  C   UNL     1       9.847  12.338  17.639  0.00  0.00    +0.000 C 
ATOM     24  N   UNL     1       9.731  13.003  18.949  0.00  0.00    +0.000 N 
ATOM     25  C   UNL     1       9.001  12.232  19.981  0.00  0.00    +0.000 C 
ATOM     26  C   UNL     1       9.314  10.708  19.955  0.00  0.00    +0.000 C 
BRANCH  24  27
ATOM     27  C   UNL     1       9.501  14.396  18.949  0.00  0.00    +0.000 A 
ATOM     28  C   UNL     1       8.433  14.922  18.196  0.00  0.00    +0.000 A 
ATOM     29  C   UNL     1       8.115  16.288  18.202  0.00  0.00    +0.000 A 
ATOM     30  C   UNL     1       8.860  17.179  18.966  0.00  0.00    +0.000 A 
ATOM     31  C   UNL     1       9.921  16.699  19.722  0.00  0.00    +0.000 A 
ATOM     32  C   UNL     1      10.230  15.335  19.713  0.00  0.00    +0.000 A 
ATOM     33  F   UNL     1      11.277  14.957  20.462  0.00  0.00    +0.000 F 
ENDBRANCH  24  27
ENDBRANCH  20  21
ENDBRANCH   4  20
TORSDOF 7
ENDMDL
MODEL 2
REMARK VINA RESULT:      -8.1      3.110      9.133
REMARK  Name = 
REMARK  7 active torsions:
REMARK  status: ('A' for Active; 'I' for Inactive)
REMARK    1  A    between atoms: C_2  and  C_3
REMARK    2  A    between atoms: C_3  and  O_4
REMARK    3  A    between atoms: O_4  and  C_5
REMARK    4  A    between atoms: C_8  and  C_9
REMARK    5  A    between atoms: C_9  and  N_10
REMARK    6  A    between atoms: N_13  and  C_14
REMARK    7  A    between atoms: N_26  and  C_27
REMARK                            x       y       z     vdW  Elec       q    Type
REMARK                         _______ _______ _______ _____ _____    ______ ____
ROOT
ATOM      1  C   UNL     1       7.025   6.044  16.780  0.00  0.00    +0.000 A 
ATOM      2  C   UNL     1       7.271   5.001  17.589  0.00  0.00    +0.000 A 
ATOM      3  O   UNL     1       6.402   3.964  17.871  0.00  0.00    +0.000 OA
ATOM      4  C   UNL     1       5.102   4.031  17.374  0.00  0.00    +0.000 A 
ATOM      5  C   UNL     1       4.757   4.951  16.469  0.00  0.00    +0.000 A 
ATOM      6  C   UNL     1       5.730   5.974  16.025  0.00  0.00    +0.000 A 
ATOM      7  O   UNL     1       5.447   6.722  15.097  0.00  0.00    +0.000 OA
ENDROOT
BRANCH   1   8
ATOM      8  O   UNL     1       7.925   7.117  16.697  0.00  0.00    +0.000 OA
BRANCH   8   9
ATOM      9  C   UNL     1       7.468   8.290  17.372  0.00  0.00    +0.000 C 
BRANCH   9  11
ATOM     10  O   UNL     1       8.952   8.427  19.272  0.00  0.00    +0.000 OA
ATOM     11  C   UNL     1       8.417   9.033  18.338  0.00  0.00    +0.000 C 
ATOM     12  N   UNL     1       8.632  10.371  18.112  0.00  0.00    +0.000 N 
ATOM     13  H   UNL     1       8.061  10.821  17.406  0.00  0.00    +0.000 HD
BRANCH  12  14
ATOM     14  C   UNL     1       9.440  11.185  19.029  0.00  0.00    +0.000 C 
ATOM     15  C   UNL     1      10.921  11.268  18.615  0.00  0.00    +0.000 C 
ATOM     16  C   UNL     1      11.114  12.070  17.330  0.00  0.00    +0.000 C 
ATOM     17  C   UNL     1      10.529  13.474  17.453  0.00  0.00    +0.000 C 
ATOM     18  C   UNL     1       9.075  13.454  17.919  0.00  0.00    +0.000 C 
ATOM     19  C   UNL     1       8.872  12.603  19.174  0.00  0.00    +0.000 C 
ENDBRANCH  12  14
ENDBRANCH   9  11
ENDBRANCH   8   9
ENDBRANCH   1   8
BRANCH   4  20
ATOM     20  C   UNL     1       4.125   3.006  17.948  0.00  0.00    +0.000 C 
BRANCH  20  21
ATOM     21  N   UNL     1       3.711   3.265  19.338  0.00  0.00    +0.000 NA
ATOM     22  C   UNL     1       4.452   4.384  19.957  0.00  0.00    +0.000 C 
ATOM     23  C   UNL     1       4.062   5.783  19.437  0.00  0.00    +0.000 C 
ATOM     24  N   UNL     1       2.626   6.042  19.643  0.00  0.00    +0.000 N 
ATOM     25  C   UNL     1       1.722   4.957  19.196  0.00  0.00    +0.000 C 
ATOM     26  C   UNL     1       2.264   3.531  19.504  0.00  0.00    +0.000 C 
BRANCH  24  27
ATOM     27  C   UNL     1       2.166   7.357  19.411  0.00  0.00    +0.000 A 
ATOM     28  C   UNL     1       2.315   7.927  18.133  0.00  0.00    +0.000 A 
ATOM     29  C   UNL     1       1.826   9.204  17.821  0.00  0.00    +0.000 A 
ATOM     30  C   UNL     1       1.165   9.957  18.785  0.00  0.00    +0.000 A 
ATOM     31  C   UNL     1       0.998   9.430  20.058  0.00  0.00    +0.000 A 
ATOM     32  C   UNL     1       1.486   8.154  20.360  0.00  0.00    +0.000 A 
ATOM     33  F   UNL     1       1.292   7.724  21.616  0.00  0.00    +0.000 F 
ENDBRANCH  24  27
ENDBRANCH  20  21
ENDBRANCH   4  20
TORSDOF 7
ENDMDL
MODEL 3
REMARK VINA RESULT:      -7.8      7.035      9.709
REMARK  Name = 
REMARK  7 active torsions:
REMARK  status: ('A' for Active; 'I' for Inactive)
REMARK    1  A    between atoms: C_2  and  C_3
REMARK    2  A    between atoms: C_3  and  O_4
REMARK    3  A    between atoms: O_4  and  C_5
REMARK    4  A    between atoms: C_8  and  C_9
REMARK    5  A    between atoms: C_9  and  N_10
REMARK    6  A    between atoms: N_13  and  C_14
REMARK    7  A    between atoms: N_26  and  C_27
REMARK                            x       y       z     vdW  Elec       q    Type
REMARK                         _______ _______ _______ _____ _____    ______ ____
ROOT
ATOM      1  C   UNL     1       2.721   7.694  18.213  0.00  0.00    +0.000 A 
ATOM      2  C   UNL     1       2.530   8.952  17.785  0.00  0.00    +0.000 A 
ATOM      3  O   UNL     1       1.776   9.923  18.417  0.00  0.00    +0.000 OA
ATOM      4  C   UNL     1       1.043   9.567  19.546  0.00  0.00    +0.000 A 
ATOM      5  C   UNL     1       1.226   8.386  20.143  0.00  0.00    +0.000 A 
ATOM      6  C   UNL     1       2.162   7.391  19.572  0.00  0.00    +0.000 A 
ATOM      7  O   UNL     1       2.425   6.373  20.201  0.00  0.00    +0.000 OA
ENDROOT
BRANCH   1   8
ATOM      8  O   UNL     1       3.376   6.752  17.407  0.00  0.00    +0.000 OA
BRANCH   8   9
ATOM      9  C   UNL     1       4.584   6.256  17.986  0.00  0.00    +0.000 C 
BRANCH   9  11
ATOM     10  O   UNL     1       5.700   4.320  18.901  0.00  0.00    +0.000 OA
ATOM     11  C   UNL     1       4.625   4.820  18.554  0.00  0.00    +0.000 C 
ATOM     12  N   UNL     1       3.434   4.143  18.655  0.00  0.00    +0.000 N 
ATOM     13  H   UNL     1       2.618   4.573  18.234  0.00  0.00    +0.000 HD
BRANCH  12  14
ATOM     14  C   UNL     1       3.380   2.743  19.092  0.00  0.00    +0.000 C 
ATOM     15  C   UNL     1       3.676   2.568  20.593  0.00  0.00    +0.000 C 
ATOM     16  C   UNL     1       2.567   3.148  21.468  0.00  0.00    +0.000 C 
ATOM     17  C   UNL     1       1.211   2.535  21.130  0.00  0.00    +0.000 C 
ATOM     18  C   UNL     1       0.891   2.626  19.640  0.00  0.00    +0.000 C 
ATOM     19  C   UNL     1       2.026   2.100  18.762  0.00  0.00    +0.000 C 
ENDBRANCH  12  14
ENDBRANCH   9  11
ENDBRANCH   8   9
ENDBRANCH   1   8
BRANCH   4  20
ATOM     20  C   UNL     1       0.026  10.603  20.024  0.00  0.00    +0.000 C 
BRANCH  20  21
ATOM     21  N   UNL     1      -0.305  11.641  19.031  0.00  0.00    +0.000 NA
ATOM     22  C   UNL     1      -1.145  11.130  17.928  0.00  0.00    +0.000 C 
ATOM     23  C   UNL     1      -2.610  10.840  18.313  0.00  0.00    +0.000 C 
ATOM     24  N   UNL     1      -3.267  12.049  18.839  0.00  0.00    +0.000 N 
ATOM     25  C   UNL     1      -2.502  12.778  19.878  0.00  0.00    +0.000 C 
ATOM     26  C   UNL     1      -0.973  12.834  19.596  0.00  0.00    +0.000 C 
BRANCH  24  27
ATOM     27  C   UNL     1      -4.665  11.993  19.036  0.00  0.00    +0.000 A 
ATOM     28  C   UNL     1      -5.194  12.235  20.318  0.00  0.00    +0.000 A 
ATOM     29  C   UNL     1      -6.574  12.254  20.566  0.00  0.00    +0.000 A 
ATOM     30  C   UNL     1      -7.476  12.031  19.532  0.00  0.00    +0.000 A 
ATOM     31  C   UNL     1      -6.994  11.788  18.253  0.00  0.00    +0.000 A 
ATOM     32  C   UNL     1      -5.616  11.774  18.014  0.00  0.00    +0.000 A 
ATOM     33  F   UNL     1      -5.233  11.522  16.752  0.00  0.00    +0.000 F 
ENDBRANCH  24  27
ENDBRANCH  20  21
ENDBRANCH   4  20
TORSDOF 7
ENDMDL
MODEL 4
REMARK VINA RESULT:      -7.8      4.766      7.123
REMARK  Name = 
REMARK  7 active torsions:
REMARK  status: ('A' for Active; 'I' for Inactive)
REMARK    1  A    between atoms: C_2  and  C_3
REMARK    2  A    between atoms: C_3  and  O_4
REMARK    3  A    between atoms: O_4  and  C_5
REMARK    4  A    between atoms: C_8  and  C_9
REMARK    5  A    between atoms: C_9  and  N_10
REMARK    6  A    between atoms: N_13  and  C_14
REMARK    7  A    between atoms: N_26  and  C_27
REMARK                            x       y       z     vdW  Elec       q    Type
REMARK                         _______ _______ _______ _____ _____    ______ ____
ROOT
ATOM      1  C   UNL     1       2.137   5.103  18.696  0.00  0.00    +0.000 A 
ATOM      2  C   UNL     1       2.533   6.326  18.310  0.00  0.00    +0.000 A 
ATOM      3  O   UNL     1       2.424   7.490  19.048  0.00  0.00    +0.000 OA
ATOM      4  C   UNL     1       1.744   7.447  20.263  0.00  0.00    +0.000 A 
ATOM      5  C   UNL     1       1.397   6.281  20.818  0.00  0.00    +0.000 A 
ATOM      6  C   UNL     1       1.660   5.006  20.115  0.00  0.00    +0.000 A 
ATOM      7  O   UNL     1       1.466   3.942  20.692  0.00  0.00    +0.000 OA
ENDROOT
BRANCH   1   8
ATOM      8  O   UNL     1       2.154   4.025  17.798  0.00  0.00    +0.000 OA
BRANCH   8   9
ATOM      9  C   UNL     1       3.354   3.253  17.868  0.00  0.00    +0.000 C 
BRANCH   9  11
ATOM     10  O   UNL     1       4.607   3.664  15.846  0.00  0.00    +0.000 OA
ATOM     11  C   UNL     1       4.602   3.707  17.080  0.00  0.00    +0.000 C 
ATOM     12  N   UNL     1       5.681   4.153  17.803  0.00  0.00    +0.000 N 
ATOM     13  H   UNL     1       5.646   4.040  18.809  0.00  0.00    +0.000 HD
BRANCH  12  14
ATOM     14  C   UNL     1       6.946   4.516  17.151  0.00  0.00    +0.000 C 
ATOM     15  C   UNL     1       6.855   5.825  16.346  0.00  0.00    +0.000 C 
ATOM     16  C   UNL     1       6.680   7.044  17.250  0.00  0.00    +0.000 C 
ATOM     17  C   UNL     1       7.801   7.143  18.280  0.00  0.00    +0.000 C 
ATOM     18  C   UNL     1       7.976   5.847  19.069  0.00  0.00    +0.000 C 
ATOM     19  C   UNL     1       8.094   4.620  18.164  0.00  0.00    +0.000 C 
ENDBRANCH  12  14
ENDBRANCH   9  11
ENDBRANCH   8   9
ENDBRANCH   1   8
BRANCH   4  20
ATOM     20  C   UNL     1       1.420   8.805  20.885  0.00  0.00    +0.000 C 
BRANCH  20  21
ATOM     21  N   UNL     1       0.246   9.480  20.305  0.00  0.00    +0.000 NA
ATOM     22  C   UNL     1      -0.220  10.620  21.122  0.00  0.00    +0.000 C 
ATOM     23  C   UNL     1       0.690  11.864  21.072  0.00  0.00    +0.000 C 
ATOM     24  N   UNL     1       0.844  12.351  19.690  0.00  0.00    +0.000 N 
ATOM     25  C   UNL     1       1.188  11.311  18.693  0.00  0.00    +0.000 C 
ATOM     26  C   UNL     1       0.443   9.964  18.920  0.00  0.00    +0.000 C 
BRANCH  24  27
ATOM     27  C   UNL     1       1.474  13.603  19.511  0.00  0.00    +0.000 A 
ATOM     28  C   UNL     1       2.823  13.758  19.883  0.00  0.00    +0.000 A 
ATOM     29  C   UNL     1       3.523  14.955  19.676  0.00  0.00    +0.000 A 
ATOM     30  C   UNL     1       2.892  16.044  19.085  0.00  0.00    +0.000 A 
ATOM     31  C   UNL     1       1.562  15.930  18.704  0.00  0.00    +0.000 A 
ATOM     32  C   UNL     1       0.872  14.732  18.912  0.00  0.00    +0.000 A 
ATOM     33  F   UNL     1      -0.413  14.709  18.525  0.00  0.00    +0.000 F 
ENDBRANCH  24  27
ENDBRANCH  20  21
ENDBRANCH   4  20
TORSDOF 7
ENDMDL
MODEL 5
REMARK VINA RESULT:      -7.8      8.455     10.681
REMARK  Name = 
REMARK  7 active torsions:
REMARK  status: ('A' for Active; 'I' for Inactive)
REMARK    1  A    between atoms: C_2  and  C_3
REMARK    2  A    between atoms: C_3  and  O_4
REMARK    3  A    between atoms: O_4  and  C_5
REMARK    4  A    between atoms: C_8  and  C_9
REMARK    5  A    between atoms: C_9  and  N_10
REMARK    6  A    between atoms: N_13  and  C_14
REMARK    7  A    between atoms: N_26  and  C_27
REMARK                            x       y       z     vdW  Elec       q    Type
REMARK                         _______ _______ _______ _____ _____    ______ ____
ROOT
ATOM      1  C   UNL     1       0.465   9.777  18.688  0.00  0.00    +0.000 A 
ATOM      2  C   UNL     1       1.180  10.146  19.762  0.00  0.00    +0.000 A 
ATOM      3  O   UNL     1       0.879  11.183  20.625  0.00  0.00    +0.000 OA
ATOM      4  C   UNL     1      -0.197  12.013  20.320  0.00  0.00    +0.000 A 
ATOM      5  C   UNL     1      -1.057  11.696  19.348  0.00  0.00    +0.000 A 
ATOM      6  C   UNL     1      -0.844  10.490  18.517  0.00  0.00    +0.000 A 
ATOM      7  O   UNL     1      -1.710  10.136  17.725  0.00  0.00    +0.000 OA
ENDROOT
BRANCH   1   8
ATOM      8  O   UNL     1       0.954   8.810  17.796  0.00  0.00    +0.000 OA
BRANCH   8   9
ATOM      9  C   UNL     1       2.381   8.767  17.739  0.00  0.00    +0.000 C 
BRANCH   9  11
ATOM     10  O   UNL     1       4.119   7.135  17.360  0.00  0.00    +0.000 OA
ATOM     11  C   UNL     1       3.115   7.436  18.013  0.00  0.00    +0.000 C 
ATOM     12  N   UNL     1       2.609   6.623  18.998  0.00  0.00    +0.000 N 
ATOM     13  H   UNL     1       1.714   6.880  19.399  0.00  0.00    +0.000 HD
BRANCH  12  14
ATOM     14  C   UNL     1       3.179   5.297  19.268  0.00  0.00    +0.000 C 
ATOM     15  C   UNL     1       2.649   4.667  20.569  0.00  0.00    +0.000 C 
ATOM     16  C   UNL     1       1.173   4.290  20.465  0.00  0.00    +0.000 C 
ATOM     17  C   UNL     1       0.917   3.350  19.290  0.00  0.00    +0.000 C 
ATOM     18  C   UNL     1       1.477   3.899  17.979  0.00  0.00    +0.000 C 
ATOM     19  C   UNL     1       2.938   4.331  18.100  0.00  0.00    +0.000 C 
ENDBRANCH  12  14
ENDBRANCH   9  11
ENDBRANCH   8   9
ENDBRANCH   1   8
BRANCH   4  20
ATOM     20  C   UNL     1      -0.300  13.290  21.153  0.00  0.00    +0.000 C 
BRANCH  20  21
ATOM     21  N   UNL     1      -0.472  13.066  22.599  0.00  0.00    +0.000 NA
ATOM     22  C   UNL     1      -0.989  14.257  23.305  0.00  0.00    +0.000 C 
ATOM     23  C   UNL     1      -2.476  14.571  23.039  0.00  0.00    +0.000 C 
ATOM     24  N   UNL     1      -3.332  13.433  23.417  0.00  0.00    +0.000 N 
ATOM     25  C   UNL     1      -2.890  12.116  22.900  0.00  0.00    +0.000 C 
ATOM     26  C   UNL     1      -1.347  11.921  22.939  0.00  0.00    +0.000 C 
BRANCH  24  27
ATOM     27  C   UNL     1      -4.728  13.649  23.428  0.00  0.00    +0.000 A 
ATOM     28  C   UNL     1      -5.286  14.617  22.572  0.00  0.00    +0.000 A 
ATOM     29  C   UNL     1      -6.669  14.837  22.492  0.00  0.00    +0.000 A 
ATOM     30  C   UNL     1      -7.544  14.090  23.270  0.00  0.00    +0.000 A 
ATOM     31  C   UNL     1      -7.033  13.125  24.127  0.00  0.00    +0.000 A 
ATOM     32  C   UNL     1      -5.653  12.910  24.199  0.00  0.00    +0.000 A 
ATOM     33  F   UNL     1      -5.241  11.966  25.060  0.00  0.00    +0.000 F 
ENDBRANCH  24  27
ENDBRANCH  20  21
ENDBRANCH   4  20
TORSDOF 7
ENDMDL
MODEL 6
REMARK VINA RESULT:      -7.8      3.144      9.276
REMARK  Name = 
REMARK  7 active torsions:
REMARK  status: ('A' for Active; 'I' for Inactive)
REMARK    1  A    between atoms: C_2  and  C_3
REMARK    2  A    between atoms: C_3  and  O_4
REMARK    3  A    between atoms: O_4  and  C_5
REMARK    4  A    between atoms: C_8  and  C_9
REMARK    5  A    between atoms: C_9  and  N_10
REMARK    6  A    between atoms: N_13  and  C_14
REMARK    7  A    between atoms: N_26  and  C_27
REMARK                            x       y       z     vdW  Elec       q    Type
REMARK                         _______ _______ _______ _____ _____    ______ ____
ROOT
ATOM      1  C   UNL     1       7.047   6.707  17.344  0.00  0.00    +0.000 A 
ATOM      2  C   UNL     1       5.886   6.570  16.685  0.00  0.00    +0.000 A 
ATOM      3  O   UNL     1       4.970   5.547  16.849  0.00  0.00    +0.000 OA
ATOM      4  C   UNL     1       5.300   4.485  17.687  0.00  0.00    +0.000 A 
ATOM      5  C   UNL     1       6.369   4.545  18.487  0.00  0.00    +0.000 A 
ATOM      6  C   UNL     1       7.275   5.715  18.447  0.00  0.00    +0.000 A 
ATOM      7  O   UNL     1       8.168   5.822  19.280  0.00  0.00    +0.000 OA
ENDROOT
BRANCH   1   8
ATOM      8  O   UNL     1       7.968   7.700  16.980  0.00  0.00    +0.000 OA
BRANCH   8   9
ATOM      9  C   UNL     1       7.657   8.984  17.522  0.00  0.00    +0.000 C 
BRANCH   9  11
ATOM     10  O   UNL     1       9.152   9.142  19.411  0.00  0.00    +0.000 OA
ATOM     11  C   UNL     1       8.690   9.706  18.415  0.00  0.00    +0.000 C 
ATOM     12  N   UNL     1       9.061  10.979  18.053  0.00  0.00    +0.000 N 
ATOM     13  H   UNL     1       8.545  11.417  17.299  0.00  0.00    +0.000 HD
BRANCH  12  14
ATOM     14  C   UNL     1       9.962  11.783  18.888  0.00  0.00    +0.000 C 
ATOM     15  C   UNL     1      11.283  12.137  18.181  0.00  0.00    +0.000 C 
ATOM     16  C   UNL     1      11.073  13.114  17.026  0.00  0.00    +0.000 C 
ATOM     17  C   UNL     1      10.374  14.388  17.491  0.00  0.00    +0.000 C 
ATOM     18  C   UNL     1       9.084  14.093  18.253  0.00  0.00    +0.000 C 
ATOM     19  C   UNL     1       9.283  13.071  19.373  0.00  0.00    +0.000 C 
ENDBRANCH  12  14
ENDBRANCH   9  11
ENDBRANCH   8   9
ENDBRANCH   1   8
BRANCH   4  20
ATOM     20  C   UNL     1       4.377   3.270  17.605  0.00  0.00    +0.000 C 
BRANCH  20  21
ATOM     21  N   UNL     1       3.294   3.255  18.603  0.00  0.00    +0.000 NA
ATOM     22  C   UNL     1       3.619   4.041  19.812  0.00  0.00    +0.000 C 
ATOM     23  C   UNL     1       3.598   5.570  19.613  0.00  0.00    +0.000 C 
ATOM     24  N   UNL     1       2.279   6.024  19.139  0.00  0.00    +0.000 N 
ATOM     25  C   UNL     1       1.725   5.258  17.998  0.00  0.00    +0.000 C 
ATOM     26  C   UNL     1       1.987   3.727  18.093  0.00  0.00    +0.000 C 
BRANCH  24  27
ATOM     27  C   UNL     1       2.044   7.416  19.114  0.00  0.00    +0.000 A 
ATOM     28  C   UNL     1       2.262   8.133  17.923  0.00  0.00    +0.000 A 
ATOM     29  C   UNL     1       1.990   9.505  17.815  0.00  0.00    +0.000 A 
ATOM     30  C   UNL     1       1.487  10.208  18.903  0.00  0.00    +0.000 A 
ATOM     31  C   UNL     1       1.258   9.536  20.096  0.00  0.00    +0.000 A 
ATOM     32  C   UNL     1       1.529   8.168  20.194  0.00  0.00    +0.000 A 
ATOM     33  F   UNL     1       1.290   7.597  21.385  0.00  0.00    +0.000 F 
ENDBRANCH  24  27
ENDBRANCH  20  21
ENDBRANCH   4  20
TORSDOF 7
ENDMDL
MODEL 7
REMARK VINA RESULT:      -7.7      3.069      9.355
REMARK  Name = 
REMARK  7 active torsions:
REMARK  status: ('A' for Active; 'I' for Inactive)
REMARK    1  A    between atoms: C_2  and  C_3
REMARK    2  A    between atoms: C_3  and  O_4
REMARK    3  A    between atoms: O_4  and  C_5
REMARK    4  A    between atoms: C_8  and  C_9
REMARK    5  A    between atoms: C_9  and  N_10
REMARK    6  A    between atoms: N_13  and  C_14
REMARK    7  A    between atoms: N_26  and  C_27
REMARK                            x       y       z     vdW  Elec       q    Type
REMARK                         _______ _______ _______ _____ _____    ______ ____
ROOT
ATOM      1  C   UNL     1       7.458   6.382  17.445  0.00  0.00    +0.000 A 
ATOM      2  C   UNL     1       7.177   6.289  18.754  0.00  0.00    +0.000 A 
ATOM      3  O   UNL     1       6.399   5.317  19.355  0.00  0.00    +0.000 OA
ATOM      4  C   UNL     1       5.738   4.398  18.543  0.00  0.00    +0.000 A 
ATOM      5  C   UNL     1       6.014   4.306  17.239  0.00  0.00    +0.000 A 
ATOM      6  C   UNL     1       6.978   5.234  16.606  0.00  0.00    +0.000 A 
ATOM      7  O   UNL     1       7.326   5.051  15.446  0.00  0.00    +0.000 OA
ENDROOT
BRANCH   1   8
ATOM      8  O   UNL     1       8.128   7.502  16.931  0.00  0.00    +0.000 OA
BRANCH   8   9
ATOM      9  C   UNL     1       7.701   8.733  17.518  0.00  0.00    +0.000 C 
BRANCH   9  11
ATOM     10  O   UNL     1       9.119   8.981  19.455  0.00  0.00    +0.000 OA
ATOM     11  C   UNL     1       8.663   9.514  18.439  0.00  0.00    +0.000 C 
ATOM     12  N   UNL     1       8.981  10.801  18.079  0.00  0.00    +0.000 N 
ATOM     13  H   UNL     1       8.470  11.207  17.303  0.00  0.00    +0.000 HD
BRANCH  12  14
ATOM     14  C   UNL     1       9.811  11.657  18.937  0.00  0.00    +0.000 C 
ATOM     15  C   UNL     1      11.211  11.920  18.354  0.00  0.00    +0.000 C 
ATOM     16  C   UNL     1      11.156  12.795  17.103  0.00  0.00    +0.000 C 
ATOM     17  C   UNL     1      10.450  14.120  17.378  0.00  0.00    +0.000 C 
ATOM     18  C   UNL     1       9.076  13.920  18.015  0.00  0.00    +0.000 C 
ATOM     19  C   UNL     1       9.122  12.996  19.232  0.00  0.00    +0.000 C 
ENDBRANCH  12  14
ENDBRANCH   9  11
ENDBRANCH   8   9
ENDBRANCH   1   8
BRANCH   4  20
ATOM     20  C   UNL     1       4.686   3.538  19.244  0.00  0.00    +0.000 C 
BRANCH  20  21
ATOM     21  N   UNL     1       3.345   3.593  18.635  0.00  0.00    +0.000 NA
ATOM     22  C   UNL     1       2.267   3.716  19.638  0.00  0.00    +0.000 C 
ATOM     23  C   UNL     1       2.166   5.100  20.312  0.00  0.00    +0.000 C 
ATOM     24  N   UNL     1       1.955   6.160  19.312  0.00  0.00    +0.000 N 
ATOM     25  C   UNL     1       2.875   6.119  18.150  0.00  0.00    +0.000 C 
ATOM     26  C   UNL     1       3.170   4.678  17.644  0.00  0.00    +0.000 C 
BRANCH  24  27
ATOM     27  C   UNL     1       1.634   7.449  19.792  0.00  0.00    +0.000 A 
ATOM     28  C   UNL     1       1.514   7.660  21.179  0.00  0.00    +0.000 A 
ATOM     29  C   UNL     1       1.257   8.927  21.723  0.00  0.00    +0.000 A 
ATOM     30  C   UNL     1       1.111  10.032  20.891  0.00  0.00    +0.000 A 
ATOM     31  C   UNL     1       1.221   9.864  19.518  0.00  0.00    +0.000 A 
ATOM     32  C   UNL     1       1.481   8.598  18.984  0.00  0.00    +0.000 A 
ATOM     33  F   UNL     1       1.563   8.521  17.646  0.00  0.00    +0.000 F 
ENDBRANCH  24  27
ENDBRANCH  20  21
ENDBRANCH   4  20
TORSDOF 7
ENDMDL
MODEL 8
REMARK VINA RESULT:      -7.7      7.409      9.926
REMARK  Name = 
REMARK  7 active torsions:
REMARK  status: ('A' for Active; 'I' for Inactive)
REMARK    1  A    between atoms: C_2  and  C_3
REMARK    2  A    between atoms: C_3  and  O_4
REMARK    3  A    between atoms: O_4  and  C_5
REMARK    4  A    between atoms: C_8  and  C_9
REMARK    5  A    between atoms: C_9  and  N_10
REMARK    6  A    between atoms: N_13  and  C_14
REMARK    7  A    between atoms: N_26  and  C_27
REMARK                            x       y       z     vdW  Elec       q    Type
REMARK                         _______ _______ _______ _____ _____    ______ ____
ROOT
ATOM      1  C   UNL     1       2.021   8.620  18.430  0.00  0.00    +0.000 A 
ATOM      2  C   UNL     1       1.933   9.917  18.097  0.00  0.00    +0.000 A 
ATOM      3  O   UNL     1       1.408  10.927  18.881  0.00  0.00    +0.000 OA
ATOM      4  C   UNL     1       0.803  10.587  20.089  0.00  0.00    +0.000 A 
ATOM      5  C   UNL     1       0.916   9.355  20.593  0.00  0.00    +0.000 A 
ATOM      6  C   UNL     1       1.626   8.296  19.841  0.00  0.00    +0.000 A 
ATOM      7  O   UNL     1       1.843   7.213  20.372  0.00  0.00    +0.000 OA
ENDROOT
BRANCH   1   8
ATOM      8  O   UNL     1       2.427   7.662  17.489  0.00  0.00    +0.000 OA
BRANCH   8   9
ATOM      9  C   UNL     1       3.767   7.208  17.690  0.00  0.00    +0.000 C 
BRANCH   9  11
ATOM     10  O   UNL     1       5.156   5.240  17.855  0.00  0.00    +0.000 OA
ATOM     11  C   UNL     1       4.028   5.719  18.008  0.00  0.00    +0.000 C 
ATOM     12  N   UNL     1       2.969   4.971  18.461  0.00  0.00    +0.000 N 
ATOM     13  H   UNL     1       2.052   5.403  18.439  0.00  0.00    +0.000 HD
BRANCH  12  14
ATOM     14  C   UNL     1       3.093   3.527  18.699  0.00  0.00    +0.000 C 
ATOM     15  C   UNL     1       3.543   3.189  20.132  0.00  0.00    +0.000 C 
ATOM     16  C   UNL     1       2.469   3.523  21.165  0.00  0.00    +0.000 C 
ATOM     17  C   UNL     1       1.153   2.816  20.852  0.00  0.00    +0.000 C 
ATOM     18  C   UNL     1       0.689   3.068  19.420  0.00  0.00    +0.000 C 
ATOM     19  C   UNL     1       1.783   2.790  18.389  0.00  0.00    +0.000 C 
ENDBRANCH  12  14
ENDBRANCH   9  11
ENDBRANCH   8   9
ENDBRANCH   1   8
BRANCH   4  20
ATOM     20  C   UNL     1       0.006  11.703  20.763  0.00  0.00    +0.000 C 
BRANCH  20  21
ATOM     21  N   UNL     1      -0.450  12.767  19.851  0.00  0.00    +0.000 NA
ATOM     22  C   UNL     1      -1.157  12.240  18.665  0.00  0.00    +0.000 C 
ATOM     23  C   UNL     1      -2.570  11.689  18.948  0.00  0.00    +0.000 C 
ATOM     24  N   UNL     1      -3.431  12.724  19.546  0.00  0.00    +0.000 N 
ATOM     25  C   UNL     1      -2.830  13.460  20.683  0.00  0.00    +0.000 C 
ATOM     26  C   UNL     1      -1.321  13.782  20.486  0.00  0.00    +0.000 C 
BRANCH  24  27
ATOM     27  C   UNL     1      -4.808  12.432  19.665  0.00  0.00    +0.000 A 
ATOM     28  C   UNL     1      -5.384  12.322  20.945  0.00  0.00    +0.000 A 
ATOM     29  C   UNL     1      -6.756  12.094  21.131  0.00  0.00    +0.000 A 
ATOM     30  C   UNL     1      -7.601  11.968  20.034  0.00  0.00    +0.000 A 
ATOM     31  C   UNL     1      -7.070  12.069  18.756  0.00  0.00    +0.000 A 
ATOM     32  C   UNL     1      -5.702  12.300  18.579  0.00  0.00    +0.000 A 
ATOM     33  F   UNL     1      -5.270  12.375  17.311  0.00  0.00    +0.000 F 
ENDBRANCH  24  27
ENDBRANCH  20  21
ENDBRANCH   4  20
TORSDOF 7
ENDMDL
MODEL 9
REMARK VINA RESULT:      -7.6      7.948      9.971
REMARK  Name = 
REMARK  7 active torsions:
REMARK  status: ('A' for Active; 'I' for Inactive)
REMARK    1  A    between atoms: C_2  and  C_3
REMARK    2  A    between atoms: C_3  and  O_4
REMARK    3  A    between atoms: O_4  and  C_5
REMARK    4  A    between atoms: C_8  and  C_9
REMARK    5  A    between atoms: C_9  and  N_10
REMARK    6  A    between atoms: N_13  and  C_14
REMARK    7  A    between atoms: N_26  and  C_27
REMARK                            x       y       z     vdW  Elec       q    Type
REMARK                         _______ _______ _______ _____ _____    ______ ____
ROOT
ATOM      1  C   UNL     1       1.647   9.008  18.649  0.00  0.00    +0.000 A 
ATOM      2  C   UNL     1       1.588  10.259  18.165  0.00  0.00    +0.000 A 
ATOM      3  O   UNL     1       1.118  11.372  18.836  0.00  0.00    +0.000 OA
ATOM      4  C   UNL     1       0.541  11.199  20.092  0.00  0.00    +0.000 A 
ATOM      5  C   UNL     1       0.632  10.033  20.737  0.00  0.00    +0.000 A 
ATOM      6  C   UNL     1       1.286   8.868  20.099  0.00  0.00    +0.000 A 
ATOM      7  O   UNL     1       1.487   7.850  20.751  0.00  0.00    +0.000 OA
ENDROOT
BRANCH   1   8
ATOM      8  O   UNL     1       1.995   7.932  17.820  0.00  0.00    +0.000 OA
BRANCH   8   9
ATOM      9  C   UNL     1       3.385   7.607  17.873  0.00  0.00    +0.000 C 
BRANCH   9  11
ATOM     10  O   UNL     1       4.864   5.700  17.945  0.00  0.00    +0.000 OA
ATOM     11  C   UNL     1       3.825   6.212  18.371  0.00  0.00    +0.000 C 
ATOM     12  N   UNL     1       3.021   5.585  19.292  0.00  0.00    +0.000 N 
ATOM     13  H   UNL     1       2.125   6.013  19.496  0.00  0.00    +0.000 HD
BRANCH  12  14
ATOM     14  C   UNL     1       3.302   4.219  19.754  0.00  0.00    +0.000 C 
ATOM     15  C   UNL     1       2.389   3.775  20.911  0.00  0.00    +0.000 C 
ATOM     16  C   UNL     1       0.940   3.595  20.462  0.00  0.00    +0.000 C 
ATOM     17  C   UNL     1       0.831   2.608  19.304  0.00  0.00    +0.000 C 
ATOM     18  C   UNL     1       1.763   2.968  18.149  0.00  0.00    +0.000 C 
ATOM     19  C   UNL     1       3.202   3.204  18.607  0.00  0.00    +0.000 C 
ENDBRANCH  12  14
ENDBRANCH   9  11
ENDBRANCH   8   9
ENDBRANCH   1   8
BRANCH   4  20
ATOM     20  C   UNL     1      -0.202  12.413  20.648  0.00  0.00    +0.000 C 
BRANCH  20  21
ATOM     21  N   UNL     1      -0.163  12.536  22.116  0.00  0.00    +0.000 NA
ATOM     22  C   UNL     1      -0.506  13.895  22.585  0.00  0.00    +0.000 C 
ATOM     23  C   UNL     1      -1.998  14.265  22.458  0.00  0.00    +0.000 C 
ATOM     24  N   UNL     1      -2.843  13.318  23.206  0.00  0.00    +0.000 N 
ATOM     25  C   UNL     1      -2.551  11.886  22.959  0.00  0.00    +0.000 C 
ATOM     26  C   UNL     1      -1.032  11.575  22.831  0.00  0.00    +0.000 C 
BRANCH  24  27
ATOM     27  C   UNL     1      -4.208  13.647  23.357  0.00  0.00    +0.000 A 
ATOM     28  C   UNL     1      -4.755  14.696  22.594  0.00  0.00    +0.000 A 
ATOM     29  C   UNL     1      -6.115  15.033  22.652  0.00  0.00    +0.000 A 
ATOM     30  C   UNL     1      -6.978  14.327  23.482  0.00  0.00    +0.000 A 
ATOM     31  C   UNL     1      -6.477  13.285  24.250  0.00  0.00    +0.000 A 
ATOM     32  C   UNL     1      -5.120  12.953  24.184  0.00  0.00    +0.000 A 
ATOM     33  F   UNL     1      -4.715  11.941  24.967  0.00  0.00    +0.000 F 
ENDBRANCH  24  27
ENDBRANCH  20  21
ENDBRANCH   4  20
TORSDOF 7
ENDMDL
