MODEL 1
REMARK VINA RESULT:      -7.2      0.000      0.000
REMARK  Name = 
REMARK  4 active torsions:
REMARK  status: ('A' for Active; 'I' for Inactive)
REMARK    1  A    between atoms: N_2  and  C_4
REMARK    2  A    between atoms: C_9  and  C_10
REMARK    3  A    between atoms: C_10  and  N_11
REMARK    4  A    between atoms: N_11  and  C_12
REMARK                            x       y       z     vdW  Elec       q    Type
REMARK                         _______ _______ _______ _____ _____    ______ ____
ROOT
ATOM      1  C   UNL     1       3.174   2.233  17.536  0.00  0.00    +0.000 C 
ENDROOT
BRANCH   1   7
ATOM      2  C   UNL     1       3.286   2.641  20.086  0.00  0.00    +0.000 A 
ATOM      3  C   UNL     1       2.674   2.984  21.304  0.00  0.00    +0.000 A 
ATOM      4  C   UNL     1       1.297   3.189  21.347  0.00  0.00    +0.000 A 
ATOM      5  C   UNL     1       0.543   3.042  20.186  0.00  0.00    +0.000 A 
ATOM      6  C   UNL     1       1.159   2.695  18.976  0.00  0.00    +0.000 A 
ATOM      7  C   UNL     1       2.551   2.495  18.895  0.00  0.00    +0.000 A 
BRANCH   2   9
ATOM      8  O   UNL     1       5.157   1.373  20.495  0.00  0.00    +0.000 OA
ATOM      9  N   UNL     1       4.729   2.467  20.108  0.00  0.00    +0.000 N 
ATOM     10  O   UNL     1       5.425   3.414  19.715  0.00  0.00    +0.000 OA
ENDBRANCH   2   9
ENDBRANCH   1   7
BRANCH   1  11
ATOM     11  N   UNL     1       3.128   3.409  16.677  0.00  0.00    +0.000 N 
ATOM     12  H   UNL     1       2.977   3.156  15.694  0.00  0.00    +0.000 HD
BRANCH  11  13
ATOM     13  C   UNL     1       4.190   4.329  16.759  0.00  0.00    +0.000 A 
ATOM     14  C   UNL     1       3.976   5.541  17.436  0.00  0.00    +0.000 A 
ATOM     15  C   UNL     1       5.007   6.474  17.609  0.00  0.00    +0.000 A 
ATOM     16  C   UNL     1       6.280   6.187  17.132  0.00  0.00    +0.000 A 
ATOM     17 CL   UNL     1       7.555   7.323  17.344  0.00  0.00    +0.000 Cl
ATOM     18  C   UNL     1       6.530   4.975  16.496  0.00  0.00    +0.000 A 
ATOM     19  C   UNL     1       5.492   4.049  16.323  0.00  0.00    +0.000 A 
ENDBRANCH  11  13
ENDBRANCH   1  11
TORSDOF 4
ENDMDL
MODEL 2
REMARK VINA RESULT:      -7.1      0.092      1.353
REMARK  Name = 
REMARK  4 active torsions:
REMARK  status: ('A' for Active; 'I' for Inactive)
REMARK    1  A    between atoms: N_2  and  C_4
REMARK    2  A    between atoms: C_9  and  C_10
REMARK    3  A    between atoms: C_10  and  N_11
REMARK    4  A    between atoms: N_11  and  C_12
REMARK                            x       y       z     vdW  Elec       q    Type
REMARK                         _______ _______ _______ _____ _____    ______ ____
ROOT
ATOM      1  C   UNL     1       3.108   2.256  17.541  0.00  0.00    +0.000 C 
ENDROOT
BRANCH   1   7
ATOM      2  C   UNL     1       3.277   2.610  20.097  0.00  0.00    +0.000 A 
ATOM      3  C   UNL     1       2.695   2.937  21.334  0.00  0.00    +0.000 A 
ATOM      4  C   UNL     1       1.322   3.161  21.409  0.00  0.00    +0.000 A 
ATOM      5  C   UNL     1       0.543   3.049  20.260  0.00  0.00    +0.000 A 
ATOM      6  C   UNL     1       1.129   2.718  19.032  0.00  0.00    +0.000 A 
ATOM      7  C   UNL     1       2.517   2.500  18.918  0.00  0.00    +0.000 A 
BRANCH   2   9
ATOM      8  O   UNL     1       5.415   3.389  19.780  0.00  0.00    +0.000 OA
ATOM      9  N   UNL     1       4.718   2.414  20.086  0.00  0.00    +0.000 N 
ATOM     10  O   UNL     1       5.144   1.297  20.409  0.00  0.00    +0.000 OA
ENDBRANCH   2   9
ENDBRANCH   1   7
BRANCH   1  11
ATOM     11  N   UNL     1       3.116   3.466  16.728  0.00  0.00    +0.000 N 
ATOM     12  H   UNL     1       3.053   3.251  15.727  0.00  0.00    +0.000 HD
BRANCH  11  13
ATOM     13  C   UNL     1       4.153   4.395  16.937  0.00  0.00    +0.000 A 
ATOM     14  C   UNL     1       5.431   4.096  16.435  0.00  0.00    +0.000 A 
ATOM     15  C   UNL     1       6.493   5.002  16.552  0.00  0.00    +0.000 A 
ATOM     16  C   UNL     1       6.278   6.239  17.147  0.00  0.00    +0.000 A 
ATOM     17 CL   UNL     1       7.574   7.362  17.290  0.00  0.00    +0.000 Cl
ATOM     18  C   UNL     1       5.012   6.578  17.614  0.00  0.00    +0.000 A 
ATOM     19  C   UNL     1       3.955   5.664  17.496  0.00  0.00    +0.000 A 
ENDBRANCH  11  13
ENDBRANCH   1  11
TORSDOF 4
ENDMDL
MODEL 3
REMARK VINA RESULT:      -7.1      2.819      5.467
REMARK  Name = 
REMARK  4 active torsions:
REMARK  status: ('A' for Active; 'I' for Inactive)
REMARK    1  A    between atoms: N_2  and  C_4
REMARK    2  A    between atoms: C_9  and  C_10
REMARK    3  A    between atoms: C_10  and  N_11
REMARK    4  A    between atoms: N_11  and  C_12
REMARK                            x       y       z     vdW  Elec       q    Type
REMARK                         _______ _______ _______ _____ _____    ______ ____
ROOT
ATOM      1  C   UNL     1       4.223   6.904  17.800  0.00  0.00    +0.000 C 
ENDROOT
BRANCH   1   7
ATOM      2  C   UNL     1       5.971   5.017  17.543  0.00  0.00    +0.000 A 
ATOM      3  C   UNL     1       6.763   4.175  16.742  0.00  0.00    +0.000 A 
ATOM      4  C   UNL     1       6.769   4.349  15.361  0.00  0.00    +0.000 A 
ATOM      5  C   UNL     1       5.999   5.360  14.791  0.00  0.00    +0.000 A 
ATOM      6  C   UNL     1       5.216   6.198  15.595  0.00  0.00    +0.000 A 
ATOM      7  C   UNL     1       5.176   6.040  16.995  0.00  0.00    +0.000 A 
BRANCH   2   9
ATOM      8  O   UNL     1       5.325   3.806  19.386  0.00  0.00    +0.000 OA
ATOM      9  N   UNL     1       5.992   4.763  18.974  0.00  0.00    +0.000 N 
ATOM     10  O   UNL     1       6.696   5.505  19.675  0.00  0.00    +0.000 OA
ENDBRANCH   2   9
ENDBRANCH   1   7
BRANCH   1  11
ATOM     11  N   UNL     1       2.851   6.417  17.729  0.00  0.00    +0.000 N 
ATOM     12  H   UNL     1       2.178   7.188  17.647  0.00  0.00    +0.000 HD
BRANCH  11  13
ATOM     13  C   UNL     1       2.413   5.527  18.728  0.00  0.00    +0.000 A 
ATOM     14  C   UNL     1       1.951   4.258  18.340  0.00  0.00    +0.000 A 
ATOM     15  C   UNL     1       1.560   3.302  19.285  0.00  0.00    +0.000 A 
ATOM     16  C   UNL     1       1.658   3.594  20.640  0.00  0.00    +0.000 A 
ATOM     17 CL   UNL     1       1.186   2.425  21.809  0.00  0.00    +0.000 Cl
ATOM     18  C   UNL     1       2.153   4.828  21.053  0.00  0.00    +0.000 A 
ATOM     19  C   UNL     1       2.539   5.781  20.100  0.00  0.00    +0.000 A 
ENDBRANCH  11  13
ENDBRANCH   1  11
TORSDOF 4
ENDMDL
MODEL 4
REMARK VINA RESULT:      -7.1      2.811      5.428
REMARK  Name = 
REMARK  4 active torsions:
REMARK  status: ('A' for Active; 'I' for Inactive)
REMARK    1  A    between atoms: N_2  and  C_4
REMARK    2  A    between atoms: C_9  and  C_10
REMARK    3  A    between atoms: C_10  and  N_11
REMARK    4  A    between atoms: N_11  and  C_12
REMARK                            x       y       z     vdW  Elec       q    Type
REMARK                         _______ _______ _______ _____ _____    ______ ____
ROOT
ATOM      1  C   UNL     1       4.167   6.826  17.839  0.00  0.00    +0.000 C 
ENDROOT
BRANCH   1   7
ATOM      2  C   UNL     1       5.996   5.021  17.553  0.00  0.00    +0.000 A 
ATOM      3  C   UNL     1       6.824   4.228  16.739  0.00  0.00    +0.000 A 
ATOM      4  C   UNL     1       6.822   4.423  15.361  0.00  0.00    +0.000 A 
ATOM      5  C   UNL     1       6.009   5.409  14.806  0.00  0.00    +0.000 A 
ATOM      6  C   UNL     1       5.190   6.199  15.623  0.00  0.00    +0.000 A 
ATOM      7  C   UNL     1       5.157   6.017  17.020  0.00  0.00    +0.000 A 
BRANCH   2   9
ATOM      8  O   UNL     1       5.390   3.764  19.378  0.00  0.00    +0.000 OA
ATOM      9  N   UNL     1       6.029   4.746  18.980  0.00  0.00    +0.000 N 
ATOM     10  O   UNL     1       6.712   5.497  19.690  0.00  0.00    +0.000 OA
ENDBRANCH   2   9
ENDBRANCH   1   7
BRANCH   1  11
ATOM     11  N   UNL     1       2.821   6.272  17.772  0.00  0.00    +0.000 N 
ATOM     12  H   UNL     1       2.107   7.009  17.757  0.00  0.00    +0.000 HD
BRANCH  11  13
ATOM     13  C   UNL     1       2.459   5.299  18.724  0.00  0.00    +0.000 A 
ATOM     14  C   UNL     1       2.575   5.619  20.087  0.00  0.00    +0.000 A 
ATOM     15  C   UNL     1       2.175   4.722  21.085  0.00  0.00    +0.000 A 
ATOM     16  C   UNL     1       1.619   3.500  20.728  0.00  0.00    +0.000 A 
ATOM     17 CL   UNL     1       1.119   2.393  21.946  0.00  0.00    +0.000 Cl
ATOM     18  C   UNL     1       1.453   3.175  19.385  0.00  0.00    +0.000 A 
ATOM     19  C   UNL     1       1.860   4.077  18.392  0.00  0.00    +0.000 A 
ENDBRANCH  11  13
ENDBRANCH   1  11
TORSDOF 4
ENDMDL
MODEL 5
REMARK VINA RESULT:      -7.0      1.817      2.452
REMARK  Name = 
REMARK  4 active torsions:
REMARK  status: ('A' for Active; 'I' for Inactive)
REMARK    1  A    between atoms: N_2  and  C_4
REMARK    2  A    between atoms: C_9  and  C_10
REMARK    3  A    between atoms: C_10  and  N_11
REMARK    4  A    between atoms: N_11  and  C_12
REMARK                            x       y       z     vdW  Elec       q    Type
REMARK                         _______ _______ _______ _____ _____    ______ ____
ROOT
ATOM      1  C   UNL     1       4.138   4.025  16.923  0.00  0.00    +0.000 C 
ENDROOT
BRANCH   1   7
ATOM      2  C   UNL     1       3.224   3.761  19.327  0.00  0.00    +0.000 A 
ATOM      3  C   UNL     1       2.593   4.289  20.467  0.00  0.00    +0.000 A 
ATOM      4  C   UNL     1       2.095   5.589  20.437  0.00  0.00    +0.000 A 
ATOM      5  C   UNL     1       2.219   6.346  19.274  0.00  0.00    +0.000 A 
ATOM      6  C   UNL     1       2.845   5.812  18.141  0.00  0.00    +0.000 A 
ATOM      7  C   UNL     1       3.373   4.506  18.143  0.00  0.00    +0.000 A 
BRANCH   2   9
ATOM      8  O   UNL     1       3.029   1.495  19.002  0.00  0.00    +0.000 OA
ATOM      9  N   UNL     1       3.743   2.408  19.437  0.00  0.00    +0.000 N 
ATOM     10  O   UNL     1       4.869   2.266  19.933  0.00  0.00    +0.000 OA
ENDBRANCH   2   9
ENDBRANCH   1   7
BRANCH   1  11
ATOM     11  N   UNL     1       5.553   3.826  17.209  0.00  0.00    +0.000 N 
ATOM     12  H   UNL     1       5.697   3.130  17.949  0.00  0.00    +0.000 HD
BRANCH  11  13
ATOM     13  C   UNL     1       6.337   4.962  17.486  0.00  0.00    +0.000 A 
ATOM     14  C   UNL     1       6.202   6.088  16.657  0.00  0.00    +0.000 A 
ATOM     15  C   UNL     1       6.904   7.272  16.912  0.00  0.00    +0.000 A 
ATOM     16  C   UNL     1       7.731   7.355  18.026  0.00  0.00    +0.000 A 
ATOM     17 CL   UNL     1       8.594   8.807  18.352  0.00  0.00    +0.000 Cl
ATOM     18  C   UNL     1       7.851   6.269  18.888  0.00  0.00    +0.000 A 
ATOM     19  C   UNL     1       7.147   5.086  18.623  0.00  0.00    +0.000 A 
ENDBRANCH  11  13
ENDBRANCH   1  11
TORSDOF 4
ENDMDL
MODEL 6
REMARK VINA RESULT:      -7.0      1.442      1.899
REMARK  Name = 
REMARK  4 active torsions:
REMARK  status: ('A' for Active; 'I' for Inactive)
REMARK    1  A    between atoms: N_2  and  C_4
REMARK    2  A    between atoms: C_9  and  C_10
REMARK    3  A    between atoms: C_10  and  N_11
REMARK    4  A    between atoms: N_11  and  C_12
REMARK                            x       y       z     vdW  Elec       q    Type
REMARK                         _______ _______ _______ _____ _____    ______ ____
ROOT
ATOM      1  C   UNL     1       3.684   3.672  17.351  0.00  0.00    +0.000 C 
ENDROOT
BRANCH   1   7
ATOM      2  C   UNL     1       3.149   2.678  19.678  0.00  0.00    +0.000 A 
ATOM      3  C   UNL     1       2.434   2.699  20.888  0.00  0.00    +0.000 A 
ATOM      4  C   UNL     1       1.420   3.635  21.071  0.00  0.00    +0.000 A 
ATOM      5  C   UNL     1       1.120   4.533  20.050  0.00  0.00    +0.000 A 
ATOM      6  C   UNL     1       1.833   4.504  18.844  0.00  0.00    +0.000 A 
ATOM      7  C   UNL     1       2.875   3.579  18.632  0.00  0.00    +0.000 A 
BRANCH   2   9
ATOM      8  O   UNL     1       5.159   1.793  20.353  0.00  0.00    +0.000 OA
ATOM      9  N   UNL     1       4.211   1.692  19.564  0.00  0.00    +0.000 N 
ATOM     10  O   UNL     1       4.078   0.807  18.706  0.00  0.00    +0.000 OA
ENDBRANCH   2   9
ENDBRANCH   1   7
BRANCH   1  11
ATOM     11  N   UNL     1       5.119   3.646  17.608  0.00  0.00    +0.000 N 
ATOM     12  H   UNL     1       5.348   3.072  18.427  0.00  0.00    +0.000 HD
BRANCH  11  13
ATOM     13  C   UNL     1       5.794   4.878  17.704  0.00  0.00    +0.000 A 
ATOM     14  C   UNL     1       7.010   4.922  18.407  0.00  0.00    +0.000 A 
ATOM     15  C   UNL     1       7.765   6.099  18.488  0.00  0.00    +0.000 A 
ATOM     16  C   UNL     1       7.326   7.244  17.835  0.00  0.00    +0.000 A 
ATOM     17 CL   UNL     1       8.248   8.693  17.923  0.00  0.00    +0.000 Cl
ATOM     18  C   UNL     1       6.147   7.216  17.096  0.00  0.00    +0.000 A 
ATOM     19  C   UNL     1       5.395   6.035  17.022  0.00  0.00    +0.000 A 
ENDBRANCH  11  13
ENDBRANCH   1  11
TORSDOF 4
ENDMDL
MODEL 7
REMARK VINA RESULT:      -7.0      3.048      5.629
REMARK  Name = 
REMARK  4 active torsions:
REMARK  status: ('A' for Active; 'I' for Inactive)
REMARK    1  A    between atoms: N_2  and  C_4
REMARK    2  A    between atoms: C_9  and  C_10
REMARK    3  A    between atoms: C_10  and  N_11
REMARK    4  A    between atoms: N_11  and  C_12
REMARK                            x       y       z     vdW  Elec       q    Type
REMARK                         _______ _______ _______ _____ _____    ______ ____
ROOT
ATOM      1  C   UNL     1       4.737   7.291  17.635  0.00  0.00    +0.000 C 
ENDROOT
BRANCH   1   7
ATOM      2  C   UNL     1       6.636   5.552  17.405  0.00  0.00    +0.000 A 
ATOM      3  C   UNL     1       7.292   4.535  16.689  0.00  0.00    +0.000 A 
ATOM      4  C   UNL     1       6.860   4.212  15.405  0.00  0.00    +0.000 A 
ATOM      5  C   UNL     1       5.792   4.906  14.843  0.00  0.00    +0.000 A 
ATOM      6  C   UNL     1       5.146   5.920  15.561  0.00  0.00    +0.000 A 
ATOM      7  C   UNL     1       5.547   6.263  16.867  0.00  0.00    +0.000 A 
BRANCH   2   9
ATOM      8  O   UNL     1       8.064   6.615  18.857  0.00  0.00    +0.000 OA
ATOM      9  N   UNL     1       7.122   5.820  18.749  0.00  0.00    +0.000 N 
ATOM     10  O   UNL     1       6.544   5.256  19.688  0.00  0.00    +0.000 OA
ENDBRANCH   2   9
ENDBRANCH   1   7
BRANCH   1  11
ATOM     11  N   UNL     1       3.303   7.057  17.517  0.00  0.00    +0.000 N 
ATOM     12  H   UNL     1       2.771   7.933  17.562  0.00  0.00    +0.000 HD
BRANCH  11  13
ATOM     13  C   UNL     1       2.715   6.114  18.381  0.00  0.00    +0.000 A 
ATOM     14  C   UNL     1       2.396   4.845  17.870  0.00  0.00    +0.000 A 
ATOM     15  C   UNL     1       1.866   3.839  18.688  0.00  0.00    +0.000 A 
ATOM     16  C   UNL     1       1.680   4.083  20.044  0.00  0.00    +0.000 A 
ATOM     17 CL   UNL     1       1.036   2.853  21.059  0.00  0.00    +0.000 Cl
ATOM     18  C   UNL     1       2.029   5.317  20.584  0.00  0.00    +0.000 A 
ATOM     19  C   UNL     1       2.554   6.319  19.757  0.00  0.00    +0.000 A 
ENDBRANCH  11  13
ENDBRANCH   1  11
TORSDOF 4
ENDMDL
MODEL 8
REMARK VINA RESULT:      -7.0      2.354      3.063
REMARK  Name = 
REMARK  4 active torsions:
REMARK  status: ('A' for Active; 'I' for Inactive)
REMARK    1  A    between atoms: N_2  and  C_4
REMARK    2  A    between atoms: C_9  and  C_10
REMARK    3  A    between atoms: C_10  and  N_11
REMARK    4  A    between atoms: N_11  and  C_12
REMARK                            x       y       z     vdW  Elec       q    Type
REMARK                         _______ _______ _______ _____ _____    ______ ____
ROOT
ATOM      1  C   UNL     1       3.331   5.819  19.155  0.00  0.00    +0.000 C 
ENDROOT
BRANCH   1   7
ATOM      2  C   UNL     1       1.844   3.707  19.028  0.00  0.00    +0.000 A 
ATOM      3  C   UNL     1       1.212   2.610  19.639  0.00  0.00    +0.000 A 
ATOM      4  C   UNL     1       1.273   2.466  21.022  0.00  0.00    +0.000 A 
ATOM      5  C   UNL     1       1.950   3.416  21.784  0.00  0.00    +0.000 A 
ATOM      6  C   UNL     1       2.573   4.509  21.169  0.00  0.00    +0.000 A 
ATOM      7  C   UNL     1       2.543   4.677  19.771  0.00  0.00    +0.000 A 
BRANCH   2   9
ATOM      8  O   UNL     1       0.887   4.516  17.102  0.00  0.00    +0.000 OA
ATOM      9  N   UNL     1       1.762   3.782  17.578  0.00  0.00    +0.000 N 
ATOM     10  O   UNL     1       2.589   3.129  16.926  0.00  0.00    +0.000 OA
ENDBRANCH   2   9
ENDBRANCH   1   7
BRANCH   1  11
ATOM     11  N   UNL     1       4.761   5.538  19.117  0.00  0.00    +0.000 N 
ATOM     12  H   UNL     1       5.300   6.248  19.625  0.00  0.00    +0.000 HD
BRANCH  11  13
ATOM     13  C   UNL     1       5.357   5.316  17.862  0.00  0.00    +0.000 A 
ATOM     14  C   UNL     1       4.762   5.890  16.725  0.00  0.00    +0.000 A 
ATOM     15  C   UNL     1       5.337   5.761  15.455  0.00  0.00    +0.000 A 
ATOM     16  C   UNL     1       6.540   5.080  15.311  0.00  0.00    +0.000 A 
ATOM     17 CL   UNL     1       7.257   4.921  13.755  0.00  0.00    +0.000 Cl
ATOM     18  C   UNL     1       7.173   4.539  16.425  0.00  0.00    +0.000 A 
ATOM     19  C   UNL     1       6.589   4.669  17.693  0.00  0.00    +0.000 A 
ENDBRANCH  11  13
ENDBRANCH   1  11
TORSDOF 4
ENDMDL
MODEL 9
REMARK VINA RESULT:      -6.9      2.129      2.832
REMARK  Name = 
REMARK  4 active torsions:
REMARK  status: ('A' for Active; 'I' for Inactive)
REMARK    1  A    between atoms: N_2  and  C_4
REMARK    2  A    between atoms: C_9  and  C_10
REMARK    3  A    between atoms: C_10  and  N_11
REMARK    4  A    between atoms: N_11  and  C_12
REMARK                            x       y       z     vdW  Elec       q    Type
REMARK                         _______ _______ _______ _____ _____    ______ ____
ROOT
ATOM      1  C   UNL     1       4.209   3.852  16.901  0.00  0.00    +0.000 C 
ENDROOT
BRANCH   1   7
ATOM      2  C   UNL     1       2.457   4.424  18.715  0.00  0.00    +0.000 A 
ATOM      3  C   UNL     1       1.356   4.072  19.515  0.00  0.00    +0.000 A 
ATOM      4  C   UNL     1       0.864   2.770  19.471  0.00  0.00    +0.000 A 
ATOM      5  C   UNL     1       1.476   1.830  18.645  0.00  0.00    +0.000 A 
ATOM      6  C   UNL     1       2.575   2.187  17.854  0.00  0.00    +0.000 A 
ATOM      7  C   UNL     1       3.089   3.499  17.863  0.00  0.00    +0.000 A 
BRANCH   2   9
ATOM      8  O   UNL     1       2.417   6.598  17.973  0.00  0.00    +0.000 OA
ATOM      9  N   UNL     1       2.902   5.805  18.790  0.00  0.00    +0.000 N 
ATOM     10  O   UNL     1       3.713   6.096  19.681  0.00  0.00    +0.000 OA
ENDBRANCH   2   9
ENDBRANCH   1   7
BRANCH   1  11
ATOM     11  N   UNL     1       5.519   3.767  17.534  0.00  0.00    +0.000 N 
ATOM     12  H   UNL     1       5.472   3.297  18.445  0.00  0.00    +0.000 HD
BRANCH  11  13
ATOM     13  C   UNL     1       6.267   4.953  17.665  0.00  0.00    +0.000 A 
ATOM     14  C   UNL     1       5.907   6.062  16.881  0.00  0.00    +0.000 A 
ATOM     15  C   UNL     1       6.568   7.291  17.006  0.00  0.00    +0.000 A 
ATOM     16  C   UNL     1       7.581   7.434  17.946  0.00  0.00    +0.000 A 
ATOM     17 CL   UNL     1       8.395   8.940  18.112  0.00  0.00    +0.000 Cl
ATOM     18  C   UNL     1       7.928   6.364  18.765  0.00  0.00    +0.000 A 
ATOM     19  C   UNL     1       7.264   5.136  18.631  0.00  0.00    +0.000 A 
ENDBRANCH  11  13
ENDBRANCH   1  11
TORSDOF 4
ENDMDL
