MODEL 1
REMARK VINA RESULT:      -8.6      0.000      0.000
REMARK  Name = 
REMARK  6 active torsions:
REMARK  status: ('A' for Active; 'I' for Inactive)
REMARK    1  A    between atoms: C_2  and  C_3
REMARK    2  A    between atoms: C_3  and  O_4
REMARK    3  A    between atoms: O_4  and  C_5
REMARK    4  A    between atoms: C_8  and  C_9
REMARK    5  A    between atoms: C_9  and  C_11
REMARK    6  A    between atoms: N_20  and  C_21
REMARK                            x       y       z     vdW  Elec       q    Type
REMARK                         _______ _______ _______ _____ _____    ______ ____
ROOT
ATOM      1  O   UNL     1       9.007   8.987  19.013  0.00  0.00    +0.000 OA
ENDROOT
BRANCH   1   2
ATOM      2  C   UNL     1       9.387  10.311  19.089  0.00  0.00    +0.000 A 
ATOM      3  C   UNL     1       9.516  10.835  20.377  0.00  0.00    +0.000 A 
ATOM      4  C   UNL     1       9.894  12.175  20.569  0.00  0.00    +0.000 A 
ATOM      5  C   UNL     1      10.155  13.010  19.479  0.00  0.00    +0.000 A 
ATOM      6  C   UNL     1      10.087  12.470  18.191  0.00  0.00    +0.000 A 
ATOM      7  C   UNL     1       9.687  11.137  17.999  0.00  0.00    +0.000 A 
BRANCH   5   8
ATOM      8  C   UNL     1      10.513  14.441  19.739  0.00  0.00    +0.000 C 
ATOM      9  O   UNL     1      11.588  14.691  20.278  0.00  0.00    +0.000 OA
BRANCH   8  10
ATOM     10  C   UNL     1       9.568  15.554  19.443  0.00  0.00    +0.000 A 
ATOM     11  C   UNL     1       8.433  15.704  20.261  0.00  0.00    +0.000 A 
ATOM     12  C   UNL     1       7.532  16.749  20.056  0.00  0.00    +0.000 A 
ATOM     13  C   UNL     1       7.754  17.668  19.042  0.00  0.00    +0.000 A 
ATOM     14  C   UNL     1       8.886  17.553  18.230  0.00  0.00    +0.000 A 
ATOM     15  C   UNL     1       9.791  16.498  18.425  0.00  0.00    +0.000 A 
ATOM     16 BR   UNL     1      11.249  16.414  17.210  0.00  0.00    +0.000 Br
ENDBRANCH   8  10
ENDBRANCH   5   8
ENDBRANCH   1   2
BRANCH   1  17
ATOM     17  C   UNL     1       8.216   8.652  17.879  0.00  0.00    +0.000 C 
BRANCH  17  19
ATOM     18  O   UNL     1       7.780   6.462  18.738  0.00  0.00    +0.000 OA
ATOM     19  C   UNL     1       7.453   7.320  17.920  0.00  0.00    +0.000 C 
ATOM     20  N   UNL     1       6.385   7.214  17.051  0.00  0.00    +0.000 N 
ATOM     21  H   UNL     1       6.090   8.074  16.600  0.00  0.00    +0.000 HD
BRANCH  20  22
ATOM     22  C   UNL     1       5.490   6.116  17.040  0.00  0.00    +0.000 A 
ATOM     23  C   UNL     1       5.804   4.838  16.586  0.00  0.00    +0.000 A 
ATOM     24  N   UNL     1       4.940   3.786  16.588  0.00  0.00    +0.000 NA
ATOM     25  C   UNL     1       3.768   3.945  17.223  0.00  0.00    +0.000 A 
ATOM     26  C   UNL     1       2.908   2.864  17.370  0.00  0.00    +0.000 A 
ATOM     27  C   UNL     1       1.802   2.926  18.222  0.00  0.00    +0.000 A 
ATOM     28  C   UNL     1       1.529   4.100  18.914  0.00  0.00    +0.000 A 
ATOM     29  C   UNL     1       2.295   5.238  18.668  0.00  0.00    +0.000 A 
ATOM     30  C   UNL     1       3.405   5.174  17.810  0.00  0.00    +0.000 A 
ATOM     31  C   UNL     1       4.226   6.292  17.589  0.00  0.00    +0.000 A 
ENDBRANCH  20  22
ENDBRANCH  17  19
ENDBRANCH   1  17
TORSDOF 6
ENDMDL
MODEL 2
REMARK VINA RESULT:      -8.5      7.265     10.843
REMARK  Name = 
REMARK  6 active torsions:
REMARK  status: ('A' for Active; 'I' for Inactive)
REMARK    1  A    between atoms: C_2  and  C_3
REMARK    2  A    between atoms: C_3  and  O_4
REMARK    3  A    between atoms: O_4  and  C_5
REMARK    4  A    between atoms: C_8  and  C_9
REMARK    5  A    between atoms: C_9  and  C_11
REMARK    6  A    between atoms: N_20  and  C_21
REMARK                            x       y       z     vdW  Elec       q    Type
REMARK                         _______ _______ _______ _____ _____    ______ ____
ROOT
ATOM      1  O   UNL     1       1.067   9.283  19.716  0.00  0.00    +0.000 OA
ENDROOT
BRANCH   1   2
ATOM      2  C   UNL     1       1.870   8.234  19.324  0.00  0.00    +0.000 A 
ATOM      3  C   UNL     1       1.952   7.162  20.215  0.00  0.00    +0.000 A 
ATOM      4  C   UNL     1       2.747   6.042  19.916  0.00  0.00    +0.000 A 
ATOM      5  C   UNL     1       3.467   5.972  18.719  0.00  0.00    +0.000 A 
ATOM      6  C   UNL     1       3.337   7.016  17.798  0.00  0.00    +0.000 A 
ATOM      7  C   UNL     1       2.560   8.145  18.108  0.00  0.00    +0.000 A 
BRANCH   5   8
ATOM      8  C   UNL     1       4.331   4.775  18.469  0.00  0.00    +0.000 C 
ATOM      9  O   UNL     1       4.338   3.869  19.298  0.00  0.00    +0.000 OA
BRANCH   8  10
ATOM     10  C   UNL     1       5.241   4.694  17.292  0.00  0.00    +0.000 A 
ATOM     11  C   UNL     1       4.720   4.218  16.075  0.00  0.00    +0.000 A 
ATOM     12  C   UNL     1       5.515   4.155  14.929  0.00  0.00    +0.000 A 
ATOM     13  C   UNL     1       6.834   4.577  14.975  0.00  0.00    +0.000 A 
ATOM     14  C   UNL     1       7.367   5.075  16.168  0.00  0.00    +0.000 A 
ATOM     15  C   UNL     1       6.577   5.132  17.325  0.00  0.00    +0.000 A 
ATOM     16 BR   UNL     1       7.442   5.760  18.896  0.00  0.00    +0.000 Br
ENDBRANCH   8  10
ENDBRANCH   5   8
ENDBRANCH   1   2
BRANCH   1  17
ATOM     17  C   UNL     1       1.158  10.448  18.903  0.00  0.00    +0.000 C 
BRANCH  17  19
ATOM     18  O   UNL     1      -0.098  12.463  18.600  0.00  0.00    +0.000 OA
ATOM     19  C   UNL     1      -0.137  11.234  18.651  0.00  0.00    +0.000 C 
ATOM     20  N   UNL     1      -1.268  10.472  18.431  0.00  0.00    +0.000 N 
ATOM     21  H   UNL     1      -1.113   9.481  18.275  0.00  0.00    +0.000 HD
BRANCH  20  22
ATOM     22  C   UNL     1      -2.519  11.017  18.053  0.00  0.00    +0.000 A 
ATOM     23  C   UNL     1      -3.083  10.911  16.785  0.00  0.00    +0.000 A 
ATOM     24  N   UNL     1      -4.292  11.430  16.433  0.00  0.00    +0.000 NA
ATOM     25  C   UNL     1      -5.063  11.927  17.413  0.00  0.00    +0.000 A 
ATOM     26  C   UNL     1      -6.357  12.345  17.129  0.00  0.00    +0.000 A 
ATOM     27  C   UNL     1      -7.266  12.640  18.149  0.00  0.00    +0.000 A 
ATOM     28  C   UNL     1      -6.866  12.549  19.477  0.00  0.00    +0.000 A 
ATOM     29  C   UNL     1      -5.534  12.271  19.777  0.00  0.00    +0.000 A 
ATOM     30  C   UNL     1      -4.621  11.978  18.750  0.00  0.00    +0.000 A 
ATOM     31  C   UNL     1      -3.287  11.640  19.029  0.00  0.00    +0.000 A 
ENDBRANCH  20  22
ENDBRANCH  17  19
ENDBRANCH   1  17
TORSDOF 6
ENDMDL
MODEL 3
REMARK VINA RESULT:      -8.5      7.937     11.974
REMARK  Name = 
REMARK  6 active torsions:
REMARK  status: ('A' for Active; 'I' for Inactive)
REMARK    1  A    between atoms: C_2  and  C_3
REMARK    2  A    between atoms: C_3  and  O_4
REMARK    3  A    between atoms: O_4  and  C_5
REMARK    4  A    between atoms: C_8  and  C_9
REMARK    5  A    between atoms: C_9  and  C_11
REMARK    6  A    between atoms: N_20  and  C_21
REMARK                            x       y       z     vdW  Elec       q    Type
REMARK                         _______ _______ _______ _____ _____    ______ ____
ROOT
ATOM      1  O   UNL     1       0.764  10.766  18.337  0.00  0.00    +0.000 OA
ENDROOT
BRANCH   1   2
ATOM      2  C   UNL     1       1.341   9.564  18.692  0.00  0.00    +0.000 A 
ATOM      3  C   UNL     1       2.126   8.953  17.713  0.00  0.00    +0.000 A 
ATOM      4  C   UNL     1       2.757   7.722  17.968  0.00  0.00    +0.000 A 
ATOM      5  C   UNL     1       2.618   7.088  19.205  0.00  0.00    +0.000 A 
ATOM      6  C   UNL     1       1.884   7.730  20.208  0.00  0.00    +0.000 A 
ATOM      7  C   UNL     1       1.235   8.948  19.944  0.00  0.00    +0.000 A 
BRANCH   5   8
ATOM      8  C   UNL     1       3.277   5.759  19.409  0.00  0.00    +0.000 C 
ATOM      9  O   UNL     1       4.467   5.731  19.708  0.00  0.00    +0.000 OA
BRANCH   8  10
ATOM     10  C   UNL     1       2.553   4.478  19.174  0.00  0.00    +0.000 A 
ATOM     11  C   UNL     1       1.495   4.139  20.038  0.00  0.00    +0.000 A 
ATOM     12  C   UNL     1       0.756   2.971  19.846  0.00  0.00    +0.000 A 
ATOM     13  C   UNL     1       1.051   2.130  18.783  0.00  0.00    +0.000 A 
ATOM     14  C   UNL     1       2.082   2.458  17.898  0.00  0.00    +0.000 A 
ATOM     15  C   UNL     1       2.836   3.625  18.092  0.00  0.00    +0.000 A 
ATOM     16 BR   UNL     1       4.254   3.917  16.863  0.00  0.00    +0.000 Br
ENDBRANCH   8  10
ENDBRANCH   5   8
ENDBRANCH   1   2
BRANCH   1  17
ATOM     17  C   UNL     1       1.074  11.859  19.194  0.00  0.00    +0.000 C 
BRANCH  17  19
ATOM     18  O   UNL     1      -0.154  13.823  19.797  0.00  0.00    +0.000 OA
ATOM     19  C   UNL     1      -0.104  12.595  19.851  0.00  0.00    +0.000 C 
ATOM     20  N   UNL     1      -1.077  11.790  20.410  0.00  0.00    +0.000 N 
ATOM     21  H   UNL     1      -1.023  10.802  20.183  0.00  0.00    +0.000 HD
BRANCH  20  22
ATOM     22  C   UNL     1      -2.293  12.284  20.941  0.00  0.00    +0.000 A 
ATOM     23  C   UNL     1      -3.401  12.654  20.182  0.00  0.00    +0.000 A 
ATOM     24  N   UNL     1      -4.570  13.119  20.701  0.00  0.00    +0.000 NA
ATOM     25  C   UNL     1      -4.727  13.058  22.033  0.00  0.00    +0.000 A 
ATOM     26  C   UNL     1      -5.949  13.394  22.602  0.00  0.00    +0.000 A 
ATOM     27  C   UNL     1      -6.226  13.117  23.943  0.00  0.00    +0.000 A 
ATOM     28  C   UNL     1      -5.254  12.525  24.741  0.00  0.00    +0.000 A 
ATOM     29  C   UNL     1      -3.977  12.314  24.227  0.00  0.00    +0.000 A 
ATOM     30  C   UNL     1      -3.699  12.595  22.879  0.00  0.00    +0.000 A 
ATOM     31  C   UNL     1      -2.435  12.338  22.322  0.00  0.00    +0.000 A 
ENDBRANCH  20  22
ENDBRANCH  17  19
ENDBRANCH   1  17
TORSDOF 6
ENDMDL
MODEL 4
REMARK VINA RESULT:      -8.4      3.576     11.354
REMARK  Name = 
REMARK  6 active torsions:
REMARK  status: ('A' for Active; 'I' for Inactive)
REMARK    1  A    between atoms: C_2  and  C_3
REMARK    2  A    between atoms: C_3  and  O_4
REMARK    3  A    between atoms: O_4  and  C_5
REMARK    4  A    between atoms: C_8  and  C_9
REMARK    5  A    between atoms: C_9  and  C_11
REMARK    6  A    between atoms: N_20  and  C_21
REMARK                            x       y       z     vdW  Elec       q    Type
REMARK                         _______ _______ _______ _____ _____    ______ ____
ROOT
ATOM      1  O   UNL     1       8.477   7.643  18.460  0.00  0.00    +0.000 OA
ENDROOT
BRANCH   1   2
ATOM      2  C   UNL     1       7.418   6.767  18.341  0.00  0.00    +0.000 A 
ATOM      3  C   UNL     1       6.585   6.965  17.238  0.00  0.00    +0.000 A 
ATOM      4  C   UNL     1       5.473   6.132  17.023  0.00  0.00    +0.000 A 
ATOM      5  C   UNL     1       5.180   5.086  17.903  0.00  0.00    +0.000 A 
ATOM      6  C   UNL     1       6.049   4.847  18.973  0.00  0.00    +0.000 A 
ATOM      7  C   UNL     1       7.147   5.695  19.199  0.00  0.00    +0.000 A 
BRANCH   5   8
ATOM      8  C   UNL     1       3.960   4.255  17.650  0.00  0.00    +0.000 C 
ATOM      9  O   UNL     1       3.755   3.838  16.514  0.00  0.00    +0.000 OA
BRANCH   8  10
ATOM     10  C   UNL     1       2.951   3.997  18.716  0.00  0.00    +0.000 A 
ATOM     11  C   UNL     1       2.712   2.665  19.103  0.00  0.00    +0.000 A 
ATOM     12  C   UNL     1       1.806   2.364  20.121  0.00  0.00    +0.000 A 
ATOM     13  C   UNL     1       1.134   3.385  20.776  0.00  0.00    +0.000 A 
ATOM     14  C   UNL     1       1.371   4.716  20.424  0.00  0.00    +0.000 A 
ATOM     15  C   UNL     1       2.274   5.025  19.395  0.00  0.00    +0.000 A 
ATOM     16 BR   UNL     1       2.451   6.867  18.965  0.00  0.00    +0.000 Br
ENDBRANCH   8  10
ENDBRANCH   5   8
ENDBRANCH   1   2
BRANCH   1  17
ATOM     17  C   UNL     1       8.251   8.939  17.917  0.00  0.00    +0.000 C 
BRANCH  17  19
ATOM     18  O   UNL     1       9.445   9.945  19.731  0.00  0.00    +0.000 OA
ATOM     19  C   UNL     1       8.877  10.131  18.655  0.00  0.00    +0.000 C 
ATOM     20  N   UNL     1       8.808  11.345  18.001  0.00  0.00    +0.000 N 
ATOM     21  H   UNL     1       8.518  11.311  17.028  0.00  0.00    +0.000 HD
BRANCH  20  22
ATOM     22  C   UNL     1       9.443  12.523  18.464  0.00  0.00    +0.000 A 
ATOM     23  C   UNL     1       9.769  12.781  19.794  0.00  0.00    +0.000 A 
ATOM     24  N   UNL     1      10.388  13.912  20.229  0.00  0.00    +0.000 NA
ATOM     25  C   UNL     1      10.866  14.756  19.301  0.00  0.00    +0.000 A 
ATOM     26  C   UNL     1      11.622  15.855  19.690  0.00  0.00    +0.000 A 
ATOM     27  C   UNL     1      12.333  16.614  18.756  0.00  0.00    +0.000 A 
ATOM     28  C   UNL     1      12.262  16.291  17.406  0.00  0.00    +0.000 A 
ATOM     29  C   UNL     1      11.396  15.285  16.985  0.00  0.00    +0.000 A 
ATOM     30  C   UNL     1      10.680  14.524  17.924  0.00  0.00    +0.000 A 
ATOM     31  C   UNL     1       9.845  13.467  17.527  0.00  0.00    +0.000 A 
ENDBRANCH  20  22
ENDBRANCH  17  19
ENDBRANCH   1  17
TORSDOF 6
ENDMDL
MODEL 5
REMARK VINA RESULT:      -8.3      3.482     11.343
REMARK  Name = 
REMARK  6 active torsions:
REMARK  status: ('A' for Active; 'I' for Inactive)
REMARK    1  A    between atoms: C_2  and  C_3
REMARK    2  A    between atoms: C_3  and  O_4
REMARK    3  A    between atoms: O_4  and  C_5
REMARK    4  A    between atoms: C_8  and  C_9
REMARK    5  A    between atoms: C_9  and  C_11
REMARK    6  A    between atoms: N_20  and  C_21
REMARK                            x       y       z     vdW  Elec       q    Type
REMARK                         _______ _______ _______ _____ _____    ______ ____
ROOT
ATOM      1  O   UNL     1       8.409   7.741  18.462  0.00  0.00    +0.000 OA
ENDROOT
BRANCH   1   2
ATOM      2  C   UNL     1       7.345   6.900  18.215  0.00  0.00    +0.000 A 
ATOM      3  C   UNL     1       7.128   5.897  19.161  0.00  0.00    +0.000 A 
ATOM      4  C   UNL     1       6.072   4.982  19.005  0.00  0.00    +0.000 A 
ATOM      5  C   UNL     1       5.214   5.059  17.904  0.00  0.00    +0.000 A 
ATOM      6  C   UNL     1       5.392   6.101  16.988  0.00  0.00    +0.000 A 
ATOM      7  C   UNL     1       6.461   7.001  17.133  0.00  0.00    +0.000 A 
BRANCH   5   8
ATOM      8  C   UNL     1       4.132   4.033  17.764  0.00  0.00    +0.000 C 
ATOM      9  O   UNL     1       4.069   3.379  16.728  0.00  0.00    +0.000 OA
BRANCH   8  10
ATOM     10  C   UNL     1       3.084   3.850  18.808  0.00  0.00    +0.000 A 
ATOM     11  C   UNL     1       2.955   2.586  19.413  0.00  0.00    +0.000 A 
ATOM     12  C   UNL     1       2.016   2.365  20.421  0.00  0.00    +0.000 A 
ATOM     13  C   UNL     1       1.203   3.401  20.852  0.00  0.00    +0.000 A 
ATOM     14  C   UNL     1       1.328   4.671  20.282  0.00  0.00    +0.000 A 
ATOM     15  C   UNL     1       2.262   4.898  19.260  0.00  0.00    +0.000 A 
ATOM     16 BR   UNL     1       2.281   6.648  18.521  0.00  0.00    +0.000 Br
ENDBRANCH   8  10
ENDBRANCH   5   8
ENDBRANCH   1   2
BRANCH   1  17
ATOM     17  C   UNL     1       8.289   9.045  17.904  0.00  0.00    +0.000 C 
BRANCH  17  19
ATOM     18  O   UNL     1       9.363  10.043  19.795  0.00  0.00    +0.000 OA
ATOM     19  C   UNL     1       9.017  10.190  18.624  0.00  0.00    +0.000 C 
ATOM     20  N   UNL     1       9.291  11.304  17.854  0.00  0.00    +0.000 N 
ATOM     21  H   UNL     1       9.155  11.199  16.854  0.00  0.00    +0.000 HD
BRANCH  20  22
ATOM     22  C   UNL     1      10.067  12.398  18.308  0.00  0.00    +0.000 A 
ATOM     23  C   UNL     1      11.433  12.350  18.573  0.00  0.00    +0.000 A 
ATOM     24  N   UNL     1      12.173  13.410  19.000  0.00  0.00    +0.000 NA
ATOM     25  C   UNL     1      11.586  14.617  19.003  0.00  0.00    +0.000 A 
ATOM     26  C   UNL     1      12.333  15.749  19.301  0.00  0.00    +0.000 A 
ATOM     27  C   UNL     1      11.826  17.033  19.084  0.00  0.00    +0.000 A 
ATOM     28  C   UNL     1      10.536  17.190  18.592  0.00  0.00    +0.000 A 
ATOM     29  C   UNL     1       9.722  16.072  18.424  0.00  0.00    +0.000 A 
ATOM     30  C   UNL     1      10.233  14.783  18.646  0.00  0.00    +0.000 A 
ATOM     31  C   UNL     1       9.449  13.637  18.430  0.00  0.00    +0.000 A 
ENDBRANCH  20  22
ENDBRANCH  17  19
ENDBRANCH   1  17
TORSDOF 6
ENDMDL
MODEL 6
REMARK VINA RESULT:      -8.3      4.016     11.374
REMARK  Name = 
REMARK  6 active torsions:
REMARK  status: ('A' for Active; 'I' for Inactive)
REMARK    1  A    between atoms: C_2  and  C_3
REMARK    2  A    between atoms: C_3  and  O_4
REMARK    3  A    between atoms: O_4  and  C_5
REMARK    4  A    between atoms: C_8  and  C_9
REMARK    5  A    between atoms: C_9  and  C_11
REMARK    6  A    between atoms: N_20  and  C_21
REMARK                            x       y       z     vdW  Elec       q    Type
REMARK                         _______ _______ _______ _____ _____    ______ ____
ROOT
ATOM      1  O   UNL     1       7.701   7.842  17.264  0.00  0.00    +0.000 OA
ENDROOT
BRANCH   1   2
ATOM      2  C   UNL     1       6.796   6.824  17.475  0.00  0.00    +0.000 A 
ATOM      3  C   UNL     1       5.705   6.788  16.604  0.00  0.00    +0.000 A 
ATOM      4  C   UNL     1       4.720   5.794  16.733  0.00  0.00    +0.000 A 
ATOM      5  C   UNL     1       4.813   4.816  17.728  0.00  0.00    +0.000 A 
ATOM      6  C   UNL     1       5.937   4.813  18.560  0.00  0.00    +0.000 A 
ATOM      7  C   UNL     1       6.909   5.821  18.446  0.00  0.00    +0.000 A 
BRANCH   5   8
ATOM      8  C   UNL     1       3.714   3.805  17.847  0.00  0.00    +0.000 C 
ATOM      9  O   UNL     1       3.424   3.132  16.862  0.00  0.00    +0.000 OA
BRANCH   8  10
ATOM     10  C   UNL     1       2.913   3.659  19.094  0.00  0.00    +0.000 A 
ATOM     11  C   UNL     1       1.716   4.390  19.211  0.00  0.00    +0.000 A 
ATOM     12  C   UNL     1       0.905   4.266  20.340  0.00  0.00    +0.000 A 
ATOM     13  C   UNL     1       1.266   3.402  21.362  0.00  0.00    +0.000 A 
ATOM     14  C   UNL     1       2.439   2.648  21.259  0.00  0.00    +0.000 A 
ATOM     15  C   UNL     1       3.264   2.776  20.131  0.00  0.00    +0.000 A 
ATOM     16 BR   UNL     1       4.864   1.752  20.147  0.00  0.00    +0.000 Br
ENDBRANCH   8  10
ENDBRANCH   5   8
ENDBRANCH   1   2
BRANCH   1  17
ATOM     17  C   UNL     1       8.316   8.354  18.441  0.00  0.00    +0.000 C 
BRANCH  17  19
ATOM     18  O   UNL     1       8.125  10.642  17.765  0.00  0.00    +0.000 OA
ATOM     19  C   UNL     1       8.767   9.822  18.419  0.00  0.00    +0.000 C 
ATOM     20  N   UNL     1       9.855  10.127  19.214  0.00  0.00    +0.000 N 
ATOM     21  H   UNL     1      10.143   9.409  19.871  0.00  0.00    +0.000 HD
BRANCH  20  22
ATOM     22  C   UNL     1      10.330  11.446  19.421  0.00  0.00    +0.000 A 
ATOM     23  C   UNL     1      10.951  12.229  18.452  0.00  0.00    +0.000 A 
ATOM     24  N   UNL     1      11.395  13.500  18.658  0.00  0.00    +0.000 NA
ATOM     25  C   UNL     1      11.062  14.095  19.813  0.00  0.00    +0.000 A 
ATOM     26  C   UNL     1      11.375  15.433  20.017  0.00  0.00    +0.000 A 
ATOM     27  C   UNL     1      10.841  16.149  21.093  0.00  0.00    +0.000 A 
ATOM     28  C   UNL     1      10.008  15.508  22.001  0.00  0.00    +0.000 A 
ATOM     29  C   UNL     1       9.800  14.135  21.895  0.00  0.00    +0.000 A 
ATOM     30  C   UNL     1      10.339  13.416  20.814  0.00  0.00    +0.000 A 
ATOM     31  C   UNL     1      10.097  12.042  20.654  0.00  0.00    +0.000 A 
ENDBRANCH  20  22
ENDBRANCH  17  19
ENDBRANCH   1  17
TORSDOF 6
ENDMDL
MODEL 7
REMARK VINA RESULT:      -8.3      7.243     11.324
REMARK  Name = 
REMARK  6 active torsions:
REMARK  status: ('A' for Active; 'I' for Inactive)
REMARK    1  A    between atoms: C_2  and  C_3
REMARK    2  A    between atoms: C_3  and  O_4
REMARK    3  A    between atoms: O_4  and  C_5
REMARK    4  A    between atoms: C_8  and  C_9
REMARK    5  A    between atoms: C_9  and  C_11
REMARK    6  A    between atoms: N_20  and  C_21
REMARK                            x       y       z     vdW  Elec       q    Type
REMARK                         _______ _______ _______ _____ _____    ______ ____
ROOT
ATOM      1  O   UNL     1       0.753   7.446  20.914  0.00  0.00    +0.000 OA
ENDROOT
BRANCH   1   2
ATOM      2  C   UNL     1       1.697   6.538  20.483  0.00  0.00    +0.000 A 
ATOM      3  C   UNL     1       2.600   7.006  19.527  0.00  0.00    +0.000 A 
ATOM      4  C   UNL     1       3.601   6.161  19.014  0.00  0.00    +0.000 A 
ATOM      5  C   UNL     1       3.717   4.839  19.453  0.00  0.00    +0.000 A 
ATOM      6  C   UNL     1       2.853   4.388  20.456  0.00  0.00    +0.000 A 
ATOM      7  C   UNL     1       1.839   5.226  20.951  0.00  0.00    +0.000 A 
BRANCH   5   8
ATOM      8  C   UNL     1       4.774   3.970  18.844  0.00  0.00    +0.000 C 
ATOM      9  O   UNL     1       5.148   2.976  19.460  0.00  0.00    +0.000 OA
BRANCH   8  10
ATOM     10  C   UNL     1       5.441   4.327  17.560  0.00  0.00    +0.000 A 
ATOM     11  C   UNL     1       4.837   3.921  16.357  0.00  0.00    +0.000 A 
ATOM     12  C   UNL     1       5.395   4.257  15.123  0.00  0.00    +0.000 A 
ATOM     13  C   UNL     1       6.555   5.015  15.069  0.00  0.00    +0.000 A 
ATOM     14  C   UNL     1       7.161   5.449  16.251  0.00  0.00    +0.000 A 
ATOM     15  C   UNL     1       6.610   5.105  17.495  0.00  0.00    +0.000 A 
ATOM     16 BR   UNL     1       7.570   5.697  19.024  0.00  0.00    +0.000 Br
ENDBRANCH   8  10
ENDBRANCH   5   8
ENDBRANCH   1   2
BRANCH   1  17
ATOM     17  C   UNL     1       1.069   8.810  20.658  0.00  0.00    +0.000 C 
BRANCH  17  19
ATOM     18  O   UNL     1       1.013   9.728  22.868  0.00  0.00    +0.000 OA
ATOM     19  C   UNL     1       0.629   9.844  21.705  0.00  0.00    +0.000 C 
ATOM     20  N   UNL     1      -0.134  10.892  21.228  0.00  0.00    +0.000 N 
ATOM     21  H   UNL     1      -0.183  10.985  20.219  0.00  0.00    +0.000 HD
BRANCH  20  22
ATOM     22  C   UNL     1      -0.520  12.004  22.017  0.00  0.00    +0.000 A 
ATOM     23  C   UNL     1       0.100  13.251  21.992  0.00  0.00    +0.000 A 
ATOM     24  N   UNL     1      -0.283  14.317  22.746  0.00  0.00    +0.000 NA
ATOM     25  C   UNL     1      -1.433  14.212  23.431  0.00  0.00    +0.000 A 
ATOM     26  C   UNL     1      -1.936  15.315  24.109  0.00  0.00    +0.000 A 
ATOM     27  C   UNL     1      -3.234  15.319  24.628  0.00  0.00    +0.000 A 
ATOM     28  C   UNL     1      -4.032  14.188  24.499  0.00  0.00    +0.000 A 
ATOM     29  C   UNL     1      -3.494  13.025  23.951  0.00  0.00    +0.000 A 
ATOM     30  C   UNL     1      -2.189  13.023  23.432  0.00  0.00    +0.000 A 
ATOM     31  C   UNL     1      -1.643  11.880  22.825  0.00  0.00    +0.000 A 
ENDBRANCH  20  22
ENDBRANCH  17  19
ENDBRANCH   1  17
TORSDOF 6
ENDMDL
MODEL 8
REMARK VINA RESULT:      -8.3      8.259     11.086
REMARK  Name = 
REMARK  6 active torsions:
REMARK  status: ('A' for Active; 'I' for Inactive)
REMARK    1  A    between atoms: C_2  and  C_3
REMARK    2  A    between atoms: C_3  and  O_4
REMARK    3  A    between atoms: O_4  and  C_5
REMARK    4  A    between atoms: C_8  and  C_9
REMARK    5  A    between atoms: C_9  and  C_11
REMARK    6  A    between atoms: N_20  and  C_21
REMARK                            x       y       z     vdW  Elec       q    Type
REMARK                         _______ _______ _______ _____ _____    ______ ____
ROOT
ATOM      1  O   UNL     1       0.274  10.023  17.952  0.00  0.00    +0.000 OA
ENDROOT
BRANCH   1   2
ATOM      2  C   UNL     1      -0.999  10.536  18.085  0.00  0.00    +0.000 A 
ATOM      3  C   UNL     1      -1.960  10.017  17.215  0.00  0.00    +0.000 A 
ATOM      4  C   UNL     1      -3.289  10.474  17.263  0.00  0.00    +0.000 A 
ATOM      5  C   UNL     1      -3.679  11.451  18.183  0.00  0.00    +0.000 A 
ATOM      6  C   UNL     1      -2.733  11.926  19.097  0.00  0.00    +0.000 A 
ATOM      7  C   UNL     1      -1.400  11.486  19.033  0.00  0.00    +0.000 A 
BRANCH   5   8
ATOM      8  C   UNL     1      -5.098  11.931  18.163  0.00  0.00    +0.000 C 
ATOM      9  O   UNL     1      -5.619  12.185  17.081  0.00  0.00    +0.000 OA
BRANCH   8  10
ATOM     10  C   UNL     1      -5.858  12.189  19.418  0.00  0.00    +0.000 A 
ATOM     11  C   UNL     1      -5.761  13.463  20.009  0.00  0.00    +0.000 A 
ATOM     12  C   UNL     1      -6.478  13.775  21.165  0.00  0.00    +0.000 A 
ATOM     13  C   UNL     1      -7.312  12.829  21.741  0.00  0.00    +0.000 A 
ATOM     14  C   UNL     1      -7.441  11.565  21.159  0.00  0.00    +0.000 A 
ATOM     15  C   UNL     1      -6.715  11.241  20.003  0.00  0.00    +0.000 A 
ATOM     16 BR   UNL     1      -6.925   9.468  19.355  0.00  0.00    +0.000 Br
ENDBRANCH   8  10
ENDBRANCH   5   8
ENDBRANCH   1   2
BRANCH   1  17
ATOM     17  C   UNL     1       0.967   9.807  19.176  0.00  0.00    +0.000 C 
BRANCH  17  19
ATOM     18  O   UNL     1       1.742   7.950  20.472  0.00  0.00    +0.000 OA
ATOM     19  C   UNL     1       1.679   8.458  19.354  0.00  0.00    +0.000 C 
ATOM     20  N   UNL     1       2.151   7.872  18.195  0.00  0.00    +0.000 N 
ATOM     21  H   UNL     1       1.832   8.285  17.325  0.00  0.00    +0.000 HD
BRANCH  20  22
ATOM     22  C   UNL     1       2.716   6.574  18.147  0.00  0.00    +0.000 A 
ATOM     23  C   UNL     1       4.067   6.287  18.317  0.00  0.00    +0.000 A 
ATOM     24  N   UNL     1       4.600   5.034  18.279  0.00  0.00    +0.000 NA
ATOM     25  C   UNL     1       3.748   3.998  18.245  0.00  0.00    +0.000 A 
ATOM     26  C   UNL     1       4.234   2.700  18.339  0.00  0.00    +0.000 A 
ATOM     27  C   UNL     1       3.376   1.616  18.547  0.00  0.00    +0.000 A 
ATOM     28  C   UNL     1       2.005   1.827  18.628  0.00  0.00    +0.000 A 
ATOM     29  C   UNL     1       1.490   3.099  18.391  0.00  0.00    +0.000 A 
ATOM     30  C   UNL     1       2.353   4.187  18.180  0.00  0.00    +0.000 A 
ATOM     31  C   UNL     1       1.860   5.489  17.995  0.00  0.00    +0.000 A 
ENDBRANCH  20  22
ENDBRANCH  17  19
ENDBRANCH   1  17
TORSDOF 6
ENDMDL
MODEL 9
REMARK VINA RESULT:      -8.3      1.465      1.725
REMARK  Name = 
REMARK  6 active torsions:
REMARK  status: ('A' for Active; 'I' for Inactive)
REMARK    1  A    between atoms: C_2  and  C_3
REMARK    2  A    between atoms: C_3  and  O_4
REMARK    3  A    between atoms: O_4  and  C_5
REMARK    4  A    between atoms: C_8  and  C_9
REMARK    5  A    between atoms: C_9  and  C_11
REMARK    6  A    between atoms: N_20  and  C_21
REMARK                            x       y       z     vdW  Elec       q    Type
REMARK                         _______ _______ _______ _____ _____    ______ ____
ROOT
ATOM      1  O   UNL     1       8.594   8.859  18.623  0.00  0.00    +0.000 OA
ENDROOT
BRANCH   1   2
ATOM      2  C   UNL     1       9.019  10.158  18.803  0.00  0.00    +0.000 A 
ATOM      3  C   UNL     1       9.663  10.427  20.012  0.00  0.00    +0.000 A 
ATOM      4  C   UNL     1      10.133  11.720  20.300  0.00  0.00    +0.000 A 
ATOM      5  C   UNL     1       9.972  12.763  19.383  0.00  0.00    +0.000 A 
ATOM      6  C   UNL     1       9.384  12.481  18.146  0.00  0.00    +0.000 A 
ATOM      7  C   UNL     1       8.894  11.194  17.868  0.00  0.00    +0.000 A 
BRANCH   5   8
ATOM      8  C   UNL     1      10.454  14.130  19.757  0.00  0.00    +0.000 C 
ATOM      9  O   UNL     1      11.554  14.499  19.355  0.00  0.00    +0.000 OA
BRANCH   8  10
ATOM     10  C   UNL     1       9.677  15.014  20.671  0.00  0.00    +0.000 A 
ATOM     11  C   UNL     1       9.945  14.951  22.051  0.00  0.00    +0.000 A 
ATOM     12  C   UNL     1       9.275  15.781  22.952  0.00  0.00    +0.000 A 
ATOM     13  C   UNL     1       8.339  16.694  22.490  0.00  0.00    +0.000 A 
ATOM     14  C   UNL     1       8.073  16.790  21.122  0.00  0.00    +0.000 A 
ATOM     15  C   UNL     1       8.735  15.952  20.213  0.00  0.00    +0.000 A 
ATOM     16 BR   UNL     1       8.230  16.134  18.390  0.00  0.00    +0.000 Br
ENDBRANCH   8  10
ENDBRANCH   5   8
ENDBRANCH   1   2
BRANCH   1  17
ATOM     17  C   UNL     1       7.793   8.642  17.467  0.00  0.00    +0.000 C 
BRANCH  17  19
ATOM     18  O   UNL     1       7.623   6.431  16.566  0.00  0.00    +0.000 OA
ATOM     19  C   UNL     1       7.125   7.267  17.320  0.00  0.00    +0.000 C 
ATOM     20  N   UNL     1       6.021   7.048  18.120  0.00  0.00    +0.000 N 
ATOM     21  H   UNL     1       5.860   7.731  18.853  0.00  0.00    +0.000 HD
BRANCH  20  22
ATOM     22  C   UNL     1       5.358   5.800  18.217  0.00  0.00    +0.000 A 
ATOM     23  C   UNL     1       5.872   4.673  18.852  0.00  0.00    +0.000 A 
ATOM     24  N   UNL     1       5.223   3.480  18.949  0.00  0.00    +0.000 NA
ATOM     25  C   UNL     1       3.940   3.437  18.557  0.00  0.00    +0.000 A 
ATOM     26  C   UNL     1       3.195   2.282  18.758  0.00  0.00    +0.000 A 
ATOM     27  C   UNL     1       1.807   2.274  18.587  0.00  0.00    +0.000 A 
ATOM     28  C   UNL     1       1.157   3.431  18.175  0.00  0.00    +0.000 A 
ATOM     29  C   UNL     1       1.904   4.555  17.830  0.00  0.00    +0.000 A 
ATOM     30  C   UNL     1       3.298   4.560  18.000  0.00  0.00    +0.000 A 
ATOM     31  C   UNL     1       4.067   5.700  17.712  0.00  0.00    +0.000 A 
ENDBRANCH  20  22
ENDBRANCH  17  19
ENDBRANCH   1  17
TORSDOF 6
ENDMDL
