MODEL 1
REMARK VINA RESULT:      -6.9      0.000      0.000
REMARK  Name = 
REMARK  6 active torsions:
REMARK  status: ('A' for Active; 'I' for Inactive)
REMARK    1  A    between atoms: C_2  and  C_3
REMARK    2  A    between atoms: C_3  and  O_4
REMARK    3  A    between atoms: O_4  and  C_5
REMARK    4  A    between atoms: C_7  and  O_8
REMARK    5  A    between atoms: O_8  and  C_9
REMARK    6  A    between atoms: C_9  and  C_10
REMARK                            x       y       z     vdW  Elec       q    Type
REMARK                         _______ _______ _______ _____ _____    ______ ____
ROOT
ATOM      1  C   UNL     1       4.505   4.086  17.340  0.00  0.00    +0.000 A 
ATOM      2  C   UNL     1       5.665   4.608  17.916  0.00  0.00    +0.000 A 
ATOM      3  C   UNL     1       5.632   4.988  19.243  0.00  0.00    +0.000 A 
ATOM      4  N   UNL     1       4.542   4.863  20.021  0.00  0.00    +0.000 NA
ATOM      5  C   UNL     1       3.437   4.315  19.487  0.00  0.00    +0.000 A 
ATOM      6  C   UNL     1       2.326   4.186  20.313  0.00  0.00    +0.000 A 
ATOM      7  C   UNL     1       1.123   3.634  19.870  0.00  0.00    +0.000 A 
ATOM      8  C   UNL     1       1.033   3.151  18.580  0.00  0.00    +0.000 A 
ATOM      9  C   UNL     1       2.145   3.236  17.743  0.00  0.00    +0.000 A 
ATOM     10  C   UNL     1       3.354   3.870  18.147  0.00  0.00    +0.000 A 
ENDROOT
BRANCH   1  11
ATOM     11  O   UNL     1       4.647   3.818  15.995  0.00  0.00    +0.000 OA
BRANCH  11  12
ATOM     12  C   UNL     1       5.578   4.619  15.272  0.00  0.00    +0.000 C 
BRANCH  12  14
ATOM     13  C   UNL     1       6.121   3.495  12.738  0.00  0.00    +0.000 C 
ATOM     14  C   UNL     1       5.870   4.014  13.908  0.00  0.00    +0.000 C 
ENDBRANCH  12  14
ENDBRANCH  11  12
ENDBRANCH   1  11
BRANCH   3  15
ATOM     15  O   UNL     1       6.805   5.479  19.781  0.00  0.00    +0.000 OA
BRANCH  15  16
ATOM     16  C   UNL     1       7.855   5.599  18.817  0.00  0.00    +0.000 C 
BRANCH  16  17
ATOM     17  C   UNL     1       8.103   7.066  18.582  0.00  0.00    +0.000 C 
ATOM     18  C   UNL     1       7.608   7.784  17.563  0.00  0.00    +0.000 C 
ENDBRANCH  16  17
ENDBRANCH  15  16
ENDBRANCH   3  15
TORSDOF 6
ENDMDL
MODEL 2
REMARK VINA RESULT:      -6.9      0.984      1.136
REMARK  Name = 
REMARK  6 active torsions:
REMARK  status: ('A' for Active; 'I' for Inactive)
REMARK    1  A    between atoms: C_2  and  C_3
REMARK    2  A    between atoms: C_3  and  O_4
REMARK    3  A    between atoms: O_4  and  C_5
REMARK    4  A    between atoms: C_7  and  O_8
REMARK    5  A    between atoms: O_8  and  C_9
REMARK    6  A    between atoms: C_9  and  C_10
REMARK                            x       y       z     vdW  Elec       q    Type
REMARK                         _______ _______ _______ _____ _____    ______ ____
ROOT
ATOM      1  C   UNL     1       4.994   4.170  16.420  0.00  0.00    +0.000 A 
ATOM      2  C   UNL     1       6.293   4.486  16.824  0.00  0.00    +0.000 A 
ATOM      3  C   UNL     1       6.553   4.621  18.173  0.00  0.00    +0.000 A 
ATOM      4  N   UNL     1       5.620   4.443  19.127  0.00  0.00    +0.000 NA
ATOM      5  C   UNL     1       4.381   4.090  18.748  0.00  0.00    +0.000 A 
ATOM      6  C   UNL     1       3.437   3.901  19.752  0.00  0.00    +0.000 A 
ATOM      7  C   UNL     1       2.117   3.535  19.481  0.00  0.00    +0.000 A 
ATOM      8  C   UNL     1       1.733   3.303  18.175  0.00  0.00    +0.000 A 
ATOM      9  C   UNL     1       2.671   3.450  17.153  0.00  0.00    +0.000 A 
ATOM     10  C   UNL     1       3.998   3.903  17.399  0.00  0.00    +0.000 A 
ENDROOT
BRANCH   1  11
ATOM     11  O   UNL     1       4.851   4.140  15.050  0.00  0.00    +0.000 OA
BRANCH  11  12
ATOM     12  C   UNL     1       6.036   4.293  14.272  0.00  0.00    +0.000 C 
BRANCH  12  14
ATOM     13  C   UNL     1       5.827   2.891  11.830  0.00  0.00    +0.000 C 
ATOM     14  C   UNL     1       5.924   3.538  12.958  0.00  0.00    +0.000 C 
ENDBRANCH  12  14
ENDBRANCH  11  12
ENDBRANCH   1  11
BRANCH   3  15
ATOM     15  O   UNL     1       7.854   4.913  18.533  0.00  0.00    +0.000 OA
BRANCH  15  16
ATOM     16  C   UNL     1       8.002   6.228  19.075  0.00  0.00    +0.000 C 
BRANCH  16  17
ATOM     17  C   UNL     1       7.734   7.216  17.972  0.00  0.00    +0.000 C 
ATOM     18  C   UNL     1       8.171   8.483  17.939  0.00  0.00    +0.000 C 
ENDBRANCH  16  17
ENDBRANCH  15  16
ENDBRANCH   3  15
TORSDOF 6
ENDMDL
MODEL 3
REMARK VINA RESULT:      -6.8      1.833      2.324
REMARK  Name = 
REMARK  6 active torsions:
REMARK  status: ('A' for Active; 'I' for Inactive)
REMARK    1  A    between atoms: C_2  and  C_3
REMARK    2  A    between atoms: C_3  and  O_4
REMARK    3  A    between atoms: O_4  and  C_5
REMARK    4  A    between atoms: C_7  and  O_8
REMARK    5  A    between atoms: O_8  and  C_9
REMARK    6  A    between atoms: C_9  and  C_10
REMARK                            x       y       z     vdW  Elec       q    Type
REMARK                         _______ _______ _______ _____ _____    ______ ____
ROOT
ATOM      1  C   UNL     1       5.517   4.533  16.008  0.00  0.00    +0.000 A 
ATOM      2  C   UNL     1       6.408   5.608  16.009  0.00  0.00    +0.000 A 
ATOM      3  C   UNL     1       6.096   6.726  16.756  0.00  0.00    +0.000 A 
ATOM      4  N   UNL     1       4.982   6.828  17.504  0.00  0.00    +0.000 NA
ATOM      5  C   UNL     1       4.145   5.778  17.548  0.00  0.00    +0.000 A 
ATOM      6  C   UNL     1       3.006   5.903  18.337  0.00  0.00    +0.000 A 
ATOM      7  C   UNL     1       2.064   4.880  18.458  0.00  0.00    +0.000 A 
ATOM      8  C   UNL     1       2.281   3.679  17.815  0.00  0.00    +0.000 A 
ATOM      9  C   UNL     1       3.434   3.516  17.047  0.00  0.00    +0.000 A 
ATOM     10  C   UNL     1       4.366   4.572  16.842  0.00  0.00    +0.000 A 
ENDROOT
BRANCH   1  11
ATOM     11  O   UNL     1       5.905   3.515  15.165  0.00  0.00    +0.000 OA
BRANCH  11  12
ATOM     12  C   UNL     1       6.484   3.893  13.918  0.00  0.00    +0.000 C 
BRANCH  12  14
ATOM     13  C   UNL     1       4.781   3.215  11.769  0.00  0.00    +0.000 C 
ATOM     14  C   UNL     1       5.567   3.528  12.762  0.00  0.00    +0.000 C 
ENDBRANCH  12  14
ENDBRANCH  11  12
ENDBRANCH   1  11
BRANCH   3  15
ATOM     15  O   UNL     1       7.013   7.759  16.748  0.00  0.00    +0.000 OA
BRANCH  15  16
ATOM     16  C   UNL     1       7.796   7.821  17.943  0.00  0.00    +0.000 C 
BRANCH  16  17
ATOM     17  C   UNL     1       8.303   9.231  18.091  0.00  0.00    +0.000 C 
ATOM     18  C   UNL     1       9.104   9.670  19.073  0.00  0.00    +0.000 C 
ENDBRANCH  16  17
ENDBRANCH  15  16
ENDBRANCH   3  15
TORSDOF 6
ENDMDL
MODEL 4
REMARK VINA RESULT:      -6.8      1.520      4.785
REMARK  Name = 
REMARK  6 active torsions:
REMARK  status: ('A' for Active; 'I' for Inactive)
REMARK    1  A    between atoms: C_2  and  C_3
REMARK    2  A    between atoms: C_3  and  O_4
REMARK    3  A    between atoms: O_4  and  C_5
REMARK    4  A    between atoms: C_7  and  O_8
REMARK    5  A    between atoms: O_8  and  C_9
REMARK    6  A    between atoms: C_9  and  C_10
REMARK                            x       y       z     vdW  Elec       q    Type
REMARK                         _______ _______ _______ _____ _____    ______ ____
ROOT
ATOM      1  C   UNL     1       5.196   4.522  16.318  0.00  0.00    +0.000 A 
ATOM      2  C   UNL     1       4.311   3.573  16.837  0.00  0.00    +0.000 A 
ATOM      3  C   UNL     1       4.375   3.274  18.183  0.00  0.00    +0.000 A 
ATOM      4  N   UNL     1       5.234   3.866  19.032  0.00  0.00    +0.000 NA
ATOM      5  C   UNL     1       6.053   4.816  18.551  0.00  0.00    +0.000 A 
ATOM      6  C   UNL     1       6.925   5.422  19.449  0.00  0.00    +0.000 A 
ATOM      7  C   UNL     1       7.823   6.419  19.065  0.00  0.00    +0.000 A 
ATOM      8  C   UNL     1       7.825   6.863  17.758  0.00  0.00    +0.000 A 
ATOM      9  C   UNL     1       6.934   6.297  16.846  0.00  0.00    +0.000 A 
ATOM     10  C   UNL     1       6.069   5.223  17.196  0.00  0.00    +0.000 A 
ENDROOT
BRANCH   1  11
ATOM     11  O   UNL     1       5.083   4.672  14.954  0.00  0.00    +0.000 OA
BRANCH  11  12
ATOM     12  C   UNL     1       6.052   4.007  14.148  0.00  0.00    +0.000 C 
BRANCH  12  14
ATOM     13  C   UNL     1       4.919   3.146  11.708  0.00  0.00    +0.000 C 
ATOM     14  C   UNL     1       5.442   3.544  12.835  0.00  0.00    +0.000 C 
ENDBRANCH  12  14
ENDBRANCH  11  12
ENDBRANCH   1  11
BRANCH   3  15
ATOM     15  O   UNL     1       3.469   2.347  18.660  0.00  0.00    +0.000 OA
BRANCH  15  16
ATOM     16  C   UNL     1       2.175   2.472  18.065  0.00  0.00    +0.000 C 
BRANCH  16  17
ATOM     17  C   UNL     1       1.159   2.529  19.174  0.00  0.00    +0.000 C 
ATOM     18  C   UNL     1       0.968   3.568  20.001  0.00  0.00    +0.000 C 
ENDBRANCH  16  17
ENDBRANCH  15  16
ENDBRANCH   3  15
TORSDOF 6
ENDMDL
MODEL 5
REMARK VINA RESULT:      -6.7      2.038      5.023
REMARK  Name = 
REMARK  6 active torsions:
REMARK  status: ('A' for Active; 'I' for Inactive)
REMARK    1  A    between atoms: C_2  and  C_3
REMARK    2  A    between atoms: C_3  and  O_4
REMARK    3  A    between atoms: O_4  and  C_5
REMARK    4  A    between atoms: C_7  and  O_8
REMARK    5  A    between atoms: O_8  and  C_9
REMARK    6  A    between atoms: C_9  and  C_10
REMARK                            x       y       z     vdW  Elec       q    Type
REMARK                         _______ _______ _______ _____ _____    ______ ____
ROOT
ATOM      1  C   UNL     1       5.784   6.293  16.618  0.00  0.00    +0.000 A 
ATOM      2  C   UNL     1       6.365   5.446  15.672  0.00  0.00    +0.000 A 
ATOM      3  C   UNL     1       5.771   4.226  15.422  0.00  0.00    +0.000 A 
ATOM      4  N   UNL     1       4.643   3.814  16.029  0.00  0.00    +0.000 NA
ATOM      5  C   UNL     1       4.050   4.644  16.903  0.00  0.00    +0.000 A 
ATOM      6  C   UNL     1       2.880   4.202  17.510  0.00  0.00    +0.000 A 
ATOM      7  C   UNL     1       2.177   4.975  18.436  0.00  0.00    +0.000 A 
ATOM      8  C   UNL     1       2.624   6.247  18.734  0.00  0.00    +0.000 A 
ATOM      9  C   UNL     1       3.775   6.728  18.111  0.00  0.00    +0.000 A 
ATOM     10  C   UNL     1       4.552   5.926  17.228  0.00  0.00    +0.000 A 
ENDROOT
BRANCH   1  11
ATOM     11  O   UNL     1       6.514   7.442  16.830  0.00  0.00    +0.000 OA
BRANCH  11  12
ATOM     12  C   UNL     1       7.649   7.338  17.686  0.00  0.00    +0.000 C 
BRANCH  12  14
ATOM     13  C   UNL     1       8.704   9.890  18.277  0.00  0.00    +0.000 C 
ATOM     14  C   UNL     1       8.217   8.711  18.004  0.00  0.00    +0.000 C 
ENDBRANCH  12  14
ENDBRANCH  11  12
ENDBRANCH   1  11
BRANCH   3  15
ATOM     15  O   UNL     1       6.364   3.426  14.464  0.00  0.00    +0.000 OA
BRANCH  15  16
ATOM     16  C   UNL     1       6.331   4.003  13.155  0.00  0.00    +0.000 C 
BRANCH  16  17
ATOM     17  C   UNL     1       5.570   3.066  12.256  0.00  0.00    +0.000 C 
ATOM     18  C   UNL     1       4.453   3.372  11.580  0.00  0.00    +0.000 C 
ENDBRANCH  16  17
ENDBRANCH  15  16
ENDBRANCH   3  15
TORSDOF 6
ENDMDL
MODEL 6
REMARK VINA RESULT:      -6.7      1.281      4.375
REMARK  Name = 
REMARK  6 active torsions:
REMARK  status: ('A' for Active; 'I' for Inactive)
REMARK    1  A    between atoms: C_2  and  C_3
REMARK    2  A    between atoms: C_3  and  O_4
REMARK    3  A    between atoms: O_4  and  C_5
REMARK    4  A    between atoms: C_7  and  O_8
REMARK    5  A    between atoms: O_8  and  C_9
REMARK    6  A    between atoms: C_9  and  C_10
REMARK                            x       y       z     vdW  Elec       q    Type
REMARK                         _______ _______ _______ _____ _____    ______ ____
ROOT
ATOM      1  C   UNL     1       5.808   4.956  18.648  0.00  0.00    +0.000 A 
ATOM      2  C   UNL     1       6.477   4.627  17.467  0.00  0.00    +0.000 A 
ATOM      3  C   UNL     1       5.751   4.097  16.420  0.00  0.00    +0.000 A 
ATOM      4  N   UNL     1       4.421   3.897  16.468  0.00  0.00    +0.000 NA
ATOM      5  C   UNL     1       3.763   4.258  17.583  0.00  0.00    +0.000 A 
ATOM      6  C   UNL     1       2.388   4.052  17.606  0.00  0.00    +0.000 A 
ATOM      7  C   UNL     1       1.598   4.385  18.709  0.00  0.00    +0.000 A 
ATOM      8  C   UNL     1       2.185   4.984  19.805  0.00  0.00    +0.000 A 
ATOM      9  C   UNL     1       3.557   5.234  19.791  0.00  0.00    +0.000 A 
ATOM     10  C   UNL     1       4.393   4.828  18.713  0.00  0.00    +0.000 A 
ENDROOT
BRANCH   1  11
ATOM     11  O   UNL     1       6.655   5.402  19.639  0.00  0.00    +0.000 OA
BRANCH  11  12
ATOM     12  C   UNL     1       7.971   5.780  19.242  0.00  0.00    +0.000 C 
BRANCH  12  14
ATOM     13  C   UNL     1       7.927   8.181  17.756  0.00  0.00    +0.000 C 
ATOM     14  C   UNL     1       7.947   7.072  18.442  0.00  0.00    +0.000 C 
ENDBRANCH  12  14
ENDBRANCH  11  12
ENDBRANCH   1  11
BRANCH   3  15
ATOM     15  O   UNL     1       6.445   3.806  15.262  0.00  0.00    +0.000 OA
BRANCH  15  16
ATOM     16  C   UNL     1       5.866   4.401  14.097  0.00  0.00    +0.000 C 
BRANCH  16  17
ATOM     17  C   UNL     1       6.020   3.430  12.957  0.00  0.00    +0.000 C 
ATOM     18  C   UNL     1       5.191   3.326  11.908  0.00  0.00    +0.000 C 
ENDBRANCH  16  17
ENDBRANCH  15  16
ENDBRANCH   3  15
TORSDOF 6
ENDMDL
MODEL 7
REMARK VINA RESULT:      -6.7      2.592      3.618
REMARK  Name = 
REMARK  6 active torsions:
REMARK  status: ('A' for Active; 'I' for Inactive)
REMARK    1  A    between atoms: C_2  and  C_3
REMARK    2  A    between atoms: C_3  and  O_4
REMARK    3  A    between atoms: O_4  and  C_5
REMARK    4  A    between atoms: C_7  and  O_8
REMARK    5  A    between atoms: O_8  and  C_9
REMARK    6  A    between atoms: C_9  and  C_10
REMARK                            x       y       z     vdW  Elec       q    Type
REMARK                         _______ _______ _______ _____ _____    ______ ____
ROOT
ATOM      1  C   UNL     1       3.114   5.464  18.391  0.00  0.00    +0.000 A 
ATOM      2  C   UNL     1       4.409   5.448  17.869  0.00  0.00    +0.000 A 
ATOM      3  C   UNL     1       5.311   4.528  18.362  0.00  0.00    +0.000 A 
ATOM      4  N   UNL     1       5.003   3.626  19.311  0.00  0.00    +0.000 NA
ATOM      5  C   UNL     1       3.745   3.601  19.783  0.00  0.00    +0.000 A 
ATOM      6  C   UNL     1       3.447   2.653  20.755  0.00  0.00    +0.000 A 
ATOM      7  C   UNL     1       2.176   2.534  21.321  0.00  0.00    +0.000 A 
ATOM      8  C   UNL     1       1.156   3.350  20.874  0.00  0.00    +0.000 A 
ATOM      9  C   UNL     1       1.422   4.285  19.873  0.00  0.00    +0.000 A 
ATOM     10  C   UNL     1       2.728   4.480  19.342  0.00  0.00    +0.000 A 
ENDROOT
BRANCH   1  11
ATOM     11  O   UNL     1       2.337   6.476  17.871  0.00  0.00    +0.000 OA
BRANCH  11  12
ATOM     12  C   UNL     1       2.876   7.794  17.919  0.00  0.00    +0.000 C 
BRANCH  12  14
ATOM     13  C   UNL     1       0.817   9.721  18.081  0.00  0.00    +0.000 C 
ATOM     14  C   UNL     1       1.768   8.831  18.006  0.00  0.00    +0.000 C 
ENDBRANCH  12  14
ENDBRANCH  11  12
ENDBRANCH   1  11
BRANCH   3  15
ATOM     15  O   UNL     1       6.575   4.531  17.805  0.00  0.00    +0.000 OA
BRANCH  15  16
ATOM     16  C   UNL     1       6.851   5.716  17.051  0.00  0.00    +0.000 C 
BRANCH  16  17
ATOM     17  C   UNL     1       7.625   6.656  17.936  0.00  0.00    +0.000 C 
ATOM     18  C   UNL     1       7.814   7.963  17.703  0.00  0.00    +0.000 C 
ENDBRANCH  16  17
ENDBRANCH  15  16
ENDBRANCH   3  15
TORSDOF 6
ENDMDL
MODEL 8
REMARK VINA RESULT:      -6.6      1.607      4.861
REMARK  Name = 
REMARK  6 active torsions:
REMARK  status: ('A' for Active; 'I' for Inactive)
REMARK    1  A    between atoms: C_2  and  C_3
REMARK    2  A    between atoms: C_3  and  O_4
REMARK    3  A    between atoms: O_4  and  C_5
REMARK    4  A    between atoms: C_7  and  O_8
REMARK    5  A    between atoms: O_8  and  C_9
REMARK    6  A    between atoms: C_9  and  C_10
REMARK                            x       y       z     vdW  Elec       q    Type
REMARK                         _______ _______ _______ _____ _____    ______ ____
ROOT
ATOM      1  C   UNL     1       6.796   4.542  17.733  0.00  0.00    +0.000 A 
ATOM      2  C   UNL     1       7.178   4.444  16.393  0.00  0.00    +0.000 A 
ATOM      3  C   UNL     1       6.203   4.230  15.440  0.00  0.00    +0.000 A 
ATOM      4  N   UNL     1       4.893   4.130  15.732  0.00  0.00    +0.000 NA
ATOM      5  C   UNL     1       4.513   4.274  17.012  0.00  0.00    +0.000 A 
ATOM      6  C   UNL     1       3.153   4.178  17.288  0.00  0.00    +0.000 A 
ATOM      7  C   UNL     1       2.639   4.308  18.580  0.00  0.00    +0.000 A 
ATOM      8  C   UNL     1       3.497   4.589  19.625  0.00  0.00    +0.000 A 
ATOM      9  C   UNL     1       4.861   4.726  19.368  0.00  0.00    +0.000 A 
ATOM     10  C   UNL     1       5.416   4.516  18.074  0.00  0.00    +0.000 A 
ENDROOT
BRANCH   1  11
ATOM     11  O   UNL     1       7.867   4.678  18.588  0.00  0.00    +0.000 OA
BRANCH  11  12
ATOM     12  C   UNL     1       7.958   5.897  19.321  0.00  0.00    +0.000 C 
BRANCH  12  14
ATOM     13  C   UNL     1       7.875   8.126  17.589  0.00  0.00    +0.000 C 
ATOM     14  C   UNL     1       7.913   7.096  18.389  0.00  0.00    +0.000 C 
ENDBRANCH  12  14
ENDBRANCH  11  12
ENDBRANCH   1  11
BRANCH   3  15
ATOM     15  O   UNL     1       6.619   4.160  14.125  0.00  0.00    +0.000 OA
BRANCH  15  16
ATOM     16  C   UNL     1       5.563   3.819  13.222  0.00  0.00    +0.000 C 
BRANCH  16  17
ATOM     17  C   UNL     1       6.177   3.137  12.028  0.00  0.00    +0.000 C 
ATOM     18  C   UNL     1       5.746   1.992  11.481  0.00  0.00    +0.000 C 
ENDBRANCH  16  17
ENDBRANCH  15  16
ENDBRANCH   3  15
TORSDOF 6
ENDMDL
MODEL 9
REMARK VINA RESULT:      -6.6      2.722      4.534
REMARK  Name = 
REMARK  6 active torsions:
REMARK  status: ('A' for Active; 'I' for Inactive)
REMARK    1  A    between atoms: C_2  and  C_3
REMARK    2  A    between atoms: C_3  and  O_4
REMARK    3  A    between atoms: O_4  and  C_5
REMARK    4  A    between atoms: C_7  and  O_8
REMARK    5  A    between atoms: O_8  and  C_9
REMARK    6  A    between atoms: C_9  and  C_10
REMARK                            x       y       z     vdW  Elec       q    Type
REMARK                         _______ _______ _______ _____ _____    ______ ____
ROOT
ATOM      1  C   UNL     1       3.201   5.775  18.175  0.00  0.00    +0.000 A 
ATOM      2  C   UNL     1       4.318   5.884  17.344  0.00  0.00    +0.000 A 
ATOM      3  C   UNL     1       4.882   4.730  16.838  0.00  0.00    +0.000 A 
ATOM      4  N   UNL     1       4.398   3.500  17.086  0.00  0.00    +0.000 NA
ATOM      5  C   UNL     1       3.293   3.390  17.843  0.00  0.00    +0.000 A 
ATOM      6  C   UNL     1       2.804   2.110  18.078  0.00  0.00    +0.000 A 
ATOM      7  C   UNL     1       1.666   1.871  18.850  0.00  0.00    +0.000 A 
ATOM      8  C   UNL     1       0.963   2.940  19.368  0.00  0.00    +0.000 A 
ATOM      9  C   UNL     1       1.413   4.237  19.117  0.00  0.00    +0.000 A 
ATOM     10  C   UNL     1       2.615   4.499  18.402  0.00  0.00    +0.000 A 
ENDROOT
BRANCH   1  11
ATOM     11  O   UNL     1       2.783   6.989  18.675  0.00  0.00    +0.000 OA
BRANCH  11  12
ATOM     12  C   UNL     1       2.849   8.108  17.794  0.00  0.00    +0.000 C 
BRANCH  12  14
ATOM     13  C   UNL     1       0.622   9.807  18.151  0.00  0.00    +0.000 C 
ATOM     14  C   UNL     1       1.651   9.022  17.986  0.00  0.00    +0.000 C 
ENDBRANCH  12  14
ENDBRANCH  11  12
ENDBRANCH   1  11
BRANCH   3  15
ATOM     15  O   UNL     1       5.972   4.882  16.003  0.00  0.00    +0.000 OA
BRANCH  15  16
ATOM     16  C   UNL     1       6.188   3.751  15.154  0.00  0.00    +0.000 C 
BRANCH  16  17
ATOM     17  C   UNL     1       6.135   4.227  13.727  0.00  0.00    +0.000 C 
ATOM     18  C   UNL     1       6.057   3.438  12.646  0.00  0.00    +0.000 C 
ENDBRANCH  16  17
ENDBRANCH  15  16
ENDBRANCH   3  15
TORSDOF 6
ENDMDL
