MODEL 1
REMARK VINA RESULT:      -7.8      0.000      0.000
REMARK  Name = 
REMARK  6 active torsions:
REMARK  status: ('A' for Active; 'I' for Inactive)
REMARK    1  A    between atoms: C_1  and  C_2
REMARK    2  A    between atoms: C_2  and  N_3
REMARK    3  A    between atoms: C_7  and  O_8
REMARK    4  A    between atoms: O_8  and  C_9
REMARK    5  A    between atoms: C_9  and  C_10
REMARK    6  A    between atoms: C_15  and  C_16
REMARK                            x       y       z     vdW  Elec       q    Type
REMARK                         _______ _______ _______ _____ _____    ______ ____
ROOT
ATOM      1  N   UNL     1      -0.322  10.289  20.991  0.00  0.00    +0.000 N 
ATOM      2  C   UNL     1      -0.407   8.943  21.540  0.00  0.00    +0.000 C 
ATOM      3  C   UNL     1       0.960   8.245  21.506  0.00  0.00    +0.000 C 
ATOM      4  C   UNL     1       1.490   8.242  20.098  0.00  0.00    +0.000 A 
ATOM      5  C   UNL     1       2.271   7.201  19.548  0.00  0.00    +0.000 A 
ATOM      6  C   UNL     1       2.802   7.356  18.258  0.00  0.00    +0.000 A 
ATOM      7  C   UNL     1       2.507   8.469  17.479  0.00  0.00    +0.000 A 
ATOM      8  C   UNL     1       1.712   9.479  17.996  0.00  0.00    +0.000 A 
ATOM      9  C   UNL     1       1.216   9.383  19.300  0.00  0.00    +0.000 A 
ATOM     10  C   UNL     1       0.411  10.526  19.829  0.00  0.00    +0.000 C 
ATOM     11  O   UNL     1       0.431  11.610  19.254  0.00  0.00    +0.000 OA
ENDROOT
BRANCH   1  13
ATOM     12  C   UNL     1      -1.241  11.149  23.108  0.00  0.00    +0.000 C 
ATOM     13  C   UNL     1      -1.093  11.365  21.608  0.00  0.00    +0.000 C 
ENDBRANCH   1  13
BRANCH   5  14
ATOM     14  O   UNL     1       2.489   6.056  20.296  0.00  0.00    +0.000 OA
BRANCH  14  15
ATOM     15  C   UNL     1       1.710   4.938  19.863  0.00  0.00    +0.000 C 
BRANCH  15  16
ATOM     16  C   UNL     1       2.089   4.301  18.525  0.00  0.00    +0.000 C 
ATOM     17  O   UNL     1       1.216   4.127  17.668  0.00  0.00    +0.000 OA
ATOM     18  N   UNL     1       3.427   4.027  18.275  0.00  0.00    +0.000 N 
ATOM     19  C   UNL     1       4.504   4.136  19.258  0.00  0.00    +0.000 C 
ATOM     20  C   UNL     1       5.741   4.801  18.654  0.00  0.00    +0.000 C 
ATOM     21  C   UNL     1       6.170   4.140  17.336  0.00  0.00    +0.000 C 
ATOM     22  C   UNL     1       7.331   4.899  16.697  0.00  0.00    +0.000 C 
ATOM     23  C   UNL     1       4.983   4.060  16.367  0.00  0.00    +0.000 C 
ATOM     24  C   UNL     1       3.785   3.377  17.018  0.00  0.00    +0.000 C 
ENDBRANCH  15  16
ENDBRANCH  14  15
ENDBRANCH   5  14
TORSDOF 4
ENDMDL
MODEL 2
REMARK VINA RESULT:      -7.7      1.740      8.080
REMARK  Name = 
REMARK  6 active torsions:
REMARK  status: ('A' for Active; 'I' for Inactive)
REMARK    1  A    between atoms: C_1  and  C_2
REMARK    2  A    between atoms: C_2  and  N_3
REMARK    3  A    between atoms: C_7  and  O_8
REMARK    4  A    between atoms: O_8  and  C_9
REMARK    5  A    between atoms: C_9  and  C_10
REMARK    6  A    between atoms: C_15  and  C_16
REMARK                            x       y       z     vdW  Elec       q    Type
REMARK                         _______ _______ _______ _____ _____    ______ ____
ROOT
ATOM      1  N   UNL     1       4.652   4.288  16.964  0.00  0.00    +0.000 N 
ATOM      2  C   UNL     1       4.481   5.697  17.288  0.00  0.00    +0.000 C 
ATOM      3  C   UNL     1       4.231   5.893  18.790  0.00  0.00    +0.000 C 
ATOM      4  C   UNL     1       3.045   5.073  19.216  0.00  0.00    +0.000 A 
ATOM      5  C   UNL     1       2.132   5.463  20.221  0.00  0.00    +0.000 A 
ATOM      6  C   UNL     1       1.123   4.568  20.612  0.00  0.00    +0.000 A 
ATOM      7  C   UNL     1       0.950   3.344  19.974  0.00  0.00    +0.000 A 
ATOM      8  C   UNL     1       1.819   2.968  18.962  0.00  0.00    +0.000 A 
ATOM      9  C   UNL     1       2.870   3.811  18.590  0.00  0.00    +0.000 A 
ATOM     10  C   UNL     1       3.812   3.332  17.532  0.00  0.00    +0.000 C 
ATOM     11  O   UNL     1       3.830   2.146  17.217  0.00  0.00    +0.000 OA
ENDROOT
BRANCH   1  13
ATOM     12  C   UNL     1       5.690   4.898  14.815  0.00  0.00    +0.000 C 
ATOM     13  C   UNL     1       5.641   3.898  15.963  0.00  0.00    +0.000 C 
ENDBRANCH   1  13
BRANCH   5  14
ATOM     14  O   UNL     1       2.256   6.719  20.792  0.00  0.00    +0.000 OA
BRANCH  14  15
ATOM     15  C   UNL     1       1.025   7.445  20.839  0.00  0.00    +0.000 C 
BRANCH  15  16
ATOM     16  C   UNL     1       1.067   8.915  20.417  0.00  0.00    +0.000 C 
ATOM     17  O   UNL     1       1.399   9.204  19.263  0.00  0.00    +0.000 OA
ATOM     18  N   UNL     1       0.633   9.878  21.319  0.00  0.00    +0.000 N 
ATOM     19  C   UNL     1       0.294   9.626  22.718  0.00  0.00    +0.000 C 
ATOM     20  C   UNL     1      -0.985  10.359  23.120  0.00  0.00    +0.000 C 
ATOM     21  C   UNL     1      -0.939  11.850  22.753  0.00  0.00    +0.000 C 
ATOM     22  C   UNL     1      -2.274  12.527  23.056  0.00  0.00    +0.000 C 
ATOM     23  C   UNL     1      -0.573  12.024  21.274  0.00  0.00    +0.000 C 
ATOM     24  C   UNL     1       0.716  11.284  20.933  0.00  0.00    +0.000 C 
ENDBRANCH  15  16
ENDBRANCH  14  15
ENDBRANCH   5  14
TORSDOF 4
ENDMDL
MODEL 3
REMARK VINA RESULT:      -7.7      1.482      1.941
REMARK  Name = 
REMARK  6 active torsions:
REMARK  status: ('A' for Active; 'I' for Inactive)
REMARK    1  A    between atoms: C_1  and  C_2
REMARK    2  A    between atoms: C_2  and  N_3
REMARK    3  A    between atoms: C_7  and  O_8
REMARK    4  A    between atoms: O_8  and  C_9
REMARK    5  A    between atoms: C_9  and  C_10
REMARK    6  A    between atoms: C_15  and  C_16
REMARK                            x       y       z     vdW  Elec       q    Type
REMARK                         _______ _______ _______ _____ _____    ______ ____
ROOT
ATOM      1  N   UNL     1      -0.496  10.815  22.119  0.00  0.00    +0.000 N 
ATOM      2  C   UNL     1      -0.448   9.389  22.410  0.00  0.00    +0.000 C 
ATOM      3  C   UNL     1       0.887   8.777  21.962  0.00  0.00    +0.000 C 
ATOM      4  C   UNL     1       1.105   9.058  20.501  0.00  0.00    +0.000 A 
ATOM      5  C   UNL     1       1.762   8.176  19.614  0.00  0.00    +0.000 A 
ATOM      6  C   UNL     1       2.006   8.590  18.295  0.00  0.00    +0.000 A 
ATOM      7  C   UNL     1       1.540   9.811  17.818  0.00  0.00    +0.000 A 
ATOM      8  C   UNL     1       0.863  10.668  18.671  0.00  0.00    +0.000 A 
ATOM      9  C   UNL     1       0.657  10.311  20.006  0.00  0.00    +0.000 A 
ATOM     10  C   UNL     1      -0.029  11.296  20.897  0.00  0.00    +0.000 C 
ATOM     11  O   UNL     1      -0.143  12.466  20.546  0.00  0.00    +0.000 OA
ENDROOT
BRANCH   1  13
ATOM     12  C   UNL     1      -2.568  12.021  22.680  0.00  0.00    +0.000 C 
ATOM     13  C   UNL     1      -1.129  11.720  23.074  0.00  0.00    +0.000 C 
ENDBRANCH   1  13
BRANCH   5  14
ATOM     14  O   UNL     1       2.146   6.925  20.071  0.00  0.00    +0.000 OA
BRANCH  14  15
ATOM     15  C   UNL     1       2.484   6.017  19.019  0.00  0.00    +0.000 C 
BRANCH  15  16
ATOM     16  C   UNL     1       3.821   5.283  19.136  0.00  0.00    +0.000 C 
ATOM     17  O   UNL     1       3.960   4.412  20.002  0.00  0.00    +0.000 OA
ATOM     18  N   UNL     1       4.810   5.548  18.198  0.00  0.00    +0.000 N 
ATOM     19  C   UNL     1       4.751   6.608  17.194  0.00  0.00    +0.000 C 
ATOM     20  C   UNL     1       5.236   6.110  15.832  0.00  0.00    +0.000 C 
ATOM     21  C   UNL     1       6.604   5.417  15.922  0.00  0.00    +0.000 C 
ATOM     22  C   UNL     1       7.005   4.826  14.572  0.00  0.00    +0.000 C 
ATOM     23  C   UNL     1       6.580   4.327  17.000  0.00  0.00    +0.000 C 
ATOM     24  C   UNL     1       6.102   4.882  18.337  0.00  0.00    +0.000 C 
ENDBRANCH  15  16
ENDBRANCH  14  15
ENDBRANCH   5  14
TORSDOF 4
ENDMDL
MODEL 4
REMARK VINA RESULT:      -7.6      1.881      7.891
REMARK  Name = 
REMARK  6 active torsions:
REMARK  status: ('A' for Active; 'I' for Inactive)
REMARK    1  A    between atoms: C_1  and  C_2
REMARK    2  A    between atoms: C_2  and  N_3
REMARK    3  A    between atoms: C_7  and  O_8
REMARK    4  A    between atoms: O_8  and  C_9
REMARK    5  A    between atoms: C_9  and  C_10
REMARK    6  A    between atoms: C_15  and  C_16
REMARK                            x       y       z     vdW  Elec       q    Type
REMARK                         _______ _______ _______ _____ _____    ______ ____
ROOT
ATOM      1  N   UNL     1       4.627   4.366  16.929  0.00  0.00    +0.000 N 
ATOM      2  C   UNL     1       4.380   5.798  17.017  0.00  0.00    +0.000 C 
ATOM      3  C   UNL     1       4.168   6.234  18.474  0.00  0.00    +0.000 C 
ATOM      4  C   UNL     1       3.048   5.435  19.081  0.00  0.00    +0.000 A 
ATOM      5  C   UNL     1       2.145   5.941  20.043  0.00  0.00    +0.000 A 
ATOM      6  C   UNL     1       1.207   5.072  20.622  0.00  0.00    +0.000 A 
ATOM      7  C   UNL     1       1.089   3.749  20.208  0.00  0.00    +0.000 A 
ATOM      8  C   UNL     1       1.946   3.253  19.239  0.00  0.00    +0.000 A 
ATOM      9  C   UNL     1       2.931   4.077  18.686  0.00  0.00    +0.000 A 
ATOM     10  C   UNL     1       3.867   3.477  17.686  0.00  0.00    +0.000 C 
ATOM     11  O   UNL     1       3.947   2.257  17.575  0.00  0.00    +0.000 OA
ENDROOT
BRANCH   1  13
ATOM     12  C   UNL     1       6.935   4.597  16.100  0.00  0.00    +0.000 C 
ATOM     13  C   UNL     1       5.606   3.865  15.968  0.00  0.00    +0.000 C 
ENDBRANCH   1  13
BRANCH   5  14
ATOM     14  O   UNL     1       2.210   7.281  20.388  0.00  0.00    +0.000 OA
BRANCH  14  15
ATOM     15  C   UNL     1       1.009   7.770  20.991  0.00  0.00    +0.000 C 
BRANCH  15  16
ATOM     16  C   UNL     1       1.050   9.182  21.580  0.00  0.00    +0.000 C 
ATOM     17  O   UNL     1       1.802   9.418  22.532  0.00  0.00    +0.000 OA
ATOM     18  N   UNL     1       0.313  10.182  20.961  0.00  0.00    +0.000 N 
ATOM     19  C   UNL     1      -0.650   9.969  19.882  0.00  0.00    +0.000 C 
ATOM     20  C   UNL     1      -0.500  11.026  18.788  0.00  0.00    +0.000 C 
ATOM     21  C   UNL     1      -0.511  12.453  19.355  0.00  0.00    +0.000 C 
ATOM     22  C   UNL     1      -0.238  13.479  18.256  0.00  0.00    +0.000 C 
ATOM     23  C   UNL     1       0.521  12.588  20.483  0.00  0.00    +0.000 C 
ATOM     24  C   UNL     1       0.316  11.518  21.549  0.00  0.00    +0.000 C 
ENDBRANCH  15  16
ENDBRANCH  14  15
ENDBRANCH   5  14
TORSDOF 4
ENDMDL
MODEL 5
REMARK VINA RESULT:      -7.6      1.736      8.338
REMARK  Name = 
REMARK  6 active torsions:
REMARK  status: ('A' for Active; 'I' for Inactive)
REMARK    1  A    between atoms: C_1  and  C_2
REMARK    2  A    between atoms: C_2  and  N_3
REMARK    3  A    between atoms: C_7  and  O_8
REMARK    4  A    between atoms: O_8  and  C_9
REMARK    5  A    between atoms: C_9  and  C_10
REMARK    6  A    between atoms: C_15  and  C_16
REMARK                            x       y       z     vdW  Elec       q    Type
REMARK                         _______ _______ _______ _____ _____    ______ ____
ROOT
ATOM      1  N   UNL     1       5.594   4.977  17.416  0.00  0.00    +0.000 N 
ATOM      2  C   UNL     1       4.844   6.048  16.776  0.00  0.00    +0.000 C 
ATOM      3  C   UNL     1       4.310   7.047  17.813  0.00  0.00    +0.000 C 
ATOM      4  C   UNL     1       3.482   6.318  18.835  0.00  0.00    +0.000 A 
ATOM      5  C   UNL     1       2.346   6.866  19.471  0.00  0.00    +0.000 A 
ATOM      6  C   UNL     1       1.714   6.135  20.489  0.00  0.00    +0.000 A 
ATOM      7  C   UNL     1       2.128   4.850  20.825  0.00  0.00    +0.000 A 
ATOM      8  C   UNL     1       3.219   4.289  20.182  0.00  0.00    +0.000 A 
ATOM      9  C   UNL     1       3.907   5.015  19.205  0.00  0.00    +0.000 A 
ATOM     10  C   UNL     1       5.112   4.386  18.582  0.00  0.00    +0.000 C 
ATOM     11  O   UNL     1       5.634   3.407  19.108  0.00  0.00    +0.000 OA
ENDROOT
BRANCH   1  13
ATOM     12  C   UNL     1       6.909   4.950  15.334  0.00  0.00    +0.000 C 
ATOM     13  C   UNL     1       6.798   4.461  16.772  0.00  0.00    +0.000 C 
ENDBRANCH   1  13
BRANCH   5  14
ATOM     14  O   UNL     1       1.886   8.110  19.071  0.00  0.00    +0.000 OA
BRANCH  14  15
ATOM     15  C   UNL     1       1.235   8.837  20.118  0.00  0.00    +0.000 C 
BRANCH  15  16
ATOM     16  C   UNL     1       0.489  10.112  19.719  0.00  0.00    +0.000 C 
ATOM     17  O   UNL     1       0.301  10.354  18.523  0.00  0.00    +0.000 OA
ATOM     18  N   UNL     1      -0.044  10.911  20.722  0.00  0.00    +0.000 N 
ATOM     19  C   UNL     1       0.194  10.732  22.153  0.00  0.00    +0.000 C 
ATOM     20  C   UNL     1      -1.097  10.897  22.955  0.00  0.00    +0.000 C 
ATOM     21  C   UNL     1      -1.832  12.200  22.608  0.00  0.00    +0.000 C 
ATOM     22  C   UNL     1      -3.174  12.278  23.334  0.00  0.00    +0.000 C 
ATOM     23  C   UNL     1      -2.036  12.310  21.092  0.00  0.00    +0.000 C 
ATOM     24  C   UNL     1      -0.716  12.151  20.345  0.00  0.00    +0.000 C 
ENDBRANCH  15  16
ENDBRANCH  14  15
ENDBRANCH   5  14
TORSDOF 4
ENDMDL
MODEL 6
REMARK VINA RESULT:      -7.5      1.976      7.984
REMARK  Name = 
REMARK  6 active torsions:
REMARK  status: ('A' for Active; 'I' for Inactive)
REMARK    1  A    between atoms: C_1  and  C_2
REMARK    2  A    between atoms: C_2  and  N_3
REMARK    3  A    between atoms: C_7  and  O_8
REMARK    4  A    between atoms: O_8  and  C_9
REMARK    5  A    between atoms: C_9  and  C_10
REMARK    6  A    between atoms: C_15  and  C_16
REMARK                            x       y       z     vdW  Elec       q    Type
REMARK                         _______ _______ _______ _____ _____    ______ ____
ROOT
ATOM      1  N   UNL     1       3.498   3.879  19.372  0.00  0.00    +0.000 N 
ATOM      2  C   UNL     1       3.109   4.279  20.717  0.00  0.00    +0.000 C 
ATOM      3  C   UNL     1       1.873   5.190  20.687  0.00  0.00    +0.000 C 
ATOM      4  C   UNL     1       2.143   6.378  19.806  0.00  0.00    +0.000 A 
ATOM      5  C   UNL     1       1.623   7.670  20.038  0.00  0.00    +0.000 A 
ATOM      6  C   UNL     1       1.852   8.679  19.089  0.00  0.00    +0.000 A 
ATOM      7  C   UNL     1       2.650   8.458  17.971  0.00  0.00    +0.000 A 
ATOM      8  C   UNL     1       3.195   7.203  17.753  0.00  0.00    +0.000 A 
ATOM      9  C   UNL     1       2.936   6.161  18.649  0.00  0.00    +0.000 A 
ATOM     10  C   UNL     1       3.502   4.812  18.338  0.00  0.00    +0.000 C 
ATOM     11  O   UNL     1       3.925   4.569  17.212  0.00  0.00    +0.000 OA
ENDROOT
BRANCH   1  13
ATOM     12  C   UNL     1       2.914   1.660  18.477  0.00  0.00    +0.000 C 
ATOM     13  C   UNL     1       3.981   2.520  19.141  0.00  0.00    +0.000 C 
ENDBRANCH   1  13
BRANCH   5  14
ATOM     14  O   UNL     1       0.901   7.908  21.196  0.00  0.00    +0.000 OA
BRANCH  14  15
ATOM     15  C   UNL     1       1.346   9.062  21.915  0.00  0.00    +0.000 C 
BRANCH  15  16
ATOM     16  C   UNL     1       0.308   9.790  22.772  0.00  0.00    +0.000 C 
ATOM     17  O   UNL     1       0.269   9.575  23.988  0.00  0.00    +0.000 OA
ATOM     18  N   UNL     1      -0.496  10.749  22.170  0.00  0.00    +0.000 N 
ATOM     19  C   UNL     1      -0.560  11.008  20.733  0.00  0.00    +0.000 C 
ATOM     20  C   UNL     1      -0.571  12.509  20.440  0.00  0.00    +0.000 C 
ATOM     21  C   UNL     1      -1.644  13.250  21.252  0.00  0.00    +0.000 C 
ATOM     22  C   UNL     1      -1.552  14.758  21.030  0.00  0.00    +0.000 C 
ATOM     23  C   UNL     1      -1.510  12.918  22.744  0.00  0.00    +0.000 C 
ATOM     24  C   UNL     1      -1.517  11.411  22.977  0.00  0.00    +0.000 C 
ENDBRANCH  15  16
ENDBRANCH  14  15
ENDBRANCH   5  14
TORSDOF 4
ENDMDL
MODEL 7
REMARK VINA RESULT:      -7.4      2.415      4.345
REMARK  Name = 
REMARK  6 active torsions:
REMARK  status: ('A' for Active; 'I' for Inactive)
REMARK    1  A    between atoms: C_1  and  C_2
REMARK    2  A    between atoms: C_2  and  N_3
REMARK    3  A    between atoms: C_7  and  O_8
REMARK    4  A    between atoms: O_8  and  C_9
REMARK    5  A    between atoms: C_9  and  C_10
REMARK    6  A    between atoms: C_15  and  C_16
REMARK                            x       y       z     vdW  Elec       q    Type
REMARK                         _______ _______ _______ _____ _____    ______ ____
ROOT
ATOM      1  N   UNL     1       2.066   7.631  19.312  0.00  0.00    +0.000 N 
ATOM      2  C   UNL     1       2.900   7.133  18.228  0.00  0.00    +0.000 C 
ATOM      3  C   UNL     1       2.464   5.725  17.798  0.00  0.00    +0.000 C 
ATOM      4  C   UNL     1       2.485   4.805  18.988  0.00  0.00    +0.000 A 
ATOM      5  C   UNL     1       2.819   3.434  18.923  0.00  0.00    +0.000 A 
ATOM      6  C   UNL     1       2.698   2.647  20.079  0.00  0.00    +0.000 A 
ATOM      7  C   UNL     1       2.342   3.203  21.303  0.00  0.00    +0.000 A 
ATOM      8  C   UNL     1       2.048   4.554  21.385  0.00  0.00    +0.000 A 
ATOM      9  C   UNL     1       2.100   5.354  20.239  0.00  0.00    +0.000 A 
ATOM     10  C   UNL     1       1.718   6.793  20.370  0.00  0.00    +0.000 C 
ATOM     11  O   UNL     1       1.115   7.180  21.367  0.00  0.00    +0.000 OA
ENDROOT
BRANCH   1  13
ATOM     12  C   UNL     1       1.311   9.532  17.941  0.00  0.00    +0.000 C 
ATOM     13  C   UNL     1       1.683   9.040  19.333  0.00  0.00    +0.000 C 
ENDBRANCH   1  13
BRANCH   5  14
ATOM     14  O   UNL     1       3.257   2.903  17.720  0.00  0.00    +0.000 OA
BRANCH  14  15
ATOM     15  C   UNL     1       4.678   2.945  17.566  0.00  0.00    +0.000 C 
BRANCH  15  16
ATOM     16  C   UNL     1       5.239   3.950  16.557  0.00  0.00    +0.000 C 
ATOM     17  O   UNL     1       4.670   4.098  15.471  0.00  0.00    +0.000 OA
ATOM     18  N   UNL     1       6.318   4.738  16.934  0.00  0.00    +0.000 N 
ATOM     19  C   UNL     1       7.087   4.574  18.166  0.00  0.00    +0.000 C 
ATOM     20  C   UNL     1       7.376   5.924  18.823  0.00  0.00    +0.000 C 
ATOM     21  C   UNL     1       7.991   6.929  17.838  0.00  0.00    +0.000 C 
ATOM     22  C   UNL     1       8.156   8.301  18.490  0.00  0.00    +0.000 C 
ATOM     23  C   UNL     1       7.127   7.035  16.575  0.00  0.00    +0.000 C 
ATOM     24  C   UNL     1       6.883   5.663  15.956  0.00  0.00    +0.000 C 
ENDBRANCH  15  16
ENDBRANCH  14  15
ENDBRANCH   5  14
TORSDOF 4
ENDMDL
MODEL 8
REMARK VINA RESULT:      -7.4      2.782      4.397
REMARK  Name = 
REMARK  6 active torsions:
REMARK  status: ('A' for Active; 'I' for Inactive)
REMARK    1  A    between atoms: C_1  and  C_2
REMARK    2  A    between atoms: C_2  and  N_3
REMARK    3  A    between atoms: C_7  and  O_8
REMARK    4  A    between atoms: O_8  and  C_9
REMARK    5  A    between atoms: C_9  and  C_10
REMARK    6  A    between atoms: C_15  and  C_16
REMARK                            x       y       z     vdW  Elec       q    Type
REMARK                         _______ _______ _______ _____ _____    ______ ____
ROOT
ATOM      1  N   UNL     1      -3.189  11.450  18.491  0.00  0.00    +0.000 N 
ATOM      2  C   UNL     1      -2.796  10.398  17.564  0.00  0.00    +0.000 C 
ATOM      3  C   UNL     1      -1.590   9.612  18.099  0.00  0.00    +0.000 C 
ATOM      4  C   UNL     1      -0.457  10.558  18.384  0.00  0.00    +0.000 A 
ATOM      5  C   UNL     1       0.907  10.232  18.220  0.00  0.00    +0.000 A 
ATOM      6  C   UNL     1       1.884  11.158  18.621  0.00  0.00    +0.000 A 
ATOM      7  C   UNL     1       1.538  12.419  19.095  0.00  0.00    +0.000 A 
ATOM      8  C   UNL     1       0.202  12.762  19.226  0.00  0.00    +0.000 A 
ATOM      9  C   UNL     1      -0.794  11.840  18.891  0.00  0.00    +0.000 A 
ATOM     10  C   UNL     1      -2.219  12.240  19.105  0.00  0.00    +0.000 C 
ATOM     11  O   UNL     1      -2.486  13.211  19.806  0.00  0.00    +0.000 OA
ENDROOT
BRANCH   1  13
ATOM     12  C   UNL     1      -5.369  11.706  17.374  0.00  0.00    +0.000 C 
ATOM     13  C   UNL     1      -4.607  11.735  18.692  0.00  0.00    +0.000 C 
ENDBRANCH   1  13
BRANCH   5  14
ATOM     14  O   UNL     1       1.245   9.008  17.666  0.00  0.00    +0.000 OA
BRANCH  14  15
ATOM     15  C   UNL     1       2.384   8.401  18.283  0.00  0.00    +0.000 C 
BRANCH  15  16
ATOM     16  C   UNL     1       2.127   7.535  19.518  0.00  0.00    +0.000 C 
ATOM     17  O   UNL     1       1.753   8.071  20.566  0.00  0.00    +0.000 OA
ATOM     18  N   UNL     1       2.226   6.155  19.395  0.00  0.00    +0.000 N 
ATOM     19  C   UNL     1       2.730   5.452  18.217  0.00  0.00    +0.000 C 
ATOM     20  C   UNL     1       1.859   4.242  17.878  0.00  0.00    +0.000 C 
ATOM     21  C   UNL     1       1.634   3.331  19.095  0.00  0.00    +0.000 C 
ATOM     22  C   UNL     1       0.665   2.200  18.757  0.00  0.00    +0.000 C 
ATOM     23  C   UNL     1       1.114   4.147  20.284  0.00  0.00    +0.000 C 
ATOM     24  C   UNL     1       2.026   5.332  20.584  0.00  0.00    +0.000 C 
ENDBRANCH  15  16
ENDBRANCH  14  15
ENDBRANCH   5  14
TORSDOF 4
ENDMDL
MODEL 9
REMARK VINA RESULT:      -7.4      2.042      7.701
REMARK  Name = 
REMARK  6 active torsions:
REMARK  status: ('A' for Active; 'I' for Inactive)
REMARK    1  A    between atoms: C_1  and  C_2
REMARK    2  A    between atoms: C_2  and  N_3
REMARK    3  A    between atoms: C_7  and  O_8
REMARK    4  A    between atoms: O_8  and  C_9
REMARK    5  A    between atoms: C_9  and  C_10
REMARK    6  A    between atoms: C_15  and  C_16
REMARK                            x       y       z     vdW  Elec       q    Type
REMARK                         _______ _______ _______ _____ _____    ______ ____
ROOT
ATOM      1  N   UNL     1       3.262   3.973  19.224  0.00  0.00    +0.000 N 
ATOM      2  C   UNL     1       3.080   4.338  20.622  0.00  0.00    +0.000 C 
ATOM      3  C   UNL     1       1.886   5.289  20.794  0.00  0.00    +0.000 C 
ATOM      4  C   UNL     1       2.074   6.497  19.919  0.00  0.00    +0.000 A 
ATOM      5  C   UNL     1       1.639   7.797  20.261  0.00  0.00    +0.000 A 
ATOM      6  C   UNL     1       1.770   8.831  19.320  0.00  0.00    +0.000 A 
ATOM      7  C   UNL     1       2.395   8.623  18.095  0.00  0.00    +0.000 A 
ATOM      8  C   UNL     1       2.858   7.359  17.765  0.00  0.00    +0.000 A 
ATOM      9  C   UNL     1       2.689   6.296  18.656  0.00  0.00    +0.000 A 
ATOM     10  C   UNL     1       3.156   4.942  18.228  0.00  0.00    +0.000 C 
ATOM     11  O   UNL     1       3.408   4.724  17.047  0.00  0.00    +0.000 OA
ENDROOT
BRANCH   1  13
ATOM     12  C   UNL     1       2.442   1.726  18.638  0.00  0.00    +0.000 C 
ATOM     13  C   UNL     1       3.658   2.609  18.886  0.00  0.00    +0.000 C 
ENDBRANCH   1  13
BRANCH   5  14
ATOM     14  O   UNL     1       1.095   8.017  21.516  0.00  0.00    +0.000 OA
BRANCH  14  15
ATOM     15  C   UNL     1      -0.153   8.715  21.480  0.00  0.00    +0.000 C 
BRANCH  15  16
ATOM     16  C   UNL     1      -0.229  10.045  22.232  0.00  0.00    +0.000 C 
ATOM     17  O   UNL     1       0.060  10.078  23.433  0.00  0.00    +0.000 OA
ATOM     18  N   UNL     1      -0.526  11.197  21.517  0.00  0.00    +0.000 N 
ATOM     19  C   UNL     1      -0.947  11.231  20.118  0.00  0.00    +0.000 C 
ATOM     20  C   UNL     1      -0.238  12.347  19.351  0.00  0.00    +0.000 C 
ATOM     21  C   UNL     1      -0.350  13.703  20.065  0.00  0.00    +0.000 C 
ATOM     22  C   UNL     1       0.468  14.770  19.340  0.00  0.00    +0.000 C 
ATOM     23  C   UNL     1       0.105  13.577  21.524  0.00  0.00    +0.000 C 
ATOM     24  C   UNL     1      -0.644  12.459  22.242  0.00  0.00    +0.000 C 
ENDBRANCH  15  16
ENDBRANCH  14  15
ENDBRANCH   5  14
TORSDOF 4
ENDMDL
