MODEL 1
REMARK VINA RESULT:      -8.0      0.000      0.000
REMARK  Name = 
REMARK  9 active torsions:
REMARK  status: ('A' for Active; 'I' for Inactive)
REMARK    1  A    between atoms: C_1  and  O_2
REMARK    2  A    between atoms: O_2  and  C_3
REMARK    3  A    between atoms: C_5  and  C_6
REMARK    4  A    between atoms: C_15  and  O_16
REMARK    5  A    between atoms: O_16  and  C_17
REMARK    6  A    between atoms: C_18  and  O_19
REMARK    7  A    between atoms: O_19  and  C_20
REMARK    8  A    between atoms: C_23  and  C_24
REMARK    9  A    between atoms: C_26  and  C_27
REMARK                            x       y       z     vdW  Elec       q    Type
REMARK                         _______ _______ _______ _____ _____    ______ ____
ROOT
ATOM      1  C   UNL     1       0.873   8.823  20.389  0.00  0.00    +0.000 A 
ATOM      2  C   UNL     1       1.572   7.611  20.286  0.00  0.00    +0.000 A 
ATOM      3  C   UNL     1       2.417   7.372  19.206  0.00  0.00    +0.000 A 
ATOM      4  C   UNL     1       2.551   8.340  18.213  0.00  0.00    +0.000 A 
ATOM      5  C   UNL     1       1.869   9.560  18.292  0.00  0.00    +0.000 A 
ATOM      6  C   UNL     1       0.984   9.800  19.375  0.00  0.00    +0.000 A 
ENDROOT
BRANCH   3   7
ATOM      7  C   UNL     1       3.240   6.167  19.110  0.00  0.00    +0.000 C 
ATOM      8  C   UNL     1       3.043   5.027  19.782  0.00  0.00    +0.000 C 
ATOM      9  S   UNL     1       1.860   4.679  20.982  0.00  0.00    +0.000 S 
ATOM     10  C   UNL     1       2.456   3.045  21.199  0.00  0.00    +0.000 C 
ATOM     11  O   UNL     1       2.000   2.247  21.999  0.00  0.00    +0.000 OA
ATOM     12  N   UNL     1       3.489   2.813  20.349  0.00  0.00    +0.000 N 
ATOM     13  C   UNL     1       3.878   3.825  19.528  0.00  0.00    +0.000 C 
ATOM     14  O   UNL     1       4.768   3.746  18.695  0.00  0.00    +0.000 OA
ATOM     15  H   UNL     1       3.944   1.916  20.323  0.00  0.00    +0.000 HD
ENDBRANCH   3   7
BRANCH   1  17
ATOM     16  C   UNL     1       0.733   9.279  22.726  0.00  0.00    +0.000 C 
ATOM     17  O   UNL     1       0.091   8.890  21.516  0.00  0.00    +0.000 OA
ENDBRANCH   1  17
BRANCH   5  18
ATOM     18  O   UNL     1       2.085  10.555  17.370  0.00  0.00    +0.000 OA
ATOM     19  C   UNL     1       2.560  11.812  17.847  0.00  0.00    +0.000 C 
ENDBRANCH   5  18
BRANCH   6  20
ATOM     20  O   UNL     1       0.229  10.948  19.557  0.00  0.00    +0.000 OA
BRANCH  20  21
ATOM     21  C   UNL     1      -1.049  11.051  19.074  0.00  0.00    +0.000 A 
ATOM     22  C   UNL     1      -1.949  11.803  19.826  0.00  0.00    +0.000 A 
ATOM     23  C   UNL     1      -3.229  12.051  19.329  0.00  0.00    +0.000 A 
ATOM     24  C   UNL     1      -3.609  11.570  18.064  0.00  0.00    +0.000 A 
ATOM     25  C   UNL     1      -2.722  10.766  17.327  0.00  0.00    +0.000 A 
ATOM     26  C   UNL     1      -1.468  10.449  17.888  0.00  0.00    +0.000 A 
BRANCH  25  27
ATOM     27  C   UNL     1      -2.978  10.292  15.920  0.00  0.00    +0.000 C 
ATOM     28  F   UNL     1      -2.950  11.257  14.968  0.00  0.00    +0.000 F 
ATOM     29  F   UNL     1      -2.053   9.368  15.528  0.00  0.00    +0.000 F 
ATOM     30  F   UNL     1      -4.187   9.678  15.794  0.00  0.00    +0.000 F 
ENDBRANCH  25  27
BRANCH  24  31
ATOM     31  C   UNL     1      -4.897  11.963  17.566  0.00  0.00    +0.000 C 
ATOM     32  N   UNL     1      -5.933  12.312  17.178  0.00  0.00    +0.000 NA
ENDBRANCH  24  31
ENDBRANCH  20  21
ENDBRANCH   6  20
TORSDOF 7
ENDMDL
MODEL 2
REMARK VINA RESULT:      -8.0      1.323      2.958
REMARK  Name = 
REMARK  9 active torsions:
REMARK  status: ('A' for Active; 'I' for Inactive)
REMARK    1  A    between atoms: C_1  and  O_2
REMARK    2  A    between atoms: O_2  and  C_3
REMARK    3  A    between atoms: C_5  and  C_6
REMARK    4  A    between atoms: C_15  and  O_16
REMARK    5  A    between atoms: O_16  and  C_17
REMARK    6  A    between atoms: C_18  and  O_19
REMARK    7  A    between atoms: O_19  and  C_20
REMARK    8  A    between atoms: C_23  and  C_24
REMARK    9  A    between atoms: C_26  and  C_27
REMARK                            x       y       z     vdW  Elec       q    Type
REMARK                         _______ _______ _______ _____ _____    ______ ____
ROOT
ATOM      1  C   UNL     1       1.786   8.976  18.615  0.00  0.00    +0.000 A 
ATOM      2  C   UNL     1       2.426   7.728  18.653  0.00  0.00    +0.000 A 
ATOM      3  C   UNL     1       2.242   6.871  19.734  0.00  0.00    +0.000 A 
ATOM      4  C   UNL     1       1.429   7.270  20.794  0.00  0.00    +0.000 A 
ATOM      5  C   UNL     1       0.775   8.507  20.780  0.00  0.00    +0.000 A 
ATOM      6  C   UNL     1       0.981   9.398  19.695  0.00  0.00    +0.000 A 
ENDROOT
BRANCH   3   7
ATOM      7  C   UNL     1       2.808   5.524  19.769  0.00  0.00    +0.000 C 
ATOM      8  C   UNL     1       3.947   5.136  19.183  0.00  0.00    +0.000 C 
ATOM      9  S   UNL     1       5.002   6.051  18.178  0.00  0.00    +0.000 S 
ATOM     10  C   UNL     1       6.085   4.690  17.954  0.00  0.00    +0.000 C 
ATOM     11  O   UNL     1       7.088   4.716  17.262  0.00  0.00    +0.000 OA
ATOM     12  N   UNL     1       5.637   3.621  18.661  0.00  0.00    +0.000 N 
ATOM     13  C   UNL     1       4.486   3.764  19.373  0.00  0.00    +0.000 C 
ATOM     14  O   UNL     1       3.987   2.900  20.075  0.00  0.00    +0.000 OA
ATOM     15  H   UNL     1       6.147   2.754  18.664  0.00  0.00    +0.000 HD
ENDBRANCH   3   7
BRANCH   1  17
ATOM     16  C   UNL     1       2.600  10.999  17.648  0.00  0.00    +0.000 C 
ATOM     17  O   UNL     1       2.077   9.686  17.476  0.00  0.00    +0.000 OA
ENDBRANCH   1  17
BRANCH   5  18
ATOM     18  O   UNL     1      -0.109   8.854  21.773  0.00  0.00    +0.000 OA
ATOM     19  C   UNL     1       0.424   9.400  22.977  0.00  0.00    +0.000 C 
ENDBRANCH   5  18
BRANCH   6  20
ATOM     20  O   UNL     1       0.418  10.659  19.572  0.00  0.00    +0.000 OA
BRANCH  20  21
ATOM     21  C   UNL     1      -0.854  10.832  19.093  0.00  0.00    +0.000 A 
ATOM     22  C   UNL     1      -1.704  11.646  19.840  0.00  0.00    +0.000 A 
ATOM     23  C   UNL     1      -2.969  11.965  19.346  0.00  0.00    +0.000 A 
ATOM     24  C   UNL     1      -3.384  11.493  18.088  0.00  0.00    +0.000 A 
ATOM     25  C   UNL     1      -2.551  10.629  17.357  0.00  0.00    +0.000 A 
ATOM     26  C   UNL     1      -1.315  10.244  17.916  0.00  0.00    +0.000 A 
BRANCH  25  27
ATOM     27  C   UNL     1      -2.842  10.155  15.957  0.00  0.00    +0.000 C 
ATOM     28  F   UNL     1      -1.929   9.303  15.429  0.00  0.00    +0.000 F 
ATOM     29  F   UNL     1      -4.035   9.494  15.891  0.00  0.00    +0.000 F 
ATOM     30  F   UNL     1      -2.945  11.186  15.074  0.00  0.00    +0.000 F 
ENDBRANCH  25  27
BRANCH  24  31
ATOM     31  C   UNL     1      -4.649  11.957  17.591  0.00  0.00    +0.000 C 
ATOM     32  N   UNL     1      -5.656  12.334  17.158  0.00  0.00    +0.000 NA
ENDBRANCH  24  31
ENDBRANCH  20  21
ENDBRANCH   6  20
TORSDOF 7
ENDMDL
MODEL 3
REMARK VINA RESULT:      -7.9      0.961      1.168
REMARK  Name = 
REMARK  9 active torsions:
REMARK  status: ('A' for Active; 'I' for Inactive)
REMARK    1  A    between atoms: C_1  and  O_2
REMARK    2  A    between atoms: O_2  and  C_3
REMARK    3  A    between atoms: C_5  and  C_6
REMARK    4  A    between atoms: C_15  and  O_16
REMARK    5  A    between atoms: O_16  and  C_17
REMARK    6  A    between atoms: C_18  and  O_19
REMARK    7  A    between atoms: O_19  and  C_20
REMARK    8  A    between atoms: C_23  and  C_24
REMARK    9  A    between atoms: C_26  and  C_27
REMARK                            x       y       z     vdW  Elec       q    Type
REMARK                         _______ _______ _______ _____ _____    ______ ____
ROOT
ATOM      1  C   UNL     1       1.086   8.605  20.293  0.00  0.00    +0.000 A 
ATOM      2  C   UNL     1       1.848   7.460  20.017  0.00  0.00    +0.000 A 
ATOM      3  C   UNL     1       2.621   7.388  18.862  0.00  0.00    +0.000 A 
ATOM      4  C   UNL     1       2.621   8.457  17.968  0.00  0.00    +0.000 A 
ATOM      5  C   UNL     1       1.873   9.614  18.221  0.00  0.00    +0.000 A 
ATOM      6  C   UNL     1       1.059   9.683  19.381  0.00  0.00    +0.000 A 
ENDROOT
BRANCH   3   7
ATOM      7  C   UNL     1       3.506   6.258  18.584  0.00  0.00    +0.000 C 
ATOM      8  C   UNL     1       3.166   4.965  18.630  0.00  0.00    +0.000 C 
ATOM      9  S   UNL     1       1.665   4.267  19.099  0.00  0.00    +0.000 S 
ATOM     10  C   UNL     1       2.258   2.638  18.836  0.00  0.00    +0.000 C 
ATOM     11  O   UNL     1       1.608   1.628  19.038  0.00  0.00    +0.000 OA
ATOM     12  N   UNL     1       3.536   2.680  18.380  0.00  0.00    +0.000 N 
ATOM     13  C   UNL     1       4.118   3.899  18.223  0.00  0.00    +0.000 C 
ATOM     14  O   UNL     1       5.245   4.085  17.794  0.00  0.00    +0.000 OA
ATOM     15  H   UNL     1       4.032   1.833  18.157  0.00  0.00    +0.000 HD
ENDBRANCH   3   7
BRANCH   1  17
ATOM     16  C   UNL     1       0.848   9.298  22.564  0.00  0.00    +0.000 C 
ATOM     17  O   UNL     1       0.389   8.506  21.473  0.00  0.00    +0.000 OA
ENDBRANCH   1  17
BRANCH   5  18
ATOM     18  O   UNL     1       1.956  10.708  17.395  0.00  0.00    +0.000 OA
ATOM     19  C   UNL     1       2.553  11.892  17.919  0.00  0.00    +0.000 C 
ENDBRANCH   5  18
BRANCH   6  20
ATOM     20  O   UNL     1       0.252  10.753  19.735  0.00  0.00    +0.000 OA
BRANCH  20  21
ATOM     21  C   UNL     1      -1.003  10.909  19.206  0.00  0.00    +0.000 A 
ATOM     22  C   UNL     1      -1.888  11.721  19.913  0.00  0.00    +0.000 A 
ATOM     23  C   UNL     1      -3.136  12.022  19.368  0.00  0.00    +0.000 A 
ATOM     24  C   UNL     1      -3.499  11.535  18.100  0.00  0.00    +0.000 A 
ATOM     25  C   UNL     1      -2.630  10.673  17.409  0.00  0.00    +0.000 A 
ATOM     26  C   UNL     1      -1.413  10.306  18.018  0.00  0.00    +0.000 A 
BRANCH  25  27
ATOM     27  C   UNL     1      -2.863  10.184  16.003  0.00  0.00    +0.000 C 
ATOM     28  F   UNL     1      -4.083   9.640  15.772  0.00  0.00    +0.000 F 
ATOM     29  F   UNL     1      -2.739  11.196  15.096  0.00  0.00    +0.000 F 
ATOM     30  F   UNL     1      -1.957   9.241  15.628  0.00  0.00    +0.000 F 
ENDBRANCH  25  27
BRANCH  24  31
ATOM     31  C   UNL     1      -4.748  11.982  17.552  0.00  0.00    +0.000 C 
ATOM     32  N   UNL     1      -5.760  12.312  17.091  0.00  0.00    +0.000 NA
ENDBRANCH  24  31
ENDBRANCH  20  21
ENDBRANCH   6  20
TORSDOF 7
ENDMDL
MODEL 4
REMARK VINA RESULT:      -7.9      1.674      2.452
REMARK  Name = 
REMARK  9 active torsions:
REMARK  status: ('A' for Active; 'I' for Inactive)
REMARK    1  A    between atoms: C_1  and  O_2
REMARK    2  A    between atoms: O_2  and  C_3
REMARK    3  A    between atoms: C_5  and  C_6
REMARK    4  A    between atoms: C_15  and  O_16
REMARK    5  A    between atoms: O_16  and  C_17
REMARK    6  A    between atoms: C_18  and  O_19
REMARK    7  A    between atoms: O_19  and  C_20
REMARK    8  A    between atoms: C_23  and  C_24
REMARK    9  A    between atoms: C_26  and  C_27
REMARK                            x       y       z     vdW  Elec       q    Type
REMARK                         _______ _______ _______ _____ _____    ______ ____
ROOT
ATOM      1  C   UNL     1       1.058   8.526  20.488  0.00  0.00    +0.000 A 
ATOM      2  C   UNL     1       1.728   7.296  20.388  0.00  0.00    +0.000 A 
ATOM      3  C   UNL     1       2.513   7.008  19.277  0.00  0.00    +0.000 A 
ATOM      4  C   UNL     1       2.617   7.943  18.248  0.00  0.00    +0.000 A 
ATOM      5  C   UNL     1       1.963   9.178  18.323  0.00  0.00    +0.000 A 
ATOM      6  C   UNL     1       1.137   9.469  19.440  0.00  0.00    +0.000 A 
ENDROOT
BRANCH   3   7
ATOM      7  C   UNL     1       3.307   5.784  19.177  0.00  0.00    +0.000 C 
ATOM      8  C   UNL     1       4.404   5.619  18.429  0.00  0.00    +0.000 C 
ATOM      9  S   UNL     1       5.132   6.728  17.334  0.00  0.00    +0.000 S 
ATOM     10  C   UNL     1       6.396   5.590  16.909  0.00  0.00    +0.000 C 
ATOM     11  O   UNL     1       7.274   5.809  16.093  0.00  0.00    +0.000 OA
ATOM     12  N   UNL     1       6.245   4.444  17.621  0.00  0.00    +0.000 N 
ATOM     13  C   UNL     1       5.197   4.364  18.485  0.00  0.00    +0.000 C 
ATOM     14  O   UNL     1       4.959   3.410  19.208  0.00  0.00    +0.000 OA
ATOM     15  H   UNL     1       6.895   3.683  17.519  0.00  0.00    +0.000 HD
ENDBRANCH   3   7
BRANCH   1  17
ATOM     16  C   UNL     1       0.952   9.337  22.729  0.00  0.00    +0.000 C 
ATOM     17  O   UNL     1       0.335   8.642  21.650  0.00  0.00    +0.000 OA
ENDBRANCH   1  17
BRANCH   5  18
ATOM     18  O   UNL     1       2.152  10.141  17.361  0.00  0.00    +0.000 OA
ATOM     19  C   UNL     1       2.604  11.425  17.785  0.00  0.00    +0.000 C 
ENDBRANCH   5  18
BRANCH   6  20
ATOM     20  O   UNL     1       0.415  10.638  19.624  0.00  0.00    +0.000 OA
BRANCH  20  21
ATOM     21  C   UNL     1      -0.847  10.788  19.112  0.00  0.00    +0.000 A 
ATOM     22  C   UNL     1      -1.727  11.593  19.831  0.00  0.00    +0.000 A 
ATOM     23  C   UNL     1      -2.984  11.889  19.303  0.00  0.00    +0.000 A 
ATOM     24  C   UNL     1      -3.361  11.403  18.039  0.00  0.00    +0.000 A 
ATOM     25  C   UNL     1      -2.496  10.547  17.336  0.00  0.00    +0.000 A 
ATOM     26  C   UNL     1      -1.270  10.184  17.928  0.00  0.00    +0.000 A 
BRANCH  25  27
ATOM     27  C   UNL     1      -2.745  10.059  15.932  0.00  0.00    +0.000 C 
ATOM     28  F   UNL     1      -1.884   9.112  15.484  0.00  0.00    +0.000 F 
ATOM     29  F   UNL     1      -3.988   9.507  15.808  0.00  0.00    +0.000 F 
ATOM     30  F   UNL     1      -2.699  11.068  15.019  0.00  0.00    +0.000 F 
ENDBRANCH  25  27
BRANCH  24  31
ATOM     31  C   UNL     1      -4.620  11.844  17.508  0.00  0.00    +0.000 C 
ATOM     32  N   UNL     1      -5.619  12.222  17.057  0.00  0.00    +0.000 NA
ENDBRANCH  24  31
ENDBRANCH  20  21
ENDBRANCH   6  20
TORSDOF 7
ENDMDL
MODEL 5
REMARK VINA RESULT:      -7.8      0.201      2.126
REMARK  Name = 
REMARK  9 active torsions:
REMARK  status: ('A' for Active; 'I' for Inactive)
REMARK    1  A    between atoms: C_1  and  O_2
REMARK    2  A    between atoms: O_2  and  C_3
REMARK    3  A    between atoms: C_5  and  C_6
REMARK    4  A    between atoms: C_15  and  O_16
REMARK    5  A    between atoms: O_16  and  C_17
REMARK    6  A    between atoms: C_18  and  O_19
REMARK    7  A    between atoms: O_19  and  C_20
REMARK    8  A    between atoms: C_23  and  C_24
REMARK    9  A    between atoms: C_26  and  C_27
REMARK                            x       y       z     vdW  Elec       q    Type
REMARK                         _______ _______ _______ _____ _____    ______ ____
ROOT
ATOM      1  C   UNL     1       1.796   9.482  18.453  0.00  0.00    +0.000 A 
ATOM      2  C   UNL     1       2.564   8.321  18.281  0.00  0.00    +0.000 A 
ATOM      3  C   UNL     1       2.504   7.289  19.212  0.00  0.00    +0.000 A 
ATOM      4  C   UNL     1       1.686   7.422  20.332  0.00  0.00    +0.000 A 
ATOM      5  C   UNL     1       0.905   8.568  20.527  0.00  0.00    +0.000 A 
ATOM      6  C   UNL     1       0.983   9.637  19.598  0.00  0.00    +0.000 A 
ENDROOT
BRANCH   3   7
ATOM      7  C   UNL     1       3.210   6.023  19.021  0.00  0.00    +0.000 C 
ATOM      8  C   UNL     1       3.005   4.898  19.717  0.00  0.00    +0.000 C 
ATOM      9  S   UNL     1       1.951   4.639  21.052  0.00  0.00    +0.000 S 
ATOM     10  C   UNL     1       2.436   2.961  21.202  0.00  0.00    +0.000 C 
ATOM     11  O   UNL     1       2.018   2.198  22.055  0.00  0.00    +0.000 OA
ATOM     12  N   UNL     1       3.337   2.652  20.234  0.00  0.00    +0.000 N 
ATOM     13  C   UNL     1       3.704   3.634  19.368  0.00  0.00    +0.000 C 
ATOM     14  O   UNL     1       4.477   3.489  18.435  0.00  0.00    +0.000 OA
ATOM     15  H   UNL     1       3.712   1.722  20.157  0.00  0.00    +0.000 HD
ENDBRANCH   3   7
BRANCH   1  17
ATOM     16  C   UNL     1       2.581  11.634  17.786  0.00  0.00    +0.000 C 
ATOM     17  O   UNL     1       1.975  10.392  17.440  0.00  0.00    +0.000 OA
ENDBRANCH   1  17
BRANCH   5  18
ATOM     18  O   UNL     1       0.020   8.653  21.574  0.00  0.00    +0.000 OA
ATOM     19  C   UNL     1       0.429   9.376  22.733  0.00  0.00    +0.000 C 
ENDBRANCH   5  18
BRANCH   6  20
ATOM     20  O   UNL     1       0.287  10.833  19.688  0.00  0.00    +0.000 OA
BRANCH  20  21
ATOM     21  C   UNL     1      -0.979  10.965  19.181  0.00  0.00    +0.000 A 
ATOM     22  C   UNL     1      -1.868  11.758  19.903  0.00  0.00    +0.000 A 
ATOM     23  C   UNL     1      -3.131  12.036  19.379  0.00  0.00    +0.000 A 
ATOM     24  C   UNL     1      -3.505  11.543  18.117  0.00  0.00    +0.000 A 
ATOM     25  C   UNL     1      -2.631  10.698  17.411  0.00  0.00    +0.000 A 
ATOM     26  C   UNL     1      -1.397  10.354  17.999  0.00  0.00    +0.000 A 
BRANCH  25  27
ATOM     27  C   UNL     1      -2.879  10.206  16.008  0.00  0.00    +0.000 C 
ATOM     28  F   UNL     1      -2.845  11.157  15.044  0.00  0.00    +0.000 F 
ATOM     29  F   UNL     1      -1.951   9.277  15.635  0.00  0.00    +0.000 F 
ATOM     30  F   UNL     1      -4.086   9.589  15.883  0.00  0.00    +0.000 F 
ENDBRANCH  25  27
BRANCH  24  31
ATOM     31  C   UNL     1      -4.772  11.966  17.590  0.00  0.00    +0.000 C 
ATOM     32  N   UNL     1      -5.811  12.287  17.189  0.00  0.00    +0.000 NA
ENDBRANCH  24  31
ENDBRANCH  20  21
ENDBRANCH   6  20
TORSDOF 7
ENDMDL
MODEL 6
REMARK VINA RESULT:      -7.7      4.121      8.367
REMARK  Name = 
REMARK  9 active torsions:
REMARK  status: ('A' for Active; 'I' for Inactive)
REMARK    1  A    between atoms: C_1  and  O_2
REMARK    2  A    between atoms: O_2  and  C_3
REMARK    3  A    between atoms: C_5  and  C_6
REMARK    4  A    between atoms: C_15  and  O_16
REMARK    5  A    between atoms: O_16  and  C_17
REMARK    6  A    between atoms: C_18  and  O_19
REMARK    7  A    between atoms: O_19  and  C_20
REMARK    8  A    between atoms: C_23  and  C_24
REMARK    9  A    between atoms: C_26  and  C_27
REMARK                            x       y       z     vdW  Elec       q    Type
REMARK                         _______ _______ _______ _____ _____    ______ ____
ROOT
ATOM      1  C   UNL     1       0.580  12.221  19.784  0.00  0.00    +0.000 A 
ATOM      2  C   UNL     1      -0.368  13.087  20.351  0.00  0.00    +0.000 A 
ATOM      3  C   UNL     1      -1.725  12.913  20.096  0.00  0.00    +0.000 A 
ATOM      4  C   UNL     1      -2.138  11.881  19.256  0.00  0.00    +0.000 A 
ATOM      5  C   UNL     1      -1.215  11.001  18.680  0.00  0.00    +0.000 A 
ATOM      6  C   UNL     1       0.172  11.189  18.911  0.00  0.00    +0.000 A 
ENDROOT
BRANCH   3   7
ATOM      7  C   UNL     1      -2.752  13.727  20.744  0.00  0.00    +0.000 C 
ATOM      8  C   UNL     1      -3.270  13.516  21.959  0.00  0.00    +0.000 C 
ATOM      9  S   UNL     1      -2.957  12.220  23.048  0.00  0.00    +0.000 S 
ATOM     10  C   UNL     1      -4.081  12.852  24.236  0.00  0.00    +0.000 C 
ATOM     11  O   UNL     1      -4.333  12.314  25.300  0.00  0.00    +0.000 OA
ATOM     12  N   UNL     1      -4.619  14.016  23.790  0.00  0.00    +0.000 N 
ATOM     13  C   UNL     1      -4.234  14.469  22.566  0.00  0.00    +0.000 C 
ATOM     14  O   UNL     1      -4.612  15.512  22.057  0.00  0.00    +0.000 OA
ATOM     15  H   UNL     1      -5.275  14.531  24.354  0.00  0.00    +0.000 HD
ENDBRANCH   3   7
BRANCH   1  17
ATOM     16  C   UNL     1       2.327  13.846  19.824  0.00  0.00    +0.000 C 
ATOM     17  O   UNL     1       1.867  12.537  20.144  0.00  0.00    +0.000 OA
ENDBRANCH   1  17
BRANCH   5  18
ATOM     18  O   UNL     1      -1.630   9.921  17.939  0.00  0.00    +0.000 OA
ATOM     19  C   UNL     1      -2.234  10.177  16.673  0.00  0.00    +0.000 C 
ENDBRANCH   5  18
BRANCH   6  20
ATOM     20  O   UNL     1       1.189  10.409  18.381  0.00  0.00    +0.000 OA
BRANCH  20  21
ATOM     21  C   UNL     1       1.554   9.220  18.957  0.00  0.00    +0.000 A 
ATOM     22  C   UNL     1       1.063   8.960  20.234  0.00  0.00    +0.000 A 
ATOM     23  C   UNL     1       1.293   7.718  20.825  0.00  0.00    +0.000 A 
ATOM     24  C   UNL     1       1.994   6.716  20.131  0.00  0.00    +0.000 A 
ATOM     25  C   UNL     1       2.536   6.993  18.865  0.00  0.00    +0.000 A 
ATOM     26  C   UNL     1       2.374   8.285  18.325  0.00  0.00    +0.000 A 
BRANCH  25  27
ATOM     27  C   UNL     1       3.205   5.967  17.987  0.00  0.00    +0.000 C 
ATOM     28  F   UNL     1       3.824   6.459  16.886  0.00  0.00    +0.000 F 
ATOM     29  F   UNL     1       4.168   5.279  18.668  0.00  0.00    +0.000 F 
ATOM     30  F   UNL     1       2.331   5.026  17.535  0.00  0.00    +0.000 F 
ENDBRANCH  25  27
BRANCH  24  31
ATOM     31  C   UNL     1       2.090   5.425  20.752  0.00  0.00    +0.000 C 
ATOM     32  N   UNL     1       2.154   4.368  21.224  0.00  0.00    +0.000 NA
ENDBRANCH  24  31
ENDBRANCH  20  21
ENDBRANCH   6  20
TORSDOF 7
ENDMDL
MODEL 7
REMARK VINA RESULT:      -7.6      4.069      8.407
REMARK  Name = 
REMARK  9 active torsions:
REMARK  status: ('A' for Active; 'I' for Inactive)
REMARK    1  A    between atoms: C_1  and  O_2
REMARK    2  A    between atoms: O_2  and  C_3
REMARK    3  A    between atoms: C_5  and  C_6
REMARK    4  A    between atoms: C_15  and  O_16
REMARK    5  A    between atoms: O_16  and  C_17
REMARK    6  A    between atoms: C_18  and  O_19
REMARK    7  A    between atoms: O_19  and  C_20
REMARK    8  A    between atoms: C_23  and  C_24
REMARK    9  A    between atoms: C_26  and  C_27
REMARK                            x       y       z     vdW  Elec       q    Type
REMARK                         _______ _______ _______ _____ _____    ______ ____
ROOT
ATOM      1  C   UNL     1      -0.919  10.656  18.420  0.00  0.00    +0.000 A 
ATOM      2  C   UNL     1      -2.017  11.371  18.922  0.00  0.00    +0.000 A 
ATOM      3  C   UNL     1      -1.839  12.341  19.904  0.00  0.00    +0.000 A 
ATOM      4  C   UNL     1      -0.561  12.585  20.404  0.00  0.00    +0.000 A 
ATOM      5  C   UNL     1       0.552  11.889  19.919  0.00  0.00    +0.000 A 
ATOM      6  C   UNL     1       0.376  10.879  18.938  0.00  0.00    +0.000 A 
ENDROOT
BRANCH   3   7
ATOM      7  C   UNL     1      -2.938  13.178  20.383  0.00  0.00    +0.000 C 
ATOM      8  C   UNL     1      -3.423  13.199  21.629  0.00  0.00    +0.000 C 
ATOM      9  S   UNL     1      -2.975  12.220  22.971  0.00  0.00    +0.000 S 
ATOM     10  C   UNL     1      -4.147  12.993  24.020  0.00  0.00    +0.000 C 
ATOM     11  O   UNL     1      -4.336  12.689  25.185  0.00  0.00    +0.000 OA
ATOM     12  N   UNL     1      -4.802  13.970  23.340  0.00  0.00    +0.000 N 
ATOM     13  C   UNL     1      -4.473  14.169  22.035  0.00  0.00    +0.000 C 
ATOM     14  O   UNL     1      -4.957  15.028  21.316  0.00  0.00    +0.000 OA
ATOM     15  H   UNL     1      -5.502  14.533  23.793  0.00  0.00    +0.000 HD
ENDBRANCH   3   7
BRANCH   1  17
ATOM     16  C   UNL     1      -2.386  10.079  16.630  0.00  0.00    +0.000 C 
ATOM     17  O   UNL     1      -1.275   9.745  17.456  0.00  0.00    +0.000 OA
ENDBRANCH   1  17
BRANCH   5  18
ATOM     18  O   UNL     1       1.823  12.205  20.335  0.00  0.00    +0.000 OA
ATOM     19  C   UNL     1       2.395  13.420  19.856  0.00  0.00    +0.000 C 
ENDBRANCH   5  18
BRANCH   6  20
ATOM     20  O   UNL     1       1.386  10.100  18.396  0.00  0.00    +0.000 OA
BRANCH  20  21
ATOM     21  C   UNL     1       1.736   8.895  18.948  0.00  0.00    +0.000 A 
ATOM     22  C   UNL     1       1.270   8.631  20.234  0.00  0.00    +0.000 A 
ATOM     23  C   UNL     1       1.484   7.376  20.804  0.00  0.00    +0.000 A 
ATOM     24  C   UNL     1       2.143   6.366  20.081  0.00  0.00    +0.000 A 
ATOM     25  C   UNL     1       2.661   6.646  18.805  0.00  0.00    +0.000 A 
ATOM     26  C   UNL     1       2.517   7.948  18.285  0.00  0.00    +0.000 A 
BRANCH  25  27
ATOM     27  C   UNL     1       3.283   5.615  17.898  0.00  0.00    +0.000 C 
ATOM     28  F   UNL     1       4.235   4.837  18.470  0.00  0.00    +0.000 F 
ATOM     29  F   UNL     1       2.347   4.748  17.414  0.00  0.00    +0.000 F 
ATOM     30  F   UNL     1       3.866   6.176  16.803  0.00  0.00    +0.000 F 
ENDBRANCH  25  27
BRANCH  24  31
ATOM     31  C   UNL     1       2.222   5.065  20.684  0.00  0.00    +0.000 C 
ATOM     32  N   UNL     1       2.315   4.025  21.188  0.00  0.00    +0.000 NA
ENDBRANCH  24  31
ENDBRANCH  20  21
ENDBRANCH   6  20
TORSDOF 7
ENDMDL
MODEL 8
REMARK VINA RESULT:      -7.6      2.041      2.675
REMARK  Name = 
REMARK  9 active torsions:
REMARK  status: ('A' for Active; 'I' for Inactive)
REMARK    1  A    between atoms: C_1  and  O_2
REMARK    2  A    between atoms: O_2  and  C_3
REMARK    3  A    between atoms: C_5  and  C_6
REMARK    4  A    between atoms: C_15  and  O_16
REMARK    5  A    between atoms: O_16  and  C_17
REMARK    6  A    between atoms: C_18  and  O_19
REMARK    7  A    between atoms: O_19  and  C_20
REMARK    8  A    between atoms: C_23  and  C_24
REMARK    9  A    between atoms: C_26  and  C_27
REMARK                            x       y       z     vdW  Elec       q    Type
REMARK                         _______ _______ _______ _____ _____    ______ ____
ROOT
ATOM      1  C   UNL     1       1.457   8.475  20.440  0.00  0.00    +0.000 A 
ATOM      2  C   UNL     1       1.921   7.203  20.073  0.00  0.00    +0.000 A 
ATOM      3  C   UNL     1       2.402   6.971  18.788  0.00  0.00    +0.000 A 
ATOM      4  C   UNL     1       2.402   8.009  17.857  0.00  0.00    +0.000 A 
ATOM      5  C   UNL     1       1.949   9.288  18.198  0.00  0.00    +0.000 A 
ATOM      6  C   UNL     1       1.430   9.526  19.497  0.00  0.00    +0.000 A 
ENDROOT
BRANCH   3   7
ATOM      7  C   UNL     1       2.987   5.691  18.392  0.00  0.00    +0.000 C 
ATOM      8  C   UNL     1       4.162   5.523  17.774  0.00  0.00    +0.000 C 
ATOM      9  S   UNL     1       5.255   6.723  17.203  0.00  0.00    +0.000 S 
ATOM     10  C   UNL     1       6.370   5.518  16.589  0.00  0.00    +0.000 C 
ATOM     11  O   UNL     1       7.409   5.775  16.006  0.00  0.00    +0.000 OA
ATOM     12  N   UNL     1       5.902   4.273  16.861  0.00  0.00    +0.000 N 
ATOM     13  C   UNL     1       4.712   4.167  17.513  0.00  0.00    +0.000 C 
ATOM     14  O   UNL     1       4.190   3.117  17.848  0.00  0.00    +0.000 OA
ATOM     15  H   UNL     1       6.425   3.455  16.596  0.00  0.00    +0.000 HD
ENDBRANCH   3   7
BRANCH   1  17
ATOM     16  C   UNL     1      -0.359   8.281  21.975  0.00  0.00    +0.000 C 
ATOM     17  O   UNL     1       1.024   8.525  21.743  0.00  0.00    +0.000 OA
ENDBRANCH   1  17
BRANCH   5  18
ATOM     18  O   UNL     1       2.049  10.336  17.315  0.00  0.00    +0.000 OA
ATOM     19  C   UNL     1       2.603  11.559  17.795  0.00  0.00    +0.000 C 
ENDBRANCH   5  18
BRANCH   6  20
ATOM     20  O   UNL     1       0.925  10.734  19.953  0.00  0.00    +0.000 OA
BRANCH  20  21
ATOM     21  C   UNL     1      -0.407  11.038  19.851  0.00  0.00    +0.000 A 
ATOM     22  C   UNL     1      -0.921  11.942  20.777  0.00  0.00    +0.000 A 
ATOM     23  C   UNL     1      -2.236  12.390  20.653  0.00  0.00    +0.000 A 
ATOM     24  C   UNL     1      -3.040  11.957  19.584  0.00  0.00    +0.000 A 
ATOM     25  C   UNL     1      -2.542  11.004  18.679  0.00  0.00    +0.000 A 
ATOM     26  C   UNL     1      -1.243  10.493  18.876  0.00  0.00    +0.000 A 
BRANCH  25  27
ATOM     27  C   UNL     1      -3.269  10.554  17.438  0.00  0.00    +0.000 C 
ATOM     28  F   UNL     1      -3.598  11.540  16.567  0.00  0.00    +0.000 F 
ATOM     29  F   UNL     1      -2.524   9.666  16.717  0.00  0.00    +0.000 F 
ATOM     30  F   UNL     1      -4.432   9.908  17.727  0.00  0.00    +0.000 F 
ENDBRANCH  25  27
BRANCH  24  31
ATOM     31  C   UNL     1      -4.341  12.549  19.452  0.00  0.00    +0.000 C 
ATOM     32  N   UNL     1      -5.404  13.003  19.367  0.00  0.00    +0.000 NA
ENDBRANCH  24  31
ENDBRANCH  20  21
ENDBRANCH   6  20
TORSDOF 7
ENDMDL
MODEL 9
REMARK VINA RESULT:      -7.6      2.161      3.456
REMARK  Name = 
REMARK  9 active torsions:
REMARK  status: ('A' for Active; 'I' for Inactive)
REMARK    1  A    between atoms: C_1  and  O_2
REMARK    2  A    between atoms: O_2  and  C_3
REMARK    3  A    between atoms: C_5  and  C_6
REMARK    4  A    between atoms: C_15  and  O_16
REMARK    5  A    between atoms: O_16  and  C_17
REMARK    6  A    between atoms: C_18  and  O_19
REMARK    7  A    between atoms: O_19  and  C_20
REMARK    8  A    between atoms: C_23  and  C_24
REMARK    9  A    between atoms: C_26  and  C_27
REMARK                            x       y       z     vdW  Elec       q    Type
REMARK                         _______ _______ _______ _____ _____    ______ ____
ROOT
ATOM      1  C   UNL     1       1.888   9.577  18.263  0.00  0.00    +0.000 A 
ATOM      2  C   UNL     1       2.461   8.394  17.770  0.00  0.00    +0.000 A 
ATOM      3  C   UNL     1       2.480   7.240  18.548  0.00  0.00    +0.000 A 
ATOM      4  C   UNL     1       1.942   7.271  19.834  0.00  0.00    +0.000 A 
ATOM      5  C   UNL     1       1.360   8.435  20.349  0.00  0.00    +0.000 A 
ATOM      6  C   UNL     1       1.362   9.623  19.573  0.00  0.00    +0.000 A 
ENDROOT
BRANCH   3   7
ATOM      7  C   UNL     1       2.976   5.963  18.039  0.00  0.00    +0.000 C 
ATOM      8  C   UNL     1       4.170   5.753  17.475  0.00  0.00    +0.000 C 
ATOM      9  S   UNL     1       5.402   6.899  17.114  0.00  0.00    +0.000 S 
ATOM     10  C   UNL     1       6.446   5.670  16.428  0.00  0.00    +0.000 C 
ATOM     11  O   UNL     1       7.541   5.890  15.940  0.00  0.00    +0.000 OA
ATOM     12  N   UNL     1       5.852   4.453  16.524  0.00  0.00    +0.000 N 
ATOM     13  C   UNL     1       4.616   4.389  17.089  0.00  0.00    +0.000 C 
ATOM     14  O   UNL     1       3.981   3.363  17.267  0.00  0.00    +0.000 OA
ATOM     15  H   UNL     1       6.318   3.624  16.195  0.00  0.00    +0.000 HD
ENDBRANCH   3   7
BRANCH   1  17
ATOM     16  C   UNL     1       2.628  11.793  17.783  0.00  0.00    +0.000 C 
ATOM     17  O   UNL     1       1.952  10.612  17.363  0.00  0.00    +0.000 OA
ENDBRANCH   1  17
BRANCH   5  18
ATOM     18  O   UNL     1       0.735   8.435  21.572  0.00  0.00    +0.000 OA
ATOM     19  C   UNL     1       1.356   9.153  22.636  0.00  0.00    +0.000 C 
ENDBRANCH   5  18
BRANCH   6  20
ATOM     20  O   UNL     1       0.847  10.846  19.974  0.00  0.00    +0.000 OA
BRANCH  20  21
ATOM     21  C   UNL     1      -0.490  11.130  19.868  0.00  0.00    +0.000 A 
ATOM     22  C   UNL     1      -1.020  12.025  20.793  0.00  0.00    +0.000 A 
ATOM     23  C   UNL     1      -2.342  12.453  20.665  0.00  0.00    +0.000 A 
ATOM     24  C   UNL     1      -3.135  12.008  19.593  0.00  0.00    +0.000 A 
ATOM     25  C   UNL     1      -2.620  11.063  18.689  0.00  0.00    +0.000 A 
ATOM     26  C   UNL     1      -1.315  10.573  18.891  0.00  0.00    +0.000 A 
BRANCH  25  27
ATOM     27  C   UNL     1      -3.337  10.603  17.446  0.00  0.00    +0.000 C 
ATOM     28  F   UNL     1      -3.610  11.573  16.539  0.00  0.00    +0.000 F 
ATOM     29  F   UNL     1      -2.610   9.666  16.769  0.00  0.00    +0.000 F 
ATOM     30  F   UNL     1      -4.529  10.009  17.727  0.00  0.00    +0.000 F 
ENDBRANCH  25  27
BRANCH  24  31
ATOM     31  C   UNL     1      -4.445  12.580  19.457  0.00  0.00    +0.000 C 
ATOM     32  N   UNL     1      -5.513  13.014  19.328  0.00  0.00    +0.000 NA
ENDBRANCH  24  31
ENDBRANCH  20  21
ENDBRANCH   6  20
TORSDOF 7
ENDMDL
