MODEL 1
REMARK VINA RESULT:      -8.2      0.000      0.000
REMARK  Name = 
REMARK  0 active torsions:
REMARK  status: ('A' for Active; 'I' for Inactive)
REMARK                            x       y       z     vdW  Elec       q    Type
REMARK                         _______ _______ _______ _____ _____    ______ ____
ROOT
ATOM      1  F   UNL     1       6.383   5.222  14.062  0.00  0.00    +0.000 F 
ATOM      2  C   UNL     1       6.257   4.887  15.354  0.00  0.00    +0.000 A 
ATOM      3  C   UNL     1       7.331   5.085  16.211  0.00  0.00    +0.000 A 
ATOM      4  C   UNL     1       7.232   4.740  17.561  0.00  0.00    +0.000 A 
ATOM      5  C   UNL     1       6.023   4.186  18.003  0.00  0.00    +0.000 A 
ATOM      6  N   UNL     1       5.671   3.737  19.261  0.00  0.00    +0.000 N 
ATOM      7  C   UNL     1       4.408   3.237  19.215  0.00  0.00    +0.000 A 
ATOM      8  C   UNL     1       3.908   3.360  17.931  0.00  0.00    +0.000 A 
ATOM      9  C   UNL     1       4.928   3.971  17.149  0.00  0.00    +0.000 A 
ATOM     10  C   UNL     1       5.052   4.336  15.795  0.00  0.00    +0.000 A 
ATOM     11  C   UNL     1       2.550   2.801  17.592  0.00  0.00    +0.000 C 
ATOM     12  C   UNL     1       1.376   3.720  17.890  0.00  0.00    +0.000 C 
ATOM     13  C   UNL     1       0.883   3.224  19.253  0.00  0.00    +0.000 C 
ATOM     14  C   UNL     1       2.085   2.470  19.922  0.00  0.00    +0.000 C 
ATOM     15  C   UNL     1       3.645   2.551  20.311  0.00  0.00    +0.000 C 
ATOM     16  N   UNL     1       2.320   1.744  18.611  0.00  0.00    +0.000 NA
ATOM     17  H   UNL     1       6.275   3.743  20.068  0.00  0.00    +0.000 HD
ATOM     18  H   UNL     1       1.505   1.190  18.355  0.00  0.00    +0.000 HD
ENDROOT
TORSDOF 0
ENDMDL
MODEL 2
REMARK VINA RESULT:      -8.0      2.261      5.058
REMARK  Name = 
REMARK  0 active torsions:
REMARK  status: ('A' for Active; 'I' for Inactive)
REMARK                            x       y       z     vdW  Elec       q    Type
REMARK                         _______ _______ _______ _____ _____    ______ ____
ROOT
ATOM      1  F   UNL     1       0.347   2.683  18.311  0.00  0.00    +0.000 F 
ATOM      2  C   UNL     1       1.645   2.888  18.576  0.00  0.00    +0.000 A 
ATOM      3  C   UNL     1       2.164   2.449  19.786  0.00  0.00    +0.000 A 
ATOM      4  C   UNL     1       3.511   2.653  20.094  0.00  0.00    +0.000 A 
ATOM      5  C   UNL     1       4.301   3.315  19.145  0.00  0.00    +0.000 A 
ATOM      6  N   UNL     1       5.637   3.667  19.205  0.00  0.00    +0.000 N 
ATOM      7  C   UNL     1       5.969   4.337  18.070  0.00  0.00    +0.000 A 
ATOM      8  C   UNL     1       4.862   4.428  17.245  0.00  0.00    +0.000 A 
ATOM      9  C   UNL     1       3.793   3.773  17.918  0.00  0.00    +0.000 A 
ATOM     10  C   UNL     1       2.434   3.547  17.630  0.00  0.00    +0.000 A 
ATOM     11  C   UNL     1       4.943   5.203  15.955  0.00  0.00    +0.000 C 
ATOM     12  C   UNL     1       5.482   4.427  14.764  0.00  0.00    +0.000 C 
ATOM     13  C   UNL     1       6.959   4.832  14.724  0.00  0.00    +0.000 C 
ATOM     14  C   UNL     1       7.329   5.334  16.163  0.00  0.00    +0.000 C 
ATOM     15  C   UNL     1       7.276   4.997  17.736  0.00  0.00    +0.000 C 
ATOM     16  N   UNL     1       6.058   6.162  16.169  0.00  0.00    +0.000 NA
ATOM     17  H   UNL     1       6.248   3.488  19.987  0.00  0.00    +0.000 HD
ATOM     18  H   UNL     1       6.071   6.848  15.416  0.00  0.00    +0.000 HD
ENDROOT
TORSDOF 0
ENDMDL
MODEL 3
REMARK VINA RESULT:      -7.9      1.897      2.232
REMARK  Name = 
REMARK  0 active torsions:
REMARK  status: ('A' for Active; 'I' for Inactive)
REMARK                            x       y       z     vdW  Elec       q    Type
REMARK                         _______ _______ _______ _____ _____    ______ ____
ROOT
ATOM      1  F   UNL     1       6.824   8.145  17.305  0.00  0.00    +0.000 F 
ATOM      2  C   UNL     1       6.419   6.869  17.247  0.00  0.00    +0.000 A 
ATOM      3  C   UNL     1       7.297   5.902  16.777  0.00  0.00    +0.000 A 
ATOM      4  C   UNL     1       6.902   4.565  16.699  0.00  0.00    +0.000 A 
ATOM      5  C   UNL     1       5.599   4.248  17.103  0.00  0.00    +0.000 A 
ATOM      6  N   UNL     1       4.951   3.027  17.103  0.00  0.00    +0.000 N 
ATOM      7  C   UNL     1       3.676   3.203  17.540  0.00  0.00    +0.000 A 
ATOM      8  C   UNL     1       3.470   4.536  17.844  0.00  0.00    +0.000 A 
ATOM      9  C   UNL     1       4.693   5.212  17.576  0.00  0.00    +0.000 A 
ATOM     10  C   UNL     1       5.120   6.552  17.652  0.00  0.00    +0.000 A 
ATOM     11  C   UNL     1       2.106   5.011  18.272  0.00  0.00    +0.000 C 
ATOM     12  C   UNL     1       1.802   4.865  19.754  0.00  0.00    +0.000 C 
ATOM     13  C   UNL     1       1.010   3.554  19.819  0.00  0.00    +0.000 C 
ATOM     14  C   UNL     1       1.375   2.741  18.529  0.00  0.00    +0.000 C 
ATOM     15  C   UNL     1       2.576   2.183  17.612  0.00  0.00    +0.000 C 
ATOM     16  N   UNL     1       1.169   4.002  17.711  0.00  0.00    +0.000 NA
ATOM     17  H   UNL     1       5.353   2.158  16.787  0.00  0.00    +0.000 HD
ATOM     18  H   UNL     1       0.211   4.336  17.799  0.00  0.00    +0.000 HD
ENDROOT
TORSDOF 0
ENDMDL
MODEL 4
REMARK VINA RESULT:      -7.8      2.328      3.753
REMARK  Name = 
REMARK  0 active torsions:
REMARK  status: ('A' for Active; 'I' for Inactive)
REMARK                            x       y       z     vdW  Elec       q    Type
REMARK                         _______ _______ _______ _____ _____    ______ ____
ROOT
ATOM      1  F   UNL     1       5.432   2.666  11.599  0.00  0.00    +0.000 F 
ATOM      2  C   UNL     1       5.989   3.449  12.534  0.00  0.00    +0.000 A 
ATOM      3  C   UNL     1       7.052   4.270  12.181  0.00  0.00    +0.000 A 
ATOM      4  C   UNL     1       7.658   5.092  13.133  0.00  0.00    +0.000 A 
ATOM      5  C   UNL     1       7.157   5.048  14.441  0.00  0.00    +0.000 A 
ATOM      6  N   UNL     1       7.582   5.727  15.568  0.00  0.00    +0.000 N 
ATOM      7  C   UNL     1       6.828   5.338  16.629  0.00  0.00    +0.000 A 
ATOM      8  C   UNL     1       5.891   4.408  16.216  0.00  0.00    +0.000 A 
ATOM      9  C   UNL     1       6.087   4.220  14.819  0.00  0.00    +0.000 A 
ATOM     10  C   UNL     1       5.490   3.407  13.837  0.00  0.00    +0.000 A 
ATOM     11  C   UNL     1       4.982   3.753  17.224  0.00  0.00    +0.000 C 
ATOM     12  C   UNL     1       3.721   4.531  17.564  0.00  0.00    +0.000 C 
ATOM     13  C   UNL     1       4.098   5.257  18.859  0.00  0.00    +0.000 C 
ATOM     14  C   UNL     1       5.665   5.332  18.895  0.00  0.00    +0.000 C 
ATOM     15  C   UNL     1       6.989   5.730  18.070  0.00  0.00    +0.000 C 
ATOM     16  N   UNL     1       5.715   3.865  18.512  0.00  0.00    +0.000 NA
ATOM     17  H   UNL     1       8.356   6.373  15.597  0.00  0.00    +0.000 HD
ATOM     18  H   UNL     1       5.257   3.292  19.219  0.00  0.00    +0.000 HD
ENDROOT
TORSDOF 0
ENDMDL
MODEL 5
REMARK VINA RESULT:      -7.7      2.636      5.191
REMARK  Name = 
REMARK  0 active torsions:
REMARK  status: ('A' for Active; 'I' for Inactive)
REMARK                            x       y       z     vdW  Elec       q    Type
REMARK                         _______ _______ _______ _____ _____    ______ ____
ROOT
ATOM      1  F   UNL     1       0.227   2.295  18.444  0.00  0.00    +0.000 F 
ATOM      2  C   UNL     1       1.266   3.080  18.762  0.00  0.00    +0.000 A 
ATOM      3  C   UNL     1       1.374   3.564  20.059  0.00  0.00    +0.000 A 
ATOM      4  C   UNL     1       2.442   4.390  20.419  0.00  0.00    +0.000 A 
ATOM      5  C   UNL     1       3.380   4.708  19.429  0.00  0.00    +0.000 A 
ATOM      6  N   UNL     1       4.500   5.514  19.505  0.00  0.00    +0.000 N 
ATOM      7  C   UNL     1       5.090   5.569  18.282  0.00  0.00    +0.000 A 
ATOM      8  C   UNL     1       4.375   4.794  17.387  0.00  0.00    +0.000 A 
ATOM      9  C   UNL     1       3.285   4.233  18.110  0.00  0.00    +0.000 A 
ATOM     10  C   UNL     1       2.202   3.396  17.775  0.00  0.00    +0.000 A 
ATOM     11  C   UNL     1       4.774   4.754  15.935  0.00  0.00    +0.000 C 
ATOM     12  C   UNL     1       5.858   3.747  15.586  0.00  0.00    +0.000 C 
ATOM     13  C   UNL     1       7.133   4.597  15.579  0.00  0.00    +0.000 C 
ATOM     14  C   UNL     1       6.836   5.865  16.452  0.00  0.00    +0.000 C 
ATOM     15  C   UNL     1       6.270   6.398  17.862  0.00  0.00    +0.000 C 
ATOM     16  N   UNL     1       5.517   6.024  15.720  0.00  0.00    +0.000 NA
ATOM     17  H   UNL     1       4.800   6.011  20.330  0.00  0.00    +0.000 HD
ATOM     18  H   UNL     1       5.673   6.167  14.724  0.00  0.00    +0.000 HD
ENDROOT
TORSDOF 0
ENDMDL
MODEL 6
REMARK VINA RESULT:      -7.6      2.092      2.869
REMARK  Name = 
REMARK  0 active torsions:
REMARK  status: ('A' for Active; 'I' for Inactive)
REMARK                            x       y       z     vdW  Elec       q    Type
REMARK                         _______ _______ _______ _____ _____    ______ ____
ROOT
ATOM      1  F   UNL     1       8.174   5.878  19.087  0.00  0.00    +0.000 F 
ATOM      2  C   UNL     1       7.091   5.309  18.538  0.00  0.00    +0.000 A 
ATOM      3  C   UNL     1       7.140   4.908  17.209  0.00  0.00    +0.000 A 
ATOM      4  C   UNL     1       6.026   4.318  16.607  0.00  0.00    +0.000 A 
ATOM      5  C   UNL     1       4.874   4.157  17.388  0.00  0.00    +0.000 A 
ATOM      6  N   UNL     1       3.642   3.637  17.040  0.00  0.00    +0.000 N 
ATOM      7  C   UNL     1       2.808   3.720  18.110  0.00  0.00    +0.000 A 
ATOM      8  C   UNL     1       3.481   4.286  19.179  0.00  0.00    +0.000 A 
ATOM      9  C   UNL     1       4.803   4.562  18.731  0.00  0.00    +0.000 A 
ATOM     10  C   UNL     1       5.943   5.147  19.316  0.00  0.00    +0.000 A 
ATOM     11  C   UNL     1       2.751   4.567  20.466  0.00  0.00    +0.000 C 
ATOM     12  C   UNL     1       2.666   3.399  21.435  0.00  0.00    +0.000 C 
ATOM     13  C   UNL     1       1.278   2.814  21.154  0.00  0.00    +0.000 C 
ATOM     14  C   UNL     1       0.877   3.276  19.709  0.00  0.00    +0.000 C 
ATOM     15  C   UNL     1       1.349   3.372  18.173  0.00  0.00    +0.000 C 
ATOM     16  N   UNL     1       1.324   4.681  20.066  0.00  0.00    +0.000 NA
ATOM     17  H   UNL     1       3.397   3.292  16.124  0.00  0.00    +0.000 HD
ATOM     18  H   UNL     1       0.777   5.046  20.844  0.00  0.00    +0.000 HD
ENDROOT
TORSDOF 0
ENDMDL
MODEL 7
REMARK VINA RESULT:      -7.6      1.940      2.232
REMARK  Name = 
REMARK  0 active torsions:
REMARK  status: ('A' for Active; 'I' for Inactive)
REMARK                            x       y       z     vdW  Elec       q    Type
REMARK                         _______ _______ _______ _____ _____    ______ ____
ROOT
ATOM      1  F   UNL     1       6.221   3.638  14.567  0.00  0.00    +0.000 F 
ATOM      2  C   UNL     1       5.540   4.393  15.441  0.00  0.00    +0.000 A 
ATOM      3  C   UNL     1       5.606   5.775  15.332  0.00  0.00    +0.000 A 
ATOM      4  C   UNL     1       4.912   6.589  16.231  0.00  0.00    +0.000 A 
ATOM      5  C   UNL     1       4.164   5.959  17.234  0.00  0.00    +0.000 A 
ATOM      6  N   UNL     1       3.417   6.516  18.255  0.00  0.00    +0.000 N 
ATOM      7  C   UNL     1       2.899   5.519  19.019  0.00  0.00    +0.000 A 
ATOM      8  C   UNL     1       3.288   4.294  18.509  0.00  0.00    +0.000 A 
ATOM      9  C   UNL     1       4.091   4.562  17.364  0.00  0.00    +0.000 A 
ATOM     10  C   UNL     1       4.793   3.765  16.440  0.00  0.00    +0.000 A 
ATOM     11  C   UNL     1       2.914   3.023  19.227  0.00  0.00    +0.000 C 
ATOM     12  C   UNL     1       1.540   2.467  18.892  0.00  0.00    +0.000 C 
ATOM     13  C   UNL     1       0.665   2.989  20.036  0.00  0.00    +0.000 C 
ATOM     14  C   UNL     1       1.400   4.240  20.632  0.00  0.00    +0.000 C 
ATOM     15  C   UNL     1       2.109   5.645  20.290  0.00  0.00    +0.000 C 
ATOM     16  N   UNL     1       2.691   3.445  20.634  0.00  0.00    +0.000 NA
ATOM     17  H   UNL     1       3.314   7.505  18.423  0.00  0.00    +0.000 HD
ATOM     18  H   UNL     1       2.607   2.623  21.230  0.00  0.00    +0.000 HD
ENDROOT
TORSDOF 0
ENDMDL
MODEL 8
REMARK VINA RESULT:      -7.4      2.694      5.547
REMARK  Name = 
REMARK  0 active torsions:
REMARK  status: ('A' for Active; 'I' for Inactive)
REMARK                            x       y       z     vdW  Elec       q    Type
REMARK                         _______ _______ _______ _____ _____    ______ ____
ROOT
ATOM      1  F   UNL     1       1.858   3.190  22.101  0.00  0.00    +0.000 F 
ATOM      2  C   UNL     1       2.074   3.274  20.780  0.00  0.00    +0.000 A 
ATOM      3  C   UNL     1       1.067   2.888  19.906  0.00  0.00    +0.000 A 
ATOM      4  C   UNL     1       1.264   2.956  18.525  0.00  0.00    +0.000 A 
ATOM      5  C   UNL     1       2.505   3.419  18.068  0.00  0.00    +0.000 A 
ATOM      6  N   UNL     1       2.969   3.559  16.774  0.00  0.00    +0.000 N 
ATOM      7  C   UNL     1       4.254   4.002  16.810  0.00  0.00    +0.000 A 
ATOM      8  C   UNL     1       4.650   4.170  18.124  0.00  0.00    +0.000 A 
ATOM      9  C   UNL     1       3.539   3.807  18.937  0.00  0.00    +0.000 A 
ATOM     10  C   UNL     1       3.311   3.735  20.325  0.00  0.00    +0.000 A 
ATOM     11  C   UNL     1       6.066   4.575  18.441  0.00  0.00    +0.000 C 
ATOM     12  C   UNL     1       6.337   6.070  18.409  0.00  0.00    +0.000 C 
ATOM     13  C   UNL     1       6.930   6.287  17.013  0.00  0.00    +0.000 C 
ATOM     14  C   UNL     1       6.457   5.081  16.129  0.00  0.00    +0.000 C 
ATOM     15  C   UNL     1       5.194   4.202  15.656  0.00  0.00    +0.000 C 
ATOM     16  N   UNL     1       6.849   4.141  17.254  0.00  0.00    +0.000 NA
ATOM     17  H   UNL     1       2.447   3.326  15.944  0.00  0.00    +0.000 HD
ATOM     18  H   UNL     1       7.845   4.214  17.454  0.00  0.00    +0.000 HD
ENDROOT
TORSDOF 0
ENDMDL
MODEL 9
REMARK VINA RESULT:      -7.3      1.265      1.348
REMARK  Name = 
REMARK  0 active torsions:
REMARK  status: ('A' for Active; 'I' for Inactive)
REMARK                            x       y       z     vdW  Elec       q    Type
REMARK                         _______ _______ _______ _____ _____    ______ ____
ROOT
ATOM      1  F   UNL     1       5.045   7.067  15.059  0.00  0.00    +0.000 F 
ATOM      2  C   UNL     1       5.273   6.211  16.066  0.00  0.00    +0.000 A 
ATOM      3  C   UNL     1       6.583   5.892  16.396  0.00  0.00    +0.000 A 
ATOM      4  C   UNL     1       6.853   4.999  17.436  0.00  0.00    +0.000 A 
ATOM      5  C   UNL     1       5.761   4.443  18.115  0.00  0.00    +0.000 A 
ATOM      6  N   UNL     1       5.743   3.526  19.148  0.00  0.00    +0.000 N 
ATOM      7  C   UNL     1       4.452   3.240  19.463  0.00  0.00    +0.000 A 
ATOM      8  C   UNL     1       3.604   3.971  18.651  0.00  0.00    +0.000 A 
ATOM      9  C   UNL     1       4.428   4.748  17.791  0.00  0.00    +0.000 A 
ATOM     10  C   UNL     1       4.184   5.658  16.743  0.00  0.00    +0.000 A 
ATOM     11  C   UNL     1       2.113   3.771  18.742  0.00  0.00    +0.000 C 
ATOM     12  C   UNL     1       1.412   4.586  19.816  0.00  0.00    +0.000 C 
ATOM     13  C   UNL     1       1.290   3.596  20.980  0.00  0.00    +0.000 C 
ATOM     14  C   UNL     1       2.387   2.498  20.756  0.00  0.00    +0.000 C 
ATOM     15  C   UNL     1       3.945   2.227  20.450  0.00  0.00    +0.000 C 
ATOM     16  N   UNL     1       1.956   2.404  19.305  0.00  0.00    +0.000 NA
ATOM     17  H   UNL     1       6.560   3.109  19.566  0.00  0.00    +0.000 HD
ATOM     18  H   UNL     1       0.982   2.114  19.236  0.00  0.00    +0.000 HD
ENDROOT
TORSDOF 0
ENDMDL
