MODEL 1
REMARK VINA RESULT:      -7.9      0.000      0.000
REMARK  Name = 
REMARK  10 active torsions:
REMARK  status: ('A' for Active; 'I' for Inactive)
REMARK    1  A    between atoms: C_1  and  C_2
REMARK    2  A    between atoms: C_2  and  O_3
REMARK    3  A    between atoms: O_3  and  C_4
REMARK    4  A    between atoms: C_4  and  C_6
REMARK    5  A    between atoms: C_7  and  N_8
REMARK    6  A    between atoms: C_9  and  C_11
REMARK    7  A    between atoms: C_11  and  C_12
REMARK    8  A    between atoms: C_12  and  S_13
REMARK    9  A    between atoms: S_13  and  C_16
REMARK   10  A    between atoms: N_27  and  C_28
REMARK                            x       y       z     vdW  Elec       q    Type
REMARK                         _______ _______ _______ _____ _____    ______ ____
ROOT
ATOM      1  C   UNL     1       5.972   5.453  16.863  0.00  0.00    +0.000 A 
ATOM      2  C   UNL     1       5.816   6.806  17.138  0.00  0.00    +0.000 A 
ATOM      3  S   UNL     1       4.263   7.205  17.725  0.00  0.00    +0.000 S 
ATOM      4  C   UNL     1       3.815   5.574  17.814  0.00  0.00    +0.000 A 
ATOM      5  C   UNL     1       4.745   4.747  17.212  0.00  0.00    +0.000 A 
ATOM      6  C   UNL     1       4.451   3.272  17.068  0.00  0.00    +0.000 C 
ATOM      7  C   UNL     1       2.996   2.929  17.481  0.00  0.00    +0.000 C 
ATOM      8  N   UNL     1       2.487   3.656  18.665  0.00  0.00    +0.000 NA
ATOM      9  C   UNL     1       3.212   3.277  19.879  0.00  0.00    +0.000 C 
ATOM     10  C   UNL     1       2.520   5.118  18.425  0.00  0.00    +0.000 C 
ENDROOT
BRANCH   2  11
ATOM     11  N   UNL     1       6.625   7.926  17.035  0.00  0.00    +0.000 N 
ATOM     12  C   UNL     1       7.766   8.038  17.813  0.00  0.00    +0.000 C 
ATOM     13  O   UNL     1       8.132   7.229  18.659  0.00  0.00    +0.000 OA
ATOM     14  H   UNL     1       6.128   8.794  16.860  0.00  0.00    +0.000 HD
BRANCH  12  15
ATOM     15  C   UNL     1       8.514   9.341  17.589  0.00  0.00    +0.000 C 
BRANCH  15  16
ATOM     16  C   UNL     1       9.021   9.860  18.929  0.00  0.00    +0.000 C 
BRANCH  16  17
ATOM     17  S   UNL     1       9.853  11.422  18.784  0.00  0.00    +0.000 S 
ATOM     18  O   UNL     1      11.284  11.179  18.794  0.00  0.00    +0.000 OA
ATOM     19  O   UNL     1       9.235  12.173  17.708  0.00  0.00    +0.000 OA
BRANCH  17  20
ATOM     20  C   UNL     1       9.436  12.230  20.318  0.00  0.00    +0.000 A 
ATOM     21  C   UNL     1       9.623  13.611  20.443  0.00  0.00    +0.000 A 
ATOM     22  C   UNL     1       9.340  14.235  21.659  0.00  0.00    +0.000 A 
ATOM     23  C   UNL     1       8.864  13.486  22.736  0.00  0.00    +0.000 A 
ATOM     24  C   UNL     1       8.649  12.113  22.596  0.00  0.00    +0.000 A 
ATOM     25  C   UNL     1       8.929  11.480  21.383  0.00  0.00    +0.000 A 
ENDBRANCH  17  20
ENDBRANCH  16  17
ENDBRANCH  15  16
ENDBRANCH  12  15
ENDBRANCH   2  11
BRANCH   1  26
ATOM     26  C   UNL     1       7.150   4.777  16.301  0.00  0.00    +0.000 C 
ATOM     27  O   UNL     1       7.981   4.210  17.005  0.00  0.00    +0.000 OA
BRANCH  26  28
ATOM     28  O   UNL     1       7.269   4.871  14.948  0.00  0.00    +0.000 OA
BRANCH  28  30
ATOM     29  C   UNL     1       6.790   4.010  12.742  0.00  0.00    +0.000 C 
ATOM     30  C   UNL     1       6.376   4.036  14.196  0.00  0.00    +0.000 C 
ENDBRANCH  28  30
ENDBRANCH  26  28
ENDBRANCH   1  26
TORSDOF 8
ENDMDL
MODEL 2
REMARK VINA RESULT:      -7.5      0.553      1.018
REMARK  Name = 
REMARK  10 active torsions:
REMARK  status: ('A' for Active; 'I' for Inactive)
REMARK    1  A    between atoms: C_1  and  C_2
REMARK    2  A    between atoms: C_2  and  O_3
REMARK    3  A    between atoms: O_3  and  C_4
REMARK    4  A    between atoms: C_4  and  C_6
REMARK    5  A    between atoms: C_7  and  N_8
REMARK    6  A    between atoms: C_9  and  C_11
REMARK    7  A    between atoms: C_11  and  C_12
REMARK    8  A    between atoms: C_12  and  S_13
REMARK    9  A    between atoms: S_13  and  C_16
REMARK   10  A    between atoms: N_27  and  C_28
REMARK                            x       y       z     vdW  Elec       q    Type
REMARK                         _______ _______ _______ _____ _____    ______ ____
ROOT
ATOM      1  C   UNL     1       5.996   5.559  16.713  0.00  0.00    +0.000 A 
ATOM      2  C   UNL     1       5.934   6.878  17.146  0.00  0.00    +0.000 A 
ATOM      3  S   UNL     1       4.464   7.271  17.921  0.00  0.00    +0.000 S 
ATOM      4  C   UNL     1       3.945   5.659  17.878  0.00  0.00    +0.000 A 
ATOM      5  C   UNL     1       4.771   4.868  17.103  0.00  0.00    +0.000 A 
ATOM      6  C   UNL     1       4.392   3.431  16.830  0.00  0.00    +0.000 C 
ATOM      7  C   UNL     1       2.966   3.103  17.344  0.00  0.00    +0.000 C 
ATOM      8  N   UNL     1       2.607   3.711  18.644  0.00  0.00    +0.000 NA
ATOM      9  C   UNL     1       3.421   3.171  19.734  0.00  0.00    +0.000 C 
ATOM     10  C   UNL     1       2.690   5.189  18.560  0.00  0.00    +0.000 C 
ENDROOT
BRANCH   2  11
ATOM     11  N   UNL     1       6.785   7.969  17.085  0.00  0.00    +0.000 N 
ATOM     12  C   UNL     1       7.912   8.021  17.889  0.00  0.00    +0.000 C 
ATOM     13  O   UNL     1       8.231   7.181  18.723  0.00  0.00    +0.000 OA
ATOM     14  H   UNL     1       6.324   8.859  16.921  0.00  0.00    +0.000 HD
BRANCH  12  15
ATOM     15  C   UNL     1       8.713   9.300  17.711  0.00  0.00    +0.000 C 
BRANCH  15  16
ATOM     16  C   UNL     1       8.963   9.925  19.078  0.00  0.00    +0.000 C 
BRANCH  16  17
ATOM     17  S   UNL     1       9.775  11.501  18.968  0.00  0.00    +0.000 S 
ATOM     18  O   UNL     1      11.180  11.312  19.280  0.00  0.00    +0.000 OA
ATOM     19  O   UNL     1       9.368  12.141  17.732  0.00  0.00    +0.000 OA
BRANCH  17  20
ATOM     20  C   UNL     1       9.045  12.411  20.316  0.00  0.00    +0.000 A 
ATOM     21  C   UNL     1       8.955  11.818  21.580  0.00  0.00    +0.000 A 
ATOM     22  C   UNL     1       8.340  12.512  22.623  0.00  0.00    +0.000 A 
ATOM     23  C   UNL     1       7.830  13.793  22.406  0.00  0.00    +0.000 A 
ATOM     24  C   UNL     1       7.950  14.393  21.151  0.00  0.00    +0.000 A 
ATOM     25  C   UNL     1       8.564  13.706  20.101  0.00  0.00    +0.000 A 
ENDBRANCH  17  20
ENDBRANCH  16  17
ENDBRANCH  15  16
ENDBRANCH  12  15
ENDBRANCH   2  11
BRANCH   1  26
ATOM     26  C   UNL     1       7.081   4.903  15.969  0.00  0.00    +0.000 C 
ATOM     27  O   UNL     1       7.940   4.223  16.523  0.00  0.00    +0.000 OA
BRANCH  26  28
ATOM     28  O   UNL     1       7.082   5.149  14.630  0.00  0.00    +0.000 OA
BRANCH  28  30
ATOM     29  C   UNL     1       5.420   3.931  13.369  0.00  0.00    +0.000 C 
ATOM     30  C   UNL     1       6.869   4.001  13.796  0.00  0.00    +0.000 C 
ENDBRANCH  28  30
ENDBRANCH  26  28
ENDBRANCH   1  26
TORSDOF 8
ENDMDL
MODEL 3
REMARK VINA RESULT:      -7.3      6.883      9.712
REMARK  Name = 
REMARK  10 active torsions:
REMARK  status: ('A' for Active; 'I' for Inactive)
REMARK    1  A    between atoms: C_1  and  C_2
REMARK    2  A    between atoms: C_2  and  O_3
REMARK    3  A    between atoms: O_3  and  C_4
REMARK    4  A    between atoms: C_4  and  C_6
REMARK    5  A    between atoms: C_7  and  N_8
REMARK    6  A    between atoms: C_9  and  C_11
REMARK    7  A    between atoms: C_11  and  C_12
REMARK    8  A    between atoms: C_12  and  S_13
REMARK    9  A    between atoms: S_13  and  C_16
REMARK   10  A    between atoms: N_27  and  C_28
REMARK                            x       y       z     vdW  Elec       q    Type
REMARK                         _______ _______ _______ _____ _____    ______ ____
ROOT
ATOM      1  C   UNL     1      -1.191  10.606  19.128  0.00  0.00    +0.000 A 
ATOM      2  C   UNL     1       0.018  10.063  19.543  0.00  0.00    +0.000 A 
ATOM      3  S   UNL     1       0.730  10.905  20.847  0.00  0.00    +0.000 S 
ATOM      4  C   UNL     1      -0.633  11.896  21.025  0.00  0.00    +0.000 A 
ATOM      5  C   UNL     1      -1.528  11.738  19.984  0.00  0.00    +0.000 A 
ATOM      6  C   UNL     1      -2.738  12.639  19.894  0.00  0.00    +0.000 C 
ATOM      7  C   UNL     1      -2.689  13.779  20.944  0.00  0.00    +0.000 C 
ATOM      8  N   UNL     1      -2.173  13.391  22.276  0.00  0.00    +0.000 NA
ATOM      9  C   UNL     1      -3.068  12.444  22.943  0.00  0.00    +0.000 C 
ATOM     10  C   UNL     1      -0.790  12.870  22.159  0.00  0.00    +0.000 C 
ENDROOT
BRANCH   2  11
ATOM     11  N   UNL     1       0.804   8.996  19.138  0.00  0.00    +0.000 N 
ATOM     12  C   UNL     1       1.787   9.177  18.179  0.00  0.00    +0.000 C 
ATOM     13  O   UNL     1       2.019  10.226  17.587  0.00  0.00    +0.000 OA
ATOM     14  H   UNL     1       0.325   8.102  19.109  0.00  0.00    +0.000 HD
BRANCH  12  15
ATOM     15  C   UNL     1       2.531   7.898  17.838  0.00  0.00    +0.000 C 
BRANCH  15  16
ATOM     16  C   UNL     1       2.733   7.086  19.111  0.00  0.00    +0.000 C 
BRANCH  16  17
ATOM     17  S   UNL     1       2.791   5.338  18.802  0.00  0.00    +0.000 S 
ATOM     18  O   UNL     1       2.746   4.649  20.078  0.00  0.00    +0.000 OA
ATOM     19  O   UNL     1       1.839   5.025  17.755  0.00  0.00    +0.000 OA
BRANCH  17  20
ATOM     20  C   UNL     1       4.428   5.114  18.131  0.00  0.00    +0.000 A 
ATOM     21  C   UNL     1       4.579   4.735  16.792  0.00  0.00    +0.000 A 
ATOM     22  C   UNL     1       5.859   4.514  16.281  0.00  0.00    +0.000 A 
ATOM     23  C   UNL     1       6.978   4.684  17.097  0.00  0.00    +0.000 A 
ATOM     24  C   UNL     1       6.824   5.094  18.423  0.00  0.00    +0.000 A 
ATOM     25  C   UNL     1       5.547   5.317  18.944  0.00  0.00    +0.000 A 
ENDBRANCH  17  20
ENDBRANCH  16  17
ENDBRANCH  15  16
ENDBRANCH  12  15
ENDBRANCH   2  11
BRANCH   1  26
ATOM     26  C   UNL     1      -2.040  10.169  18.011  0.00  0.00    +0.000 C 
ATOM     27  O   UNL     1      -2.942   9.348  18.152  0.00  0.00    +0.000 OA
BRANCH  26  28
ATOM     28  O   UNL     1      -1.714  10.709  16.804  0.00  0.00    +0.000 OA
BRANCH  28  30
ATOM     29  C   UNL     1      -2.881  10.075  14.786  0.00  0.00    +0.000 C 
ATOM     30  C   UNL     1      -2.827  11.030  15.957  0.00  0.00    +0.000 C 
ENDBRANCH  28  30
ENDBRANCH  26  28
ENDBRANCH   1  26
TORSDOF 8
ENDMDL
MODEL 4
REMARK VINA RESULT:      -7.3      6.965     10.406
REMARK  Name = 
REMARK  10 active torsions:
REMARK  status: ('A' for Active; 'I' for Inactive)
REMARK    1  A    between atoms: C_1  and  C_2
REMARK    2  A    between atoms: C_2  and  O_3
REMARK    3  A    between atoms: O_3  and  C_4
REMARK    4  A    between atoms: C_4  and  C_6
REMARK    5  A    between atoms: C_7  and  N_8
REMARK    6  A    between atoms: C_9  and  C_11
REMARK    7  A    between atoms: C_11  and  C_12
REMARK    8  A    between atoms: C_12  and  S_13
REMARK    9  A    between atoms: S_13  and  C_16
REMARK   10  A    between atoms: N_27  and  C_28
REMARK                            x       y       z     vdW  Elec       q    Type
REMARK                         _______ _______ _______ _____ _____    ______ ____
ROOT
ATOM      1  C   UNL     1      -1.019  10.910  19.133  0.00  0.00    +0.000 A 
ATOM      2  C   UNL     1       0.147  10.287  19.559  0.00  0.00    +0.000 A 
ATOM      3  S   UNL     1       0.771  10.932  21.011  0.00  0.00    +0.000 S 
ATOM      4  C   UNL     1      -0.586  11.925  21.219  0.00  0.00    +0.000 A 
ATOM      5  C   UNL     1      -1.402  11.928  20.104  0.00  0.00    +0.000 A 
ATOM      6  C   UNL     1      -2.587  12.864  20.048  0.00  0.00    +0.000 C 
ATOM      7  C   UNL     1      -2.599  13.855  21.241  0.00  0.00    +0.000 C 
ATOM      8  N   UNL     1      -2.191  13.282  22.542  0.00  0.00    +0.000 NA
ATOM      9  C   UNL     1      -3.149  12.279  23.011  0.00  0.00    +0.000 C 
ATOM     10  C   UNL     1      -0.812  12.745  22.458  0.00  0.00    +0.000 C 
ENDROOT
BRANCH   2  11
ATOM     11  N   UNL     1       0.944   9.262  19.074  0.00  0.00    +0.000 N 
ATOM     12  C   UNL     1       1.900   9.521  18.104  0.00  0.00    +0.000 C 
ATOM     13  O   UNL     1       2.096  10.608  17.571  0.00  0.00    +0.000 OA
ATOM     14  H   UNL     1       0.482   8.361  19.002  0.00  0.00    +0.000 HD
BRANCH  12  15
ATOM     15  C   UNL     1       2.661   8.279  17.672  0.00  0.00    +0.000 C 
BRANCH  15  16
ATOM     16  C   UNL     1       2.545   7.221  18.761  0.00  0.00    +0.000 C 
BRANCH  16  17
ATOM     17  S   UNL     1       3.644   5.850  18.497  0.00  0.00    +0.000 S 
ATOM     18  O   UNL     1       4.052   5.855  17.105  0.00  0.00    +0.000 OA
ATOM     19  O   UNL     1       4.629   5.841  19.561  0.00  0.00    +0.000 OA
BRANCH  17  20
ATOM     20  C   UNL     1       2.575   4.442  18.737  0.00  0.00    +0.000 A 
ATOM     21  C   UNL     1       1.651   4.448  19.788  0.00  0.00    +0.000 A 
ATOM     22  C   UNL     1       0.848   3.327  20.003  0.00  0.00    +0.000 A 
ATOM     23  C   UNL     1       0.961   2.215  19.168  0.00  0.00    +0.000 A 
ATOM     24  C   UNL     1       1.862   2.226  18.102  0.00  0.00    +0.000 A 
ATOM     25  C   UNL     1       2.670   3.343  17.878  0.00  0.00    +0.000 A 
ENDBRANCH  17  20
ENDBRANCH  16  17
ENDBRANCH  15  16
ENDBRANCH  12  15
ENDBRANCH   2  11
BRANCH   1  26
ATOM     26  C   UNL     1      -1.788  10.646  17.908  0.00  0.00    +0.000 C 
ATOM     27  O   UNL     1      -1.532   9.705  17.161  0.00  0.00    +0.000 OA
BRANCH  26  28
ATOM     28  O   UNL     1      -2.770  11.552  17.646  0.00  0.00    +0.000 OA
BRANCH  28  30
ATOM     29  C   UNL     1      -5.093  11.962  17.127  0.00  0.00    +0.000 C 
ATOM     30  C   UNL     1      -3.915  11.031  16.955  0.00  0.00    +0.000 C 
ENDBRANCH  28  30
ENDBRANCH  26  28
ENDBRANCH   1  26
TORSDOF 8
ENDMDL
MODEL 5
REMARK VINA RESULT:      -7.2      7.002     10.216
REMARK  Name = 
REMARK  10 active torsions:
REMARK  status: ('A' for Active; 'I' for Inactive)
REMARK    1  A    between atoms: C_1  and  C_2
REMARK    2  A    between atoms: C_2  and  O_3
REMARK    3  A    between atoms: O_3  and  C_4
REMARK    4  A    between atoms: C_4  and  C_6
REMARK    5  A    between atoms: C_7  and  N_8
REMARK    6  A    between atoms: C_9  and  C_11
REMARK    7  A    between atoms: C_11  and  C_12
REMARK    8  A    between atoms: C_12  and  S_13
REMARK    9  A    between atoms: S_13  and  C_16
REMARK   10  A    between atoms: N_27  and  C_28
REMARK                            x       y       z     vdW  Elec       q    Type
REMARK                         _______ _______ _______ _____ _____    ______ ____
ROOT
ATOM      1  C   UNL     1      -1.703  10.722  18.425  0.00  0.00    +0.000 A 
ATOM      2  C   UNL     1      -0.319  10.671  18.531  0.00  0.00    +0.000 A 
ATOM      3  S   UNL     1       0.332  11.891  19.532  0.00  0.00    +0.000 S 
ATOM      4  C   UNL     1      -1.212  12.403  20.007  0.00  0.00    +0.000 A 
ATOM      5  C   UNL     1      -2.209  11.804  19.262  0.00  0.00    +0.000 A 
ATOM      6  C   UNL     1      -3.644  12.240  19.444  0.00  0.00    +0.000 C 
ATOM      7  C   UNL     1      -3.758  13.485  20.362  0.00  0.00    +0.000 C 
ATOM      8  N   UNL     1      -2.844  13.498  21.526  0.00  0.00    +0.000 NA
ATOM      9  C   UNL     1      -3.167  12.430  22.474  0.00  0.00    +0.000 C 
ATOM     10  C   UNL     1      -1.434  13.440  21.073  0.00  0.00    +0.000 C 
ENDROOT
BRANCH   2  11
ATOM     11  N   UNL     1       0.676   9.865  18.000  0.00  0.00    +0.000 N 
ATOM     12  C   UNL     1       1.317   8.930  18.798  0.00  0.00    +0.000 C 
ATOM     13  O   UNL     1       1.117   8.761  19.996  0.00  0.00    +0.000 OA
ATOM     14  H   UNL     1       1.257  10.313  17.299  0.00  0.00    +0.000 HD
BRANCH  12  15
ATOM     15  C   UNL     1       2.395   8.156  18.059  0.00  0.00    +0.000 C 
BRANCH  15  16
ATOM     16  C   UNL     1       3.216   7.363  19.067  0.00  0.00    +0.000 C 
BRANCH  16  17
ATOM     17  S   UNL     1       3.881   5.866  18.377  0.00  0.00    +0.000 S 
ATOM     18  O   UNL     1       3.890   5.996  16.932  0.00  0.00    +0.000 OA
ATOM     19  O   UNL     1       5.091   5.526  19.100  0.00  0.00    +0.000 OA
BRANCH  17  20
ATOM     20  C   UNL     1       2.639   4.658  18.799  0.00  0.00    +0.000 A 
ATOM     21  C   UNL     1       1.891   4.817  19.971  0.00  0.00    +0.000 A 
ATOM     22  C   UNL     1       0.953   3.846  20.324  0.00  0.00    +0.000 A 
ATOM     23  C   UNL     1       0.756   2.732  19.507  0.00  0.00    +0.000 A 
ATOM     24  C   UNL     1       1.483   2.593  18.323  0.00  0.00    +0.000 A 
ATOM     25  C   UNL     1       2.424   3.560  17.960  0.00  0.00    +0.000 A 
ENDBRANCH  17  20
ENDBRANCH  16  17
ENDBRANCH  15  16
ENDBRANCH  12  15
ENDBRANCH   2  11
BRANCH   1  26
ATOM     26  C   UNL     1      -2.578   9.864  17.612  0.00  0.00    +0.000 C 
ATOM     27  O   UNL     1      -3.507   9.227  18.098  0.00  0.00    +0.000 OA
BRANCH  26  28
ATOM     28  O   UNL     1      -2.244   9.799  16.293  0.00  0.00    +0.000 OA
BRANCH  28  30
ATOM     29  C   UNL     1      -3.135  10.063  14.064  0.00  0.00    +0.000 C 
ATOM     30  C   UNL     1      -2.975  10.684  15.433  0.00  0.00    +0.000 C 
ENDBRANCH  28  30
ENDBRANCH  26  28
ENDBRANCH   1  26
TORSDOF 8
ENDMDL
MODEL 6
REMARK VINA RESULT:      -7.2      1.666      2.335
REMARK  Name = 
REMARK  10 active torsions:
REMARK  status: ('A' for Active; 'I' for Inactive)
REMARK    1  A    between atoms: C_1  and  C_2
REMARK    2  A    between atoms: C_2  and  O_3
REMARK    3  A    between atoms: O_3  and  C_4
REMARK    4  A    between atoms: C_4  and  C_6
REMARK    5  A    between atoms: C_7  and  N_8
REMARK    6  A    between atoms: C_9  and  C_11
REMARK    7  A    between atoms: C_11  and  C_12
REMARK    8  A    between atoms: C_12  and  S_13
REMARK    9  A    between atoms: S_13  and  C_16
REMARK   10  A    between atoms: N_27  and  C_28
REMARK                            x       y       z     vdW  Elec       q    Type
REMARK                         _______ _______ _______ _____ _____    ______ ____
ROOT
ATOM      1  C   UNL     1       6.123   5.542  16.924  0.00  0.00    +0.000 A 
ATOM      2  C   UNL     1       5.991   6.911  17.116  0.00  0.00    +0.000 A 
ATOM      3  S   UNL     1       4.415   7.385  17.571  0.00  0.00    +0.000 S 
ATOM      4  C   UNL     1       3.911   5.774  17.714  0.00  0.00    +0.000 A 
ATOM      5  C   UNL     1       4.853   4.890  17.223  0.00  0.00    +0.000 A 
ATOM      6  C   UNL     1       4.524   3.418  17.136  0.00  0.00    +0.000 C 
ATOM      7  C   UNL     1       3.034   3.139  17.463  0.00  0.00    +0.000 C 
ATOM      8  N   UNL     1       2.468   3.942  18.570  0.00  0.00    +0.000 NA
ATOM      9  C   UNL     1       3.095   3.610  19.850  0.00  0.00    +0.000 C 
ATOM     10  C   UNL     1       2.563   5.388  18.255  0.00  0.00    +0.000 C 
ENDROOT
BRANCH   2  11
ATOM     11  N   UNL     1       6.840   8.002  17.011  0.00  0.00    +0.000 N 
ATOM     12  C   UNL     1       7.940   8.113  17.846  0.00  0.00    +0.000 C 
ATOM     13  O   UNL     1       8.234   7.330  18.743  0.00  0.00    +0.000 OA
ATOM     14  H   UNL     1       6.382   8.876  16.774  0.00  0.00    +0.000 HD
BRANCH  12  15
ATOM     15  C   UNL     1       8.741   9.381  17.610  0.00  0.00    +0.000 C 
BRANCH  15  16
ATOM     16  C   UNL     1       8.150  10.506  18.449  0.00  0.00    +0.000 C 
BRANCH  16  17
ATOM     17  S   UNL     1       9.356  11.276  19.503  0.00  0.00    +0.000 S 
ATOM     18  O   UNL     1       8.658  11.914  20.603  0.00  0.00    +0.000 OA
ATOM     19  O   UNL     1      10.422  10.326  19.750  0.00  0.00    +0.000 OA
BRANCH  17  20
ATOM     20  C   UNL     1      10.012  12.569  18.464  0.00  0.00    +0.000 A 
ATOM     21  C   UNL     1      11.023  12.269  17.545  0.00  0.00    +0.000 A 
ATOM     22  C   UNL     1      11.569  13.290  16.766  0.00  0.00    +0.000 A 
ATOM     23  C   UNL     1      11.100  14.598  16.897  0.00  0.00    +0.000 A 
ATOM     24  C   UNL     1      10.069  14.887  17.794  0.00  0.00    +0.000 A 
ATOM     25  C   UNL     1       9.516  13.871  18.577  0.00  0.00    +0.000 A 
ENDBRANCH  17  20
ENDBRANCH  16  17
ENDBRANCH  15  16
ENDBRANCH  12  15
ENDBRANCH   2  11
BRANCH   1  26
ATOM     26  C   UNL     1       7.315   4.803  16.482  0.00  0.00    +0.000 C 
ATOM     27  O   UNL     1       8.027   4.178  17.263  0.00  0.00    +0.000 OA
BRANCH  26  28
ATOM     28  O   UNL     1       7.590   4.909  15.153  0.00  0.00    +0.000 OA
BRANCH  28  30
ATOM     29  C   UNL     1       6.198   3.660  13.624  0.00  0.00    +0.000 C 
ATOM     30  C   UNL     1       6.442   4.992  14.296  0.00  0.00    +0.000 C 
ENDBRANCH  28  30
ENDBRANCH  26  28
ENDBRANCH   1  26
TORSDOF 8
ENDMDL
MODEL 7
REMARK VINA RESULT:      -7.2      5.569      8.383
REMARK  Name = 
REMARK  10 active torsions:
REMARK  status: ('A' for Active; 'I' for Inactive)
REMARK    1  A    between atoms: C_1  and  C_2
REMARK    2  A    between atoms: C_2  and  O_3
REMARK    3  A    between atoms: O_3  and  C_4
REMARK    4  A    between atoms: C_4  and  C_6
REMARK    5  A    between atoms: C_7  and  N_8
REMARK    6  A    between atoms: C_9  and  C_11
REMARK    7  A    between atoms: C_11  and  C_12
REMARK    8  A    between atoms: C_12  and  S_13
REMARK    9  A    between atoms: S_13  and  C_16
REMARK   10  A    between atoms: N_27  and  C_28
REMARK                            x       y       z     vdW  Elec       q    Type
REMARK                         _______ _______ _______ _____ _____    ______ ____
ROOT
ATOM      1  C   UNL     1       3.133   5.163  17.854  0.00  0.00    +0.000 A 
ATOM      2  C   UNL     1       3.269   6.463  18.324  0.00  0.00    +0.000 A 
ATOM      3  S   UNL     1       4.788   7.158  17.972  0.00  0.00    +0.000 S 
ATOM      4  C   UNL     1       5.239   5.830  17.021  0.00  0.00    +0.000 A 
ATOM      5  C   UNL     1       4.345   4.783  17.136  0.00  0.00    +0.000 A 
ATOM      6  C   UNL     1       4.653   3.460  16.473  0.00  0.00    +0.000 C 
ATOM      7  C   UNL     1       6.087   3.429  15.883  0.00  0.00    +0.000 C 
ATOM      8  N   UNL     1       6.532   4.683  15.237  0.00  0.00    +0.000 NA
ATOM      9  C   UNL     1       5.749   4.975  14.035  0.00  0.00    +0.000 C 
ATOM     10  C   UNL     1       6.504   5.801  16.211  0.00  0.00    +0.000 C 
ENDROOT
BRANCH   2  11
ATOM     11  N   UNL     1       2.461   7.338  19.032  0.00  0.00    +0.000 N 
ATOM     12  C   UNL     1       1.981   8.489  18.428  0.00  0.00    +0.000 C 
ATOM     13  O   UNL     1       2.244   8.857  17.288  0.00  0.00    +0.000 OA
ATOM     14  H   UNL     1       2.689   7.425  20.017  0.00  0.00    +0.000 HD
BRANCH  12  15
ATOM     15  C   UNL     1       1.137   9.343  19.359  0.00  0.00    +0.000 C 
BRANCH  15  16
ATOM     16  C   UNL     1       0.778  10.644  18.652  0.00  0.00    +0.000 C 
BRANCH  16  17
ATOM     17  S   UNL     1      -0.614  11.460  19.394  0.00  0.00    +0.000 S 
ATOM     18  O   UNL     1      -0.919  10.794  20.646  0.00  0.00    +0.000 OA
ATOM     19  O   UNL     1      -0.382  12.891  19.351  0.00  0.00    +0.000 OA
BRANCH  17  20
ATOM     20  C   UNL     1      -1.936  11.091  18.255  0.00  0.00    +0.000 A 
ATOM     21  C   UNL     1      -1.721  10.169  17.225  0.00  0.00    +0.000 A 
ATOM     22  C   UNL     1      -2.740   9.916  16.305  0.00  0.00    +0.000 A 
ATOM     23  C   UNL     1      -3.967  10.571  16.423  0.00  0.00    +0.000 A 
ATOM     24  C   UNL     1      -4.187  11.467  17.471  0.00  0.00    +0.000 A 
ATOM     25  C   UNL     1      -3.173  11.726  18.396  0.00  0.00    +0.000 A 
ENDBRANCH  17  20
ENDBRANCH  16  17
ENDBRANCH  15  16
ENDBRANCH  12  15
ENDBRANCH   2  11
BRANCH   1  26
ATOM     26  C   UNL     1       1.988   4.257  18.024  0.00  0.00    +0.000 C 
ATOM     27  O   UNL     1       1.030   4.257  17.256  0.00  0.00    +0.000 OA
BRANCH  26  28
ATOM     28  O   UNL     1       2.055   3.456  19.123  0.00  0.00    +0.000 OA
BRANCH  28  30
ATOM     29  C   UNL     1       1.315   2.850  21.341  0.00  0.00    +0.000 C 
ATOM     30  C   UNL     1       1.264   3.885  20.241  0.00  0.00    +0.000 C 
ENDBRANCH  28  30
ENDBRANCH  26  28
ENDBRANCH   1  26
TORSDOF 8
ENDMDL
MODEL 8
REMARK VINA RESULT:      -7.2      6.911      9.748
REMARK  Name = 
REMARK  10 active torsions:
REMARK  status: ('A' for Active; 'I' for Inactive)
REMARK    1  A    between atoms: C_1  and  C_2
REMARK    2  A    between atoms: C_2  and  O_3
REMARK    3  A    between atoms: O_3  and  C_4
REMARK    4  A    between atoms: C_4  and  C_6
REMARK    5  A    between atoms: C_7  and  N_8
REMARK    6  A    between atoms: C_9  and  C_11
REMARK    7  A    between atoms: C_11  and  C_12
REMARK    8  A    between atoms: C_12  and  S_13
REMARK    9  A    between atoms: S_13  and  C_16
REMARK   10  A    between atoms: N_27  and  C_28
REMARK                            x       y       z     vdW  Elec       q    Type
REMARK                         _______ _______ _______ _____ _____    ______ ____
ROOT
ATOM      1  C   UNL     1      -1.244  11.040  18.619  0.00  0.00    +0.000 A 
ATOM      2  C   UNL     1       0.120  10.778  18.642  0.00  0.00    +0.000 A 
ATOM      3  S   UNL     1       0.961  11.660  19.838  0.00  0.00    +0.000 S 
ATOM      4  C   UNL     1      -0.482  12.267  20.486  0.00  0.00    +0.000 A 
ATOM      5  C   UNL     1      -1.571  11.980  19.685  0.00  0.00    +0.000 A 
ATOM      6  C   UNL     1      -2.924  12.561  20.026  0.00  0.00    +0.000 C 
ATOM      7  C   UNL     1      -2.837  13.588  21.184  0.00  0.00    +0.000 C 
ATOM      8  N   UNL     1      -1.907  13.231  22.278  0.00  0.00    +0.000 NA
ATOM      9  C   UNL     1      -2.360  12.042  23.002  0.00  0.00    +0.000 C 
ATOM     10  C   UNL     1      -0.529  13.076  21.752  0.00  0.00    +0.000 C 
ENDROOT
BRANCH   2  11
ATOM     11  N   UNL     1       0.976   9.974  17.908  0.00  0.00    +0.000 N 
ATOM     12  C   UNL     1       1.568   8.866  18.493  0.00  0.00    +0.000 C 
ATOM     13  O   UNL     1       1.442   8.529  19.666  0.00  0.00    +0.000 OA
ATOM     14  H   UNL     1       1.549  10.468  17.231  0.00  0.00    +0.000 HD
BRANCH  12  15
ATOM     15  C   UNL     1       2.495   8.117  17.551  0.00  0.00    +0.000 C 
BRANCH  15  16
ATOM     16  C   UNL     1       3.605   7.463  18.362  0.00  0.00    +0.000 C 
BRANCH  16  17
ATOM     17  S   UNL     1       3.502   5.689  18.351  0.00  0.00    +0.000 S 
ATOM     18  O   UNL     1       3.837   5.205  19.677  0.00  0.00    +0.000 OA
ATOM     19  O   UNL     1       2.258   5.306  17.712  0.00  0.00    +0.000 OA
BRANCH  17  20
ATOM     20  C   UNL     1       4.835   5.228  17.260  0.00  0.00    +0.000 A 
ATOM     21  C   UNL     1       5.992   6.014  17.214  0.00  0.00    +0.000 A 
ATOM     22  C   UNL     1       7.015   5.679  16.325  0.00  0.00    +0.000 A 
ATOM     23  C   UNL     1       6.886   4.562  15.498  0.00  0.00    +0.000 A 
ATOM     24  C   UNL     1       5.743   3.763  15.570  0.00  0.00    +0.000 A 
ATOM     25  C   UNL     1       4.715   4.090  16.457  0.00  0.00    +0.000 A 
ENDBRANCH  17  20
ENDBRANCH  16  17
ENDBRANCH  15  16
ENDBRANCH  12  15
ENDBRANCH   2  11
BRANCH   1  26
ATOM     26  C   UNL     1      -2.251  10.501  17.693  0.00  0.00    +0.000 C 
ATOM     27  O   UNL     1      -2.909   9.497  17.951  0.00  0.00    +0.000 OA
BRANCH  26  28
ATOM     28  O   UNL     1      -2.357  11.173  16.514  0.00  0.00    +0.000 OA
BRANCH  28  30
ATOM     29  C   UNL     1      -3.170  10.131  14.493  0.00  0.00    +0.000 C 
ATOM     30  C   UNL     1      -3.537  10.886  15.750  0.00  0.00    +0.000 C 
ENDBRANCH  28  30
ENDBRANCH  26  28
ENDBRANCH   1  26
TORSDOF 8
ENDMDL
MODEL 9
REMARK VINA RESULT:      -7.1      5.525      7.563
REMARK  Name = 
REMARK  10 active torsions:
REMARK  status: ('A' for Active; 'I' for Inactive)
REMARK    1  A    between atoms: C_1  and  C_2
REMARK    2  A    between atoms: C_2  and  O_3
REMARK    3  A    between atoms: O_3  and  C_4
REMARK    4  A    between atoms: C_4  and  C_6
REMARK    5  A    between atoms: C_7  and  N_8
REMARK    6  A    between atoms: C_9  and  C_11
REMARK    7  A    between atoms: C_11  and  C_12
REMARK    8  A    between atoms: C_12  and  S_13
REMARK    9  A    between atoms: S_13  and  C_16
REMARK   10  A    between atoms: N_27  and  C_28
REMARK                            x       y       z     vdW  Elec       q    Type
REMARK                         _______ _______ _______ _____ _____    ______ ____
ROOT
ATOM      1  C   UNL     1       3.461   4.454  17.951  0.00  0.00    +0.000 A 
ATOM      2  C   UNL     1       3.706   5.228  19.078  0.00  0.00    +0.000 A 
ATOM      3  S   UNL     1       5.345   5.676  19.252  0.00  0.00    +0.000 S 
ATOM      4  C   UNL     1       5.743   5.022  17.740  0.00  0.00    +0.000 A 
ATOM      5  C   UNL     1       4.702   4.289  17.202  0.00  0.00    +0.000 A 
ATOM      6  C   UNL     1       4.916   3.512  15.924  0.00  0.00    +0.000 C 
ATOM      7  C   UNL     1       6.405   3.516  15.488  0.00  0.00    +0.000 C 
ATOM      8  N   UNL     1       7.117   4.798  15.684  0.00  0.00    +0.000 NA
ATOM      9  C   UNL     1       6.577   5.850  14.821  0.00  0.00    +0.000 C 
ATOM     10  C   UNL     1       7.100   5.182  17.115  0.00  0.00    +0.000 C 
ENDROOT
BRANCH   2  11
ATOM     11  N   UNL     1       2.933   5.718  20.118  0.00  0.00    +0.000 N 
ATOM     12  C   UNL     1       2.214   6.893  19.960  0.00  0.00    +0.000 C 
ATOM     13  O   UNL     1       2.225   7.604  18.961  0.00  0.00    +0.000 OA
ATOM     14  H   UNL     1       3.317   5.563  21.044  0.00  0.00    +0.000 HD
BRANCH  12  15
ATOM     15  C   UNL     1       1.446   7.294  21.207  0.00  0.00    +0.000 C 
BRANCH  15  16
ATOM     16  C   UNL     1       1.480   8.810  21.346  0.00  0.00    +0.000 C 
BRANCH  16  17
ATOM     17  S   UNL     1      -0.037   9.468  21.997  0.00  0.00    +0.000 S 
ATOM     18  O   UNL     1      -0.988   8.380  22.124  0.00  0.00    +0.000 OA
ATOM     19  O   UNL     1       0.280  10.314  23.131  0.00  0.00    +0.000 OA
BRANCH  17  20
ATOM     20  C   UNL     1      -0.602  10.524  20.675  0.00  0.00    +0.000 A 
ATOM     21  C   UNL     1      -0.589  10.049  19.359  0.00  0.00    +0.000 A 
ATOM     22  C   UNL     1      -0.987  10.892  18.320  0.00  0.00    +0.000 A 
ATOM     23  C   UNL     1      -1.406  12.194  18.598  0.00  0.00    +0.000 A 
ATOM     24  C   UNL     1      -1.448  12.653  19.916  0.00  0.00    +0.000 A 
ATOM     25  C   UNL     1      -1.051  11.816  20.962  0.00  0.00    +0.000 A 
ENDBRANCH  17  20
ENDBRANCH  16  17
ENDBRANCH  15  16
ENDBRANCH  12  15
ENDBRANCH   2  11
BRANCH   1  26
ATOM     26  C   UNL     1       2.186   3.858  17.526  0.00  0.00    +0.000 C 
ATOM     27  O   UNL     1       1.200   4.537  17.257  0.00  0.00    +0.000 OA
BRANCH  26  28
ATOM     28  O   UNL     1       2.176   2.496  17.501  0.00  0.00    +0.000 OA
BRANCH  28  30
ATOM     29  C   UNL     1       3.777   1.092  18.640  0.00  0.00    +0.000 C 
ATOM     30  C   UNL     1       2.480   1.859  18.750  0.00  0.00    +0.000 C 
ENDBRANCH  28  30
ENDBRANCH  26  28
ENDBRANCH   1  26
TORSDOF 8
ENDMDL
