MODEL 1
REMARK VINA RESULT:      -7.8      0.000      0.000
REMARK  Name = 
REMARK  10 active torsions:
REMARK  status: ('A' for Active; 'I' for Inactive)
REMARK    1  A    between atoms: C_1  and  C_2
REMARK    2  A    between atoms: C_2  and  C_3
REMARK    3  A    between atoms: C_3  and  N_4
REMARK    4  A    between atoms: N_4  and  C_5
REMARK    5  A    between atoms: C_5  and  C_6
REMARK    6  A    between atoms: C_11  and  C_12
REMARK    7  A    between atoms: N_14  and  C_15
REMARK    8  A    between atoms: N_20  and  C_21
REMARK    9  A    between atoms: C_21  and  C_22
REMARK   10  A    between atoms: C_22  and  O_24
REMARK                            x       y       z     vdW  Elec       q    Type
REMARK                         _______ _______ _______ _____ _____    ______ ____
ROOT
ATOM      1  C   UNL     1       1.227   8.918  20.603  0.00  0.00    +0.000 C 
ATOM      2  O   UNL     1       1.619   8.449  21.668  0.00  0.00    +0.000 OA
ATOM      3  N   UNL     1       1.566   8.478  19.333  0.00  0.00    +0.000 N 
ATOM      4  H   UNL     1       1.216   9.052  18.571  0.00  0.00    +0.000 HD
ENDROOT
BRANCH   3   5
ATOM      5  C   UNL     1       2.434   7.400  19.012  0.00  0.00    +0.000 A 
ATOM      6  C   UNL     1       2.434   6.184  19.778  0.00  0.00    +0.000 A 
ATOM      7  C   UNL     1       3.297   5.085  19.549  0.00  0.00    +0.000 A 
ATOM      8  C   UNL     1       4.192   5.284  18.491  0.00  0.00    +0.000 A 
ATOM      9  N   UNL     1       5.153   4.476  18.006  0.00  0.00    +0.000 NA
ATOM     10  N   UNL     1       5.782   5.220  17.072  0.00  0.00    +0.000 N 
ATOM     11  C   UNL     1       5.187   6.429  16.822  0.00  0.00    +0.000 A 
ATOM     12  C   UNL     1       4.168   6.507  17.732  0.00  0.00    +0.000 A 
ATOM     13  C   UNL     1       3.306   7.591  17.911  0.00  0.00    +0.000 A 
BRANCH  10  14
ATOM     14  C   UNL     1       6.989   4.697  16.464  0.00  0.00    +0.000 C 
BRANCH  14  15
ATOM     15  C   UNL     1       6.868   4.612  14.972  0.00  0.00    +0.000 C 
ATOM     16  O   UNL     1       6.052   3.896  14.403  0.00  0.00    +0.000 OA
BRANCH  15  17
ATOM     17  O   UNL     1       7.703   5.430  14.290  0.00  0.00    +0.000 OA
ATOM     18  H   UNL     1       8.440   5.800  14.825  0.00  0.00    +0.000 HD
ENDBRANCH  15  17
ENDBRANCH  14  15
ENDBRANCH  10  14
ENDBRANCH   3   5
BRANCH   1  22
ATOM     19  N   UNL     1      -2.475  11.520  18.776  0.00  0.00    +0.000 N 
ATOM     20  C   UNL     1      -1.449  11.360  19.731  0.00  0.00    +0.000 A 
ATOM     21  C   UNL     1      -0.607  10.273  19.642  0.00  0.00    +0.000 A 
ATOM     22  C   UNL     1       0.329  10.116  20.646  0.00  0.00    +0.000 A 
ATOM     23  N   UNL     1       0.476  10.961  21.691  0.00  0.00    +0.000 NA
ATOM     24  C   UNL     1      -0.378  11.991  21.674  0.00  0.00    +0.000 A 
ATOM     25  N   UNL     1      -1.337  12.222  20.760  0.00  0.00    +0.000 NA
BRANCH  19  26
ATOM     26  C   UNL     1      -3.629  12.272  19.287  0.00  0.00    +0.000 C 
BRANCH  26  28
ATOM     27  C   UNL     1      -5.731  12.439  17.809  0.00  0.00    +0.000 C 
ATOM     28  C   UNL     1      -4.996  11.691  18.911  0.00  0.00    +0.000 C 
ENDBRANCH  26  28
ENDBRANCH  19  26
BRANCH  19  29
ATOM     29  C   UNL     1      -1.998  11.689  17.394  0.00  0.00    +0.000 C 
BRANCH  29  30
ATOM     30  C   UNL     1      -2.161  10.484  16.505  0.00  0.00    +0.000 C 
ATOM     31  C   UNL     1      -3.439   9.686  16.414  0.00  0.00    +0.000 C 
ATOM     32  C   UNL     1      -3.036  10.569  15.271  0.00  0.00    +0.000 C 
ENDBRANCH  29  30
ENDBRANCH  19  29
ENDBRANCH   1  22
TORSDOF 9
ENDMDL
MODEL 2
REMARK VINA RESULT:      -7.7      3.386     10.078
REMARK  Name = 
REMARK  10 active torsions:
REMARK  status: ('A' for Active; 'I' for Inactive)
REMARK    1  A    between atoms: C_1  and  C_2
REMARK    2  A    between atoms: C_2  and  C_3
REMARK    3  A    between atoms: C_3  and  N_4
REMARK    4  A    between atoms: N_4  and  C_5
REMARK    5  A    between atoms: C_5  and  C_6
REMARK    6  A    between atoms: C_11  and  C_12
REMARK    7  A    between atoms: N_14  and  C_15
REMARK    8  A    between atoms: N_20  and  C_21
REMARK    9  A    between atoms: C_21  and  C_22
REMARK   10  A    between atoms: C_22  and  O_24
REMARK                            x       y       z     vdW  Elec       q    Type
REMARK                         _______ _______ _______ _____ _____    ______ ____
ROOT
ATOM      1  C   UNL     1       1.901   6.485  20.072  0.00  0.00    +0.000 C 
ATOM      2  O   UNL     1       1.525   5.855  21.057  0.00  0.00    +0.000 OA
ATOM      3  N   UNL     1       1.731   7.842  19.846  0.00  0.00    +0.000 N 
ATOM      4  H   UNL     1       2.025   8.166  18.929  0.00  0.00    +0.000 HD
ENDROOT
BRANCH   3   5
ATOM      5  C   UNL     1       1.087   8.772  20.707  0.00  0.00    +0.000 A 
ATOM      6  C   UNL     1       1.152   8.639  22.136  0.00  0.00    +0.000 A 
ATOM      7  C   UNL     1       0.503   9.496  23.058  0.00  0.00    +0.000 A 
ATOM      8  C   UNL     1      -0.245  10.511  22.450  0.00  0.00    +0.000 A 
ATOM      9  N   UNL     1      -0.995  11.483  23.001  0.00  0.00    +0.000 NA
ATOM     10  N   UNL     1      -1.582  12.096  21.952  0.00  0.00    +0.000 N 
ATOM     11  C   UNL     1      -1.141  11.662  20.729  0.00  0.00    +0.000 A 
ATOM     12  C   UNL     1      -0.290  10.630  21.016  0.00  0.00    +0.000 A 
ATOM     13  C   UNL     1       0.368   9.823  20.085  0.00  0.00    +0.000 A 
BRANCH  10  14
ATOM     14  C   UNL     1      -2.596  13.098  22.211  0.00  0.00    +0.000 C 
BRANCH  14  15
ATOM     15  C   UNL     1      -3.824  12.501  22.830  0.00  0.00    +0.000 C 
ATOM     16  O   UNL     1      -4.925  12.520  22.292  0.00  0.00    +0.000 OA
BRANCH  15  17
ATOM     17  O   UNL     1      -3.617  11.889  24.018  0.00  0.00    +0.000 OA
ATOM     18  H   UNL     1      -3.711  10.911  23.996  0.00  0.00    +0.000 HD
ENDBRANCH  15  17
ENDBRANCH  14  15
ENDBRANCH  10  14
ENDBRANCH   3   5
BRANCH   1  22
ATOM     19  N   UNL     1       5.858   5.502  17.391  0.00  0.00    +0.000 N 
ATOM     20  C   UNL     1       4.493   5.292  17.675  0.00  0.00    +0.000 A 
ATOM     21  C   UNL     1       3.887   6.031  18.668  0.00  0.00    +0.000 A 
ATOM     22  C   UNL     1       2.571   5.732  18.965  0.00  0.00    +0.000 A 
ATOM     23  N   UNL     1       1.846   4.779  18.339  0.00  0.00    +0.000 NA
ATOM     24  C   UNL     1       2.520   4.132  17.382  0.00  0.00    +0.000 A 
ATOM     25  N   UNL     1       3.804   4.329  17.032  0.00  0.00    +0.000 NA
BRANCH  19  26
ATOM     26  C   UNL     1       6.521   4.318  16.830  0.00  0.00    +0.000 C 
BRANCH  26  28
ATOM     27  C   UNL     1       5.985   4.026  14.328  0.00  0.00    +0.000 C 
ATOM     28  C   UNL     1       6.992   4.468  15.379  0.00  0.00    +0.000 C 
ENDBRANCH  26  28
ENDBRANCH  19  26
BRANCH  19  29
ATOM     29  C   UNL     1       6.179   6.859  16.920  0.00  0.00    +0.000 C 
BRANCH  29  30
ATOM     30  C   UNL     1       7.594   7.309  17.168  0.00  0.00    +0.000 C 
ATOM     31  C   UNL     1       7.946   8.610  17.848  0.00  0.00    +0.000 C 
ATOM     32  C   UNL     1       8.148   7.316  18.578  0.00  0.00    +0.000 C 
ENDBRANCH  29  30
ENDBRANCH  19  29
ENDBRANCH   1  22
TORSDOF 9
ENDMDL
MODEL 3
REMARK VINA RESULT:      -7.5      2.931      3.511
REMARK  Name = 
REMARK  10 active torsions:
REMARK  status: ('A' for Active; 'I' for Inactive)
REMARK    1  A    between atoms: C_1  and  C_2
REMARK    2  A    between atoms: C_2  and  C_3
REMARK    3  A    between atoms: C_3  and  N_4
REMARK    4  A    between atoms: N_4  and  C_5
REMARK    5  A    between atoms: C_5  and  C_6
REMARK    6  A    between atoms: C_11  and  C_12
REMARK    7  A    between atoms: N_14  and  C_15
REMARK    8  A    between atoms: N_20  and  C_21
REMARK    9  A    between atoms: C_21  and  C_22
REMARK   10  A    between atoms: C_22  and  O_24
REMARK                            x       y       z     vdW  Elec       q    Type
REMARK                         _______ _______ _______ _____ _____    ______ ____
ROOT
ATOM      1  C   UNL     1       1.268   8.601  20.097  0.00  0.00    +0.000 C 
ATOM      2  O   UNL     1       1.219   8.981  18.930  0.00  0.00    +0.000 OA
ATOM      3  N   UNL     1       1.774   7.392  20.549  0.00  0.00    +0.000 N 
ATOM      4  H   UNL     1       1.643   7.214  21.541  0.00  0.00    +0.000 HD
ENDROOT
BRANCH   3   5
ATOM      5  C   UNL     1       2.333   6.355  19.754  0.00  0.00    +0.000 A 
ATOM      6  C   UNL     1       2.117   4.970  20.070  0.00  0.00    +0.000 A 
ATOM      7  C   UNL     1       2.673   3.881  19.355  0.00  0.00    +0.000 A 
ATOM      8  C   UNL     1       3.490   4.270  18.288  0.00  0.00    +0.000 A 
ATOM      9  N   UNL     1       4.187   3.521  17.413  0.00  0.00    +0.000 NA
ATOM     10  N   UNL     1       4.887   4.414  16.683  0.00  0.00    +0.000 N 
ATOM     11  C   UNL     1       4.572   5.723  16.944  0.00  0.00    +0.000 A 
ATOM     12  C   UNL     1       3.687   5.664  17.984  0.00  0.00    +0.000 A 
ATOM     13  C   UNL     1       3.123   6.756  18.648  0.00  0.00    +0.000 A 
BRANCH  10  14
ATOM     14  C   UNL     1       5.878   3.923  15.746  0.00  0.00    +0.000 C 
BRANCH  14  15
ATOM     15  C   UNL     1       7.189   4.631  15.902  0.00  0.00    +0.000 C 
ATOM     16  O   UNL     1       7.596   5.476  15.113  0.00  0.00    +0.000 OA
BRANCH  15  17
ATOM     17  O   UNL     1       7.881   4.300  17.018  0.00  0.00    +0.000 OA
ATOM     18  H   UNL     1       7.581   3.473  17.455  0.00  0.00    +0.000 HD
ENDBRANCH  15  17
ENDBRANCH  14  15
ENDBRANCH  10  14
ENDBRANCH   3   5
BRANCH   1  22
ATOM     19  N   UNL     1      -0.297  12.976  21.585  0.00  0.00    +0.000 N 
ATOM     20  C   UNL     1      -0.042  11.615  21.852  0.00  0.00    +0.000 A 
ATOM     21  C   UNL     1       0.534  10.831  20.876  0.00  0.00    +0.000 A 
ATOM     22  C   UNL     1       0.690   9.487  21.156  0.00  0.00    +0.000 A 
ATOM     23  N   UNL     1       0.326   8.903  22.319  0.00  0.00    +0.000 NA
ATOM     24  C   UNL     1      -0.207   9.753  23.204  0.00  0.00    +0.000 A 
ATOM     25  N   UNL     1      -0.422  11.069  23.023  0.00  0.00    +0.000 NA
BRANCH  19  26
ATOM     26  C   UNL     1      -1.415  13.520  22.368  0.00  0.00    +0.000 C 
BRANCH  26  28
ATOM     27  C   UNL     1      -1.657  16.042  22.831  0.00  0.00    +0.000 C 
ATOM     28  C   UNL     1      -1.057  14.712  23.262  0.00  0.00    +0.000 C 
ENDBRANCH  26  28
ENDBRANCH  19  26
BRANCH  19  29
ATOM     29  C   UNL     1       0.906  13.776  21.303  0.00  0.00    +0.000 C 
BRANCH  29  30
ATOM     30  C   UNL     1       0.968  14.384  19.927  0.00  0.00    +0.000 C 
ATOM     31  C   UNL     1      -0.257  14.754  19.127  0.00  0.00    +0.000 C 
ATOM     32  C   UNL     1       0.588  15.837  19.725  0.00  0.00    +0.000 C 
ENDBRANCH  29  30
ENDBRANCH  19  29
ENDBRANCH   1  22
TORSDOF 9
ENDMDL
MODEL 4
REMARK VINA RESULT:      -7.5      6.859     10.374
REMARK  Name = 
REMARK  10 active torsions:
REMARK  status: ('A' for Active; 'I' for Inactive)
REMARK    1  A    between atoms: C_1  and  C_2
REMARK    2  A    between atoms: C_2  and  C_3
REMARK    3  A    between atoms: C_3  and  N_4
REMARK    4  A    between atoms: N_4  and  C_5
REMARK    5  A    between atoms: C_5  and  C_6
REMARK    6  A    between atoms: C_11  and  C_12
REMARK    7  A    between atoms: N_14  and  C_15
REMARK    8  A    between atoms: N_20  and  C_21
REMARK    9  A    between atoms: C_21  and  C_22
REMARK   10  A    between atoms: C_22  and  O_24
REMARK                            x       y       z     vdW  Elec       q    Type
REMARK                         _______ _______ _______ _____ _____    ______ ____
ROOT
ATOM      1  C   UNL     1       8.183   8.962  18.191  0.00  0.00    +0.000 C 
ATOM      2  O   UNL     1       7.646   9.686  17.356  0.00  0.00    +0.000 OA
ATOM      3  N   UNL     1       9.174   9.331  19.087  0.00  0.00    +0.000 N 
ATOM      4  H   UNL     1       9.563   8.570  19.637  0.00  0.00    +0.000 HD
ENDROOT
BRANCH   3   5
ATOM      5  C   UNL     1       9.767  10.617  19.216  0.00  0.00    +0.000 A 
ATOM      6  C   UNL     1       9.630  11.388  20.420  0.00  0.00    +0.000 A 
ATOM      7  C   UNL     1      10.152  12.691  20.609  0.00  0.00    +0.000 A 
ATOM      8  C   UNL     1      10.823  13.195  19.490  0.00  0.00    +0.000 A 
ATOM      9  N   UNL     1      11.423  14.385  19.302  0.00  0.00    +0.000 NA
ATOM     10  N   UNL     1      11.797  14.377  18.006  0.00  0.00    +0.000 N 
ATOM     11  C   UNL     1      11.596  13.179  17.371  0.00  0.00    +0.000 A 
ATOM     12  C   UNL     1      10.956  12.401  18.296  0.00  0.00    +0.000 A 
ATOM     13  C   UNL     1      10.484  11.102  18.093  0.00  0.00    +0.000 A 
BRANCH  10  14
ATOM     14  C   UNL     1      12.333  15.594  17.429  0.00  0.00    +0.000 C 
BRANCH  14  15
ATOM     15  C   UNL     1      11.245  16.513  16.962  0.00  0.00    +0.000 C 
ATOM     16  O   UNL     1      10.976  17.573  17.517  0.00  0.00    +0.000 OA
BRANCH  15  17
ATOM     17  O   UNL     1      10.605  16.109  15.841  0.00  0.00    +0.000 OA
ATOM     18  H   UNL     1      11.108  15.467  15.292  0.00  0.00    +0.000 HD
ENDBRANCH  15  17
ENDBRANCH  14  15
ENDBRANCH  10  14
ENDBRANCH   3   5
BRANCH   1  22
ATOM     19  N   UNL     1       5.367   5.281  16.665  0.00  0.00    +0.000 N 
ATOM     20  C   UNL     1       6.396   5.766  17.498  0.00  0.00    +0.000 A 
ATOM     21  C   UNL     1       6.714   7.107  17.468  0.00  0.00    +0.000 A 
ATOM     22  C   UNL     1       7.782   7.520  18.240  0.00  0.00    +0.000 A 
ATOM     23  N   UNL     1       8.518   6.701  19.024  0.00  0.00    +0.000 NA
ATOM     24  C   UNL     1       8.118   5.425  18.995  0.00  0.00    +0.000 A 
ATOM     25  N   UNL     1       7.109   4.918  18.263  0.00  0.00    +0.000 NA
BRANCH  19  26
ATOM     26  C   UNL     1       5.530   3.866  16.307  0.00  0.00    +0.000 C 
BRANCH  26  28
ATOM     27  C   UNL     1       6.857   4.518  14.198  0.00  0.00    +0.000 C 
ATOM     28  C   UNL     1       5.816   3.603  14.825  0.00  0.00    +0.000 C 
ENDBRANCH  26  28
ENDBRANCH  19  26
BRANCH  19  29
ATOM     29  C   UNL     1       4.040   5.857  16.940  0.00  0.00    +0.000 C 
BRANCH  29  30
ATOM     30  C   UNL     1       3.093   4.961  17.693  0.00  0.00    +0.000 C 
ATOM     31  C   UNL     1       3.258   4.619  19.154  0.00  0.00    +0.000 C 
ATOM     32  C   UNL     1       2.162   5.551  18.733  0.00  0.00    +0.000 C 
ENDBRANCH  29  30
ENDBRANCH  19  29
ENDBRANCH   1  22
TORSDOF 9
ENDMDL
MODEL 5
REMARK VINA RESULT:      -7.5      3.395     10.095
REMARK  Name = 
REMARK  10 active torsions:
REMARK  status: ('A' for Active; 'I' for Inactive)
REMARK    1  A    between atoms: C_1  and  C_2
REMARK    2  A    between atoms: C_2  and  C_3
REMARK    3  A    between atoms: C_3  and  N_4
REMARK    4  A    between atoms: N_4  and  C_5
REMARK    5  A    between atoms: C_5  and  C_6
REMARK    6  A    between atoms: C_11  and  C_12
REMARK    7  A    between atoms: N_14  and  C_15
REMARK    8  A    between atoms: N_20  and  C_21
REMARK    9  A    between atoms: C_21  and  C_22
REMARK   10  A    between atoms: C_22  and  O_24
REMARK                            x       y       z     vdW  Elec       q    Type
REMARK                         _______ _______ _______ _____ _____    ______ ____
ROOT
ATOM      1  C   UNL     1       1.932   6.142  20.237  0.00  0.00    +0.000 C 
ATOM      2  O   UNL     1       0.869   5.642  20.597  0.00  0.00    +0.000 OA
ATOM      3  N   UNL     1       2.195   7.493  20.074  0.00  0.00    +0.000 N 
ATOM      4  H   UNL     1       3.105   7.710  19.678  0.00  0.00    +0.000 HD
ENDROOT
BRANCH   3   5
ATOM      5  C   UNL     1       1.288   8.566  20.286  0.00  0.00    +0.000 A 
ATOM      6  C   UNL     1       0.944   9.476  19.230  0.00  0.00    +0.000 A 
ATOM      7  C   UNL     1       0.084  10.593  19.373  0.00  0.00    +0.000 A 
ATOM      8  C   UNL     1      -0.412  10.758  20.671  0.00  0.00    +0.000 A 
ATOM      9  N   UNL     1      -1.228  11.702  21.174  0.00  0.00    +0.000 NA
ATOM     10  N   UNL     1      -1.275  11.442  22.497  0.00  0.00    +0.000 N 
ATOM     11  C   UNL     1      -0.639  10.285  22.865  0.00  0.00    +0.000 A 
ATOM     12  C   UNL     1      -0.059   9.828  21.713  0.00  0.00    +0.000 A 
ATOM     13  C   UNL     1       0.754   8.699  21.593  0.00  0.00    +0.000 A 
BRANCH  10  14
ATOM     14  C   UNL     1      -1.947  12.386  23.368  0.00  0.00    +0.000 C 
BRANCH  14  15
ATOM     15  C   UNL     1      -3.437  12.232  23.310  0.00  0.00    +0.000 C 
ATOM     16  O   UNL     1      -4.096  12.449  22.299  0.00  0.00    +0.000 OA
BRANCH  15  17
ATOM     17  O   UNL     1      -4.004  11.784  24.453  0.00  0.00    +0.000 OA
ATOM     18  H   UNL     1      -4.349  10.865  24.406  0.00  0.00    +0.000 HD
ENDBRANCH  15  17
ENDBRANCH  14  15
ENDBRANCH  10  14
ENDBRANCH   3   5
BRANCH   1  22
ATOM     19  N   UNL     1       5.954   5.145  17.660  0.00  0.00    +0.000 N 
ATOM     20  C   UNL     1       4.991   4.762  18.617  0.00  0.00    +0.000 A 
ATOM     21  C   UNL     1       3.934   5.605  18.886  0.00  0.00    +0.000 A 
ATOM     22  C   UNL     1       3.063   5.224  19.889  0.00  0.00    +0.000 A 
ATOM     23  N   UNL     1       3.176   4.083  20.605  0.00  0.00    +0.000 NA
ATOM     24  C   UNL     1       4.224   3.330  20.254  0.00  0.00    +0.000 A 
ATOM     25  N   UNL     1       5.140   3.619  19.313  0.00  0.00    +0.000 NA
BRANCH  19  26
ATOM     26  C   UNL     1       7.275   4.549  17.897  0.00  0.00    +0.000 C 
BRANCH  26  28
ATOM     27  C   UNL     1       8.077   6.881  18.639  0.00  0.00    +0.000 C 
ATOM     28  C   UNL     1       8.204   5.374  18.795  0.00  0.00    +0.000 C 
ENDBRANCH  26  28
ENDBRANCH  19  26
BRANCH  19  29
ATOM     29  C   UNL     1       5.421   5.318  16.298  0.00  0.00    +0.000 C 
BRANCH  29  30
ATOM     30  C   UNL     1       5.877   4.292  15.294  0.00  0.00    +0.000 C 
ATOM     31  C   UNL     1       5.416   4.275  13.857  0.00  0.00    +0.000 C 
ATOM     32  C   UNL     1       6.818   4.695  14.177  0.00  0.00    +0.000 C 
ENDBRANCH  29  30
ENDBRANCH  19  29
ENDBRANCH   1  22
TORSDOF 9
ENDMDL
MODEL 6
REMARK VINA RESULT:      -7.5      2.296      3.063
REMARK  Name = 
REMARK  10 active torsions:
REMARK  status: ('A' for Active; 'I' for Inactive)
REMARK    1  A    between atoms: C_1  and  C_2
REMARK    2  A    between atoms: C_2  and  C_3
REMARK    3  A    between atoms: C_3  and  N_4
REMARK    4  A    between atoms: N_4  and  C_5
REMARK    5  A    between atoms: C_5  and  C_6
REMARK    6  A    between atoms: C_11  and  C_12
REMARK    7  A    between atoms: N_14  and  C_15
REMARK    8  A    between atoms: N_20  and  C_21
REMARK    9  A    between atoms: C_21  and  C_22
REMARK   10  A    between atoms: C_22  and  O_24
REMARK                            x       y       z     vdW  Elec       q    Type
REMARK                         _______ _______ _______ _____ _____    ______ ____
ROOT
ATOM      1  C   UNL     1       1.336   8.558  20.180  0.00  0.00    +0.000 C 
ATOM      2  O   UNL     1       1.410   9.006  19.038  0.00  0.00    +0.000 OA
ATOM      3  N   UNL     1       1.730   7.297  20.598  0.00  0.00    +0.000 N 
ATOM      4  H   UNL     1       1.502   7.073  21.563  0.00  0.00    +0.000 HD
ENDROOT
BRANCH   3   5
ATOM      5  C   UNL     1       2.295   6.272  19.791  0.00  0.00    +0.000 A 
ATOM      6  C   UNL     1       2.052   4.883  20.065  0.00  0.00    +0.000 A 
ATOM      7  C   UNL     1       2.612   3.805  19.336  0.00  0.00    +0.000 A 
ATOM      8  C   UNL     1       3.462   4.210  18.301  0.00  0.00    +0.000 A 
ATOM      9  N   UNL     1       4.172   3.474  17.425  0.00  0.00    +0.000 NA
ATOM     10  N   UNL     1       4.902   4.376  16.737  0.00  0.00    +0.000 N 
ATOM     11  C   UNL     1       4.598   5.681  17.024  0.00  0.00    +0.000 A 
ATOM     12  C   UNL     1       3.685   5.608  18.039  0.00  0.00    +0.000 A 
ATOM     13  C   UNL     1       3.119   6.691  18.716  0.00  0.00    +0.000 A 
BRANCH  10  14
ATOM     14  C   UNL     1       5.910   3.895  15.813  0.00  0.00    +0.000 C 
BRANCH  14  15
ATOM     15  C   UNL     1       7.214   4.611  15.991  0.00  0.00    +0.000 C 
ATOM     16  O   UNL     1       7.971   4.406  16.933  0.00  0.00    +0.000 OA
BRANCH  15  17
ATOM     17  O   UNL     1       7.523   5.478  14.999  0.00  0.00    +0.000 OA
ATOM     18  H   UNL     1       6.750   5.810  14.491  0.00  0.00    +0.000 HD
ENDBRANCH  15  17
ENDBRANCH  14  15
ENDBRANCH  10  14
ENDBRANCH   3   5
BRANCH   1  22
ATOM     19  N   UNL     1      -0.806  12.721  21.556  0.00  0.00    +0.000 N 
ATOM     20  C   UNL     1      -0.296  11.446  21.878  0.00  0.00    +0.000 A 
ATOM     21  C   UNL     1       0.309  10.693  20.895  0.00  0.00    +0.000 A 
ATOM     22  C   UNL     1       0.719   9.419  21.238  0.00  0.00    +0.000 A 
ATOM     23  N   UNL     1       0.576   8.877  22.469  0.00  0.00    +0.000 NA
ATOM     24  C   UNL     1      -0.007   9.695  23.352  0.00  0.00    +0.000 A 
ATOM     25  N   UNL     1      -0.461  10.939  23.115  0.00  0.00    +0.000 NA
BRANCH  19  26
ATOM     26  C   UNL     1      -1.919  13.134  22.421  0.00  0.00    +0.000 C 
BRANCH  26  28
ATOM     27  C   UNL     1      -3.320  12.752  20.294  0.00  0.00    +0.000 C 
ATOM     28  C   UNL     1      -3.261  13.320  21.704  0.00  0.00    +0.000 C 
ENDBRANCH  26  28
ENDBRANCH  19  26
BRANCH  19  29
ATOM     29  C   UNL     1       0.208  13.683  21.095  0.00  0.00    +0.000 C 
BRANCH  29  30
ATOM     30  C   UNL     1      -0.075  14.330  19.766  0.00  0.00    +0.000 C 
ATOM     31  C   UNL     1       0.153  15.797  19.491  0.00  0.00    +0.000 C 
ATOM     32  C   UNL     1       1.073  14.780  18.885  0.00  0.00    +0.000 C 
ENDBRANCH  29  30
ENDBRANCH  19  29
ENDBRANCH   1  22
TORSDOF 9
ENDMDL
MODEL 7
REMARK VINA RESULT:      -7.5      3.134      9.967
REMARK  Name = 
REMARK  10 active torsions:
REMARK  status: ('A' for Active; 'I' for Inactive)
REMARK    1  A    between atoms: C_1  and  C_2
REMARK    2  A    between atoms: C_2  and  C_3
REMARK    3  A    between atoms: C_3  and  N_4
REMARK    4  A    between atoms: N_4  and  C_5
REMARK    5  A    between atoms: C_5  and  C_6
REMARK    6  A    between atoms: C_11  and  C_12
REMARK    7  A    between atoms: N_14  and  C_15
REMARK    8  A    between atoms: N_20  and  C_21
REMARK    9  A    between atoms: C_21  and  C_22
REMARK   10  A    between atoms: C_22  and  O_24
REMARK                            x       y       z     vdW  Elec       q    Type
REMARK                         _______ _______ _______ _____ _____    ______ ____
ROOT
ATOM      1  C   UNL     1       1.870   8.650  18.525  0.00  0.00    +0.000 C 
ATOM      2  O   UNL     1       2.002   9.222  17.446  0.00  0.00    +0.000 OA
ATOM      3  N   UNL     1       1.148   9.106  19.617  0.00  0.00    +0.000 N 
ATOM      4  H   UNL     1       1.233   8.539  20.456  0.00  0.00    +0.000 HD
ENDROOT
BRANCH   3   5
ATOM      5  C   UNL     1       0.422  10.324  19.706  0.00  0.00    +0.000 A 
ATOM      6  C   UNL     1      -0.842  10.493  19.045  0.00  0.00    +0.000 A 
ATOM      7  C   UNL     1      -1.605  11.687  19.049  0.00  0.00    +0.000 A 
ATOM      8  C   UNL     1      -1.005  12.733  19.759  0.00  0.00    +0.000 A 
ATOM      9  N   UNL     1      -1.424  13.996  19.960  0.00  0.00    +0.000 NA
ATOM     10  N   UNL     1      -0.403  14.594  20.607  0.00  0.00    +0.000 N 
ATOM     11  C   UNL     1       0.610  13.743  20.966  0.00  0.00    +0.000 A 
ATOM     12  C   UNL     1       0.260  12.539  20.421  0.00  0.00    +0.000 A 
ATOM     13  C   UNL     1       1.014  11.365  20.465  0.00  0.00    +0.000 A 
BRANCH  10  14
ATOM     14  C   UNL     1      -0.465  16.025  20.832  0.00  0.00    +0.000 C 
BRANCH  14  15
ATOM     15  C   UNL     1      -0.395  16.793  19.546  0.00  0.00    +0.000 C 
ATOM     16  O   UNL     1       0.630  17.325  19.136  0.00  0.00    +0.000 OA
BRANCH  15  17
ATOM     17  O   UNL     1      -1.548  16.816  18.839  0.00  0.00    +0.000 OA
ATOM     18  H   UNL     1      -1.452  16.567  17.893  0.00  0.00    +0.000 HD
ENDBRANCH  15  17
ENDBRANCH  14  15
ENDBRANCH  10  14
ENDBRANCH   3   5
BRANCH   1  22
ATOM     19  N   UNL     1       5.433   5.531  17.348  0.00  0.00    +0.000 N 
ATOM     20  C   UNL     1       4.304   5.857  18.127  0.00  0.00    +0.000 A 
ATOM     21  C   UNL     1       3.635   7.037  17.888  0.00  0.00    +0.000 A 
ATOM     22  C   UNL     1       2.585   7.351  18.730  0.00  0.00    +0.000 A 
ATOM     23  N   UNL     1       2.172   6.573  19.755  0.00  0.00    +0.000 NA
ATOM     24  C   UNL     1       2.876   5.444  19.891  0.00  0.00    +0.000 A 
ATOM     25  N   UNL     1       3.925   5.057  19.143  0.00  0.00    +0.000 NA
BRANCH  19  26
ATOM     26  C   UNL     1       6.387   4.661  18.046  0.00  0.00    +0.000 C 
BRANCH  26  28
ATOM     27  C   UNL     1       7.775   6.824  18.204  0.00  0.00    +0.000 C 
ATOM     28  C   UNL     1       7.731   5.314  18.385  0.00  0.00    +0.000 C 
ENDBRANCH  26  28
ENDBRANCH  19  26
BRANCH  19  29
ATOM     29  C   UNL     1       5.154   5.371  15.911  0.00  0.00    +0.000 C 
BRANCH  29  30
ATOM     30  C   UNL     1       6.001   4.348  15.201  0.00  0.00    +0.000 C 
ATOM     31  C   UNL     1       5.821   3.985  13.747  0.00  0.00    +0.000 C 
ATOM     32  C   UNL     1       7.013   4.793  14.165  0.00  0.00    +0.000 C 
ENDBRANCH  29  30
ENDBRANCH  19  29
ENDBRANCH   1  22
TORSDOF 9
ENDMDL
MODEL 8
REMARK VINA RESULT:      -7.3      3.812      5.045
REMARK  Name = 
REMARK  10 active torsions:
REMARK  status: ('A' for Active; 'I' for Inactive)
REMARK    1  A    between atoms: C_1  and  C_2
REMARK    2  A    between atoms: C_2  and  C_3
REMARK    3  A    between atoms: C_3  and  N_4
REMARK    4  A    between atoms: N_4  and  C_5
REMARK    5  A    between atoms: C_5  and  C_6
REMARK    6  A    between atoms: C_11  and  C_12
REMARK    7  A    between atoms: N_14  and  C_15
REMARK    8  A    between atoms: N_20  and  C_21
REMARK    9  A    between atoms: C_21  and  C_22
REMARK   10  A    between atoms: C_22  and  O_24
REMARK                            x       y       z     vdW  Elec       q    Type
REMARK                         _______ _______ _______ _____ _____    ______ ____
ROOT
ATOM      1  C   UNL     1       0.202  10.291  18.623  0.00  0.00    +0.000 C 
ATOM      2  O   UNL     1      -0.411   9.711  17.730  0.00  0.00    +0.000 OA
ATOM      3  N   UNL     1       1.281   9.795  19.339  0.00  0.00    +0.000 N 
ATOM      4  H   UNL     1       1.596  10.384  20.105  0.00  0.00    +0.000 HD
ENDROOT
BRANCH   3   5
ATOM      5  C   UNL     1       1.890   8.521  19.183  0.00  0.00    +0.000 A 
ATOM      6  C   UNL     1       2.667   8.198  18.019  0.00  0.00    +0.000 A 
ATOM      7  C   UNL     1       3.268   6.940  17.771  0.00  0.00    +0.000 A 
ATOM      8  C   UNL     1       3.026   5.995  18.774  0.00  0.00    +0.000 A 
ATOM      9  N   UNL     1       3.417   4.711  18.867  0.00  0.00    +0.000 NA
ATOM     10  N   UNL     1       2.802   4.247  19.974  0.00  0.00    +0.000 N 
ATOM     11  C   UNL     1       2.138   5.208  20.692  0.00  0.00    +0.000 A 
ATOM     12  C   UNL     1       2.250   6.342  19.937  0.00  0.00    +0.000 A 
ATOM     13  C   UNL     1       1.678   7.583  20.225  0.00  0.00    +0.000 A 
BRANCH  10  14
ATOM     14  C   UNL     1       2.883   2.831  20.274  0.00  0.00    +0.000 C 
BRANCH  14  15
ATOM     15  C   UNL     1       3.893   2.137  19.411  0.00  0.00    +0.000 C 
ATOM     16  O   UNL     1       3.591   1.338  18.532  0.00  0.00    +0.000 OA
BRANCH  15  17
ATOM     17  O   UNL     1       5.177   2.497  19.643  0.00  0.00    +0.000 OA
ATOM     18  H   UNL     1       5.333   2.913  20.519  0.00  0.00    +0.000 HD
ENDBRANCH  15  17
ENDBRANCH  14  15
ENDBRANCH  10  14
ENDBRANCH   3   5
BRANCH   1  22
ATOM     19  N   UNL     1       0.829  15.126  18.812  0.00  0.00    +0.000 N 
ATOM     20  C   UNL     1       0.070  13.980  19.128  0.00  0.00    +0.000 A 
ATOM     21  C   UNL     1       0.547  12.736  18.778  0.00  0.00    +0.000 A 
ATOM     22  C   UNL     1      -0.268  11.651  19.036  0.00  0.00    +0.000 A 
ATOM     23  N   UNL     1      -1.487  11.734  19.615  0.00  0.00    +0.000 NA
ATOM     24  C   UNL     1      -1.849  12.982  19.930  0.00  0.00    +0.000 A 
ATOM     25  N   UNL     1      -1.142  14.104  19.702  0.00  0.00    +0.000 NA
BRANCH  19  26
ATOM     26  C   UNL     1       0.010  16.334  18.642  0.00  0.00    +0.000 C 
BRANCH  26  28
ATOM     27  C   UNL     1       0.906  18.277  17.209  0.00  0.00    +0.000 C 
ATOM     28  C   UNL     1       0.798  17.647  18.589  0.00  0.00    +0.000 C 
ENDBRANCH  26  28
ENDBRANCH  19  26
BRANCH  19  29
ATOM     29  C   UNL     1       2.151  15.177  19.458  0.00  0.00    +0.000 C 
BRANCH  29  30
ATOM     30  C   UNL     1       3.323  14.939  18.544  0.00  0.00    +0.000 C 
ATOM     31  C   UNL     1       3.473  15.599  17.195  0.00  0.00    +0.000 C 
ATOM     32  C   UNL     1       4.349  16.035  18.330  0.00  0.00    +0.000 C 
ENDBRANCH  29  30
ENDBRANCH  19  29
ENDBRANCH   1  22
TORSDOF 9
ENDMDL
MODEL 9
REMARK VINA RESULT:      -7.2      2.662     10.178
REMARK  Name = 
REMARK  10 active torsions:
REMARK  status: ('A' for Active; 'I' for Inactive)
REMARK    1  A    between atoms: C_1  and  C_2
REMARK    2  A    between atoms: C_2  and  C_3
REMARK    3  A    between atoms: C_3  and  N_4
REMARK    4  A    between atoms: N_4  and  C_5
REMARK    5  A    between atoms: C_5  and  C_6
REMARK    6  A    between atoms: C_11  and  C_12
REMARK    7  A    between atoms: N_14  and  C_15
REMARK    8  A    between atoms: N_20  and  C_21
REMARK    9  A    between atoms: C_21  and  C_22
REMARK   10  A    between atoms: C_22  and  O_24
REMARK                            x       y       z     vdW  Elec       q    Type
REMARK                         _______ _______ _______ _____ _____    ______ ____
ROOT
ATOM      1  C   UNL     1       2.009   8.561  18.459  0.00  0.00    +0.000 C 
ATOM      2  O   UNL     1       2.069   9.192  17.407  0.00  0.00    +0.000 OA
ATOM      3  N   UNL     1       1.297   8.915  19.594  0.00  0.00    +0.000 N 
ATOM      4  H   UNL     1       1.445   8.314  20.401  0.00  0.00    +0.000 HD
ENDROOT
BRANCH   3   5
ATOM      5  C   UNL     1       0.497  10.077  19.767  0.00  0.00    +0.000 A 
ATOM      6  C   UNL     1       0.997  11.235  20.455  0.00  0.00    +0.000 A 
ATOM      7  C   UNL     1       0.250  12.412  20.705  0.00  0.00    +0.000 A 
ATOM      8  C   UNL     1      -1.064  12.355  20.228  0.00  0.00    +0.000 A 
ATOM      9  N   UNL     1      -2.052  13.266  20.299  0.00  0.00    +0.000 NA
ATOM     10  N   UNL     1      -3.131  12.638  19.787  0.00  0.00    +0.000 N 
ATOM     11  C   UNL     1      -2.862  11.405  19.252  0.00  0.00    +0.000 A 
ATOM     12  C   UNL     1      -1.542  11.187  19.534  0.00  0.00    +0.000 A 
ATOM     13  C   UNL     1      -0.819  10.029  19.241  0.00  0.00    +0.000 A 
BRANCH  10  14
ATOM     14  C   UNL     1      -4.421  13.294  19.868  0.00  0.00    +0.000 C 
BRANCH  14  15
ATOM     15  C   UNL     1      -5.177  12.884  21.095  0.00  0.00    +0.000 C 
ATOM     16  O   UNL     1      -6.394  12.986  21.201  0.00  0.00    +0.000 OA
BRANCH  15  17
ATOM     17  O   UNL     1      -4.415  12.341  22.073  0.00  0.00    +0.000 OA
ATOM     18  H   UNL     1      -3.455  12.540  22.002  0.00  0.00    +0.000 HD
ENDBRANCH  15  17
ENDBRANCH  14  15
ENDBRANCH  10  14
ENDBRANCH   3   5
BRANCH   1  22
ATOM     19  N   UNL     1       5.727   5.746  17.022  0.00  0.00    +0.000 N 
ATOM     20  C   UNL     1       4.604   5.957  17.849  0.00  0.00    +0.000 A 
ATOM     21  C   UNL     1       3.854   7.102  17.690  0.00  0.00    +0.000 A 
ATOM     22  C   UNL     1       2.813   7.303  18.576  0.00  0.00    +0.000 A 
ATOM     23  N   UNL     1       2.482   6.449  19.570  0.00  0.00    +0.000 NA
ATOM     24  C   UNL     1       3.261   5.363  19.628  0.00  0.00    +0.000 A 
ATOM     25  N   UNL     1       4.309   5.084  18.831  0.00  0.00    +0.000 NA
BRANCH  19  26
ATOM     26  C   UNL     1       6.756   4.906  17.647  0.00  0.00    +0.000 C 
BRANCH  26  28
ATOM     27  C   UNL     1       7.991   7.065  18.316  0.00  0.00    +0.000 C 
ATOM     28  C   UNL     1       7.648   5.625  18.666  0.00  0.00    +0.000 C 
ENDBRANCH  26  28
ENDBRANCH  19  26
BRANCH  19  29
ATOM     29  C   UNL     1       5.415   5.640  15.587  0.00  0.00    +0.000 C 
BRANCH  29  30
ATOM     30  C   UNL     1       5.978   4.429  14.893  0.00  0.00    +0.000 C 
ATOM     31  C   UNL     1       5.531   3.971  13.526  0.00  0.00    +0.000 C 
ATOM     32  C   UNL     1       6.882   4.601  13.689  0.00  0.00    +0.000 C 
ENDBRANCH  29  30
ENDBRANCH  19  29
ENDBRANCH   1  22
TORSDOF 9
ENDMDL
