MODEL 1
REMARK VINA RESULT:      -8.8      0.000      0.000
REMARK  Name = 
REMARK  10 active torsions:
REMARK  status: ('A' for Active; 'I' for Inactive)
REMARK    1  A    between atoms: C_1  and  C_2
REMARK    2  A    between atoms: C_2  and  C_3
REMARK    3  A    between atoms: C_3  and  C_4
REMARK    4  A    between atoms: C_4  and  N_5
REMARK    5  A    between atoms: C_7  and  C_8
REMARK    6  A    between atoms: C_9  and  C_10
REMARK    7  A    between atoms: C_12  and  C_13
REMARK    8  A    between atoms: C_13  and  C_14
REMARK    9  A    between atoms: C_17  and  C_18
REMARK   10  A    between atoms: C_23  and  C_24
REMARK                            x       y       z     vdW  Elec       q    Type
REMARK                         _______ _______ _______ _____ _____    ______ ____
ROOT
ATOM      1  C   UNL     1       1.350   8.876  19.572  0.00  0.00    +0.000 A 
ATOM      2  C   UNL     1       1.825   7.725  20.204  0.00  0.00    +0.000 A 
ATOM      3  C   UNL     1       2.659   6.842  19.517  0.00  0.00    +0.000 A 
ATOM      4  C   UNL     1       2.991   7.043  18.161  0.00  0.00    +0.000 A 
ATOM      5  C   UNL     1       2.438   8.173  17.537  0.00  0.00    +0.000 A 
ATOM      6  C   UNL     1       1.682   9.108  18.240  0.00  0.00    +0.000 A 
ENDROOT
BRANCH   4   7
ATOM      7  C   UNL     1       3.863   6.081  17.432  0.00  0.00    +0.000 A 
ATOM      8  C   UNL     1       4.964   6.596  16.702  0.00  0.00    +0.000 A 
ATOM      9  C   UNL     1       5.845   5.776  15.996  0.00  0.00    +0.000 A 
ATOM     10  C   UNL     1       5.678   4.401  16.027  0.00  0.00    +0.000 A 
ATOM     11  C   UNL     1       4.620   3.852  16.747  0.00  0.00    +0.000 A 
ATOM     12  C   UNL     1       3.689   4.668  17.426  0.00  0.00    +0.000 A 
BRANCH  12  13
ATOM     13  C   UNL     1       2.589   3.973  18.088  0.00  0.00    +0.000 A 
ATOM     14  N   UNL     1       2.736   3.378  19.324  0.00  0.00    +0.000 NA
ATOM     15  N   UNL     1       1.545   2.907  19.670  0.00  0.00    +0.000 NA
ATOM     16  N   UNL     1       0.750   3.224  18.644  0.00  0.00    +0.000 N 
ATOM     17  N   UNL     1       1.339   3.837  17.607  0.00  0.00    +0.000 NA
ATOM     18  H   UNL     1      -0.248   3.029  18.661  0.00  0.00    +0.000 HD
ENDBRANCH  12  13
ENDBRANCH   4   7
BRANCH   1  19
ATOM     19  C   UNL     1       0.418   9.808  20.276  0.00  0.00    +0.000 C 
BRANCH  19  25
ATOM     20  N   UNL     1      -1.191  11.160  18.720  0.00  0.00    +0.000 N 
ATOM     21  N   UNL     1      -1.307  12.425  18.249  0.00  0.00    +0.000 NA
ATOM     22  C   UNL     1      -0.332  13.110  18.842  0.00  0.00    +0.000 A 
ATOM     23  C   UNL     1      -0.165  14.559  18.579  0.00  0.00    +0.000 C 
ATOM     24  C   UNL     1       0.445  12.289  19.681  0.00  0.00    +0.000 A 
ATOM     25  C   UNL     1      -0.114  11.016  19.571  0.00  0.00    +0.000 A 
BRANCH  24  26
ATOM     26  C   UNL     1       1.593  12.676  20.485  0.00  0.00    +0.000 C 
ATOM     27  O   UNL     1       1.524  13.177  21.597  0.00  0.00    +0.000 OA
ENDBRANCH  24  26
BRANCH  20  28
ATOM     28  C   UNL     1      -2.173  10.211  18.221  0.00  0.00    +0.000 C 
BRANCH  28  29
ATOM     29  C   UNL     1      -2.050   9.875  16.730  0.00  0.00    +0.000 C 
BRANCH  29  31
ATOM     30  C   UNL     1      -3.070  10.063  14.422  0.00  0.00    +0.000 C 
ATOM     31  C   UNL     1      -3.279  10.284  15.913  0.00  0.00    +0.000 C 
ENDBRANCH  29  31
ENDBRANCH  28  29
ENDBRANCH  20  28
ENDBRANCH  19  25
ENDBRANCH   1  19
TORSDOF 8
ENDMDL
MODEL 2
REMARK VINA RESULT:      -8.7      2.954      8.698
REMARK  Name = 
REMARK  10 active torsions:
REMARK  status: ('A' for Active; 'I' for Inactive)
REMARK    1  A    between atoms: C_1  and  C_2
REMARK    2  A    between atoms: C_2  and  C_3
REMARK    3  A    between atoms: C_3  and  C_4
REMARK    4  A    between atoms: C_4  and  N_5
REMARK    5  A    between atoms: C_7  and  C_8
REMARK    6  A    between atoms: C_9  and  C_10
REMARK    7  A    between atoms: C_12  and  C_13
REMARK    8  A    between atoms: C_13  and  C_14
REMARK    9  A    between atoms: C_17  and  C_18
REMARK   10  A    between atoms: C_23  and  C_24
REMARK                            x       y       z     vdW  Elec       q    Type
REMARK                         _______ _______ _______ _____ _____    ______ ____
ROOT
ATOM      1  C   UNL     1       2.596   7.482  18.561  0.00  0.00    +0.000 A 
ATOM      2  C   UNL     1       2.242   7.100  19.856  0.00  0.00    +0.000 A 
ATOM      3  C   UNL     1       1.380   7.898  20.611  0.00  0.00    +0.000 A 
ATOM      4  C   UNL     1       0.899   9.130  20.124  0.00  0.00    +0.000 A 
ATOM      5  C   UNL     1       1.332   9.518  18.846  0.00  0.00    +0.000 A 
ATOM      6  C   UNL     1       2.116   8.685  18.050  0.00  0.00    +0.000 A 
ENDROOT
BRANCH   4   7
ATOM      7  C   UNL     1      -0.002   9.984  20.948  0.00  0.00    +0.000 A 
ATOM      8  C   UNL     1       0.107   9.903  22.360  0.00  0.00    +0.000 A 
ATOM      9  C   UNL     1      -0.683  10.670  23.218  0.00  0.00    +0.000 A 
ATOM     10  C   UNL     1      -1.587  11.578  22.691  0.00  0.00    +0.000 A 
ATOM     11  C   UNL     1      -1.713  11.701  21.309  0.00  0.00    +0.000 A 
ATOM     12  C   UNL     1      -0.958  10.899  20.426  0.00  0.00    +0.000 A 
BRANCH  12  13
ATOM     13  C   UNL     1      -1.230  11.080  19.003  0.00  0.00    +0.000 A 
ATOM     14  N   UNL     1      -1.877  10.120  18.253  0.00  0.00    +0.000 NA
ATOM     15  N   UNL     1      -2.030  10.622  17.034  0.00  0.00    +0.000 NA
ATOM     16  N   UNL     1      -1.474  11.836  17.100  0.00  0.00    +0.000 N 
ATOM     17  N   UNL     1      -0.911  12.164  18.271  0.00  0.00    +0.000 NA
ATOM     18  H   UNL     1      -1.495  12.477  16.311  0.00  0.00    +0.000 HD
ENDBRANCH  12  13
ENDBRANCH   4   7
BRANCH   1  19
ATOM     19  C   UNL     1       3.555   6.666  17.757  0.00  0.00    +0.000 C 
BRANCH  19  25
ATOM     20  N   UNL     1       5.103   4.872  18.863  0.00  0.00    +0.000 N 
ATOM     21  N   UNL     1       5.104   3.533  19.067  0.00  0.00    +0.000 NA
ATOM     22  C   UNL     1       3.931   3.108  18.602  0.00  0.00    +0.000 A 
ATOM     23  C   UNL     1       3.566   1.674  18.683  0.00  0.00    +0.000 C 
ATOM     24  C   UNL     1       3.170   4.163  18.065  0.00  0.00    +0.000 A 
ATOM     25  C   UNL     1       3.959   5.302  18.221  0.00  0.00    +0.000 A 
BRANCH  24  26
ATOM     26  C   UNL     1       1.848   4.088  17.465  0.00  0.00    +0.000 C 
ATOM     27  O   UNL     1       0.874   3.574  17.994  0.00  0.00    +0.000 OA
ENDBRANCH  24  26
BRANCH  20  28
ATOM     28  C   UNL     1       6.294   5.577  19.310  0.00  0.00    +0.000 C 
BRANCH  28  29
ATOM     29  C   UNL     1       7.490   5.500  18.354  0.00  0.00    +0.000 C 
BRANCH  29  31
ATOM     30  C   UNL     1       7.037   5.070  15.902  0.00  0.00    +0.000 C 
ATOM     31  C   UNL     1       7.212   6.125  16.984  0.00  0.00    +0.000 C 
ENDBRANCH  29  31
ENDBRANCH  28  29
ENDBRANCH  20  28
ENDBRANCH  19  25
ENDBRANCH   1  19
TORSDOF 8
ENDMDL
MODEL 3
REMARK VINA RESULT:      -8.6      3.223      8.859
REMARK  Name = 
REMARK  10 active torsions:
REMARK  status: ('A' for Active; 'I' for Inactive)
REMARK    1  A    between atoms: C_1  and  C_2
REMARK    2  A    between atoms: C_2  and  C_3
REMARK    3  A    between atoms: C_3  and  C_4
REMARK    4  A    between atoms: C_4  and  N_5
REMARK    5  A    between atoms: C_7  and  C_8
REMARK    6  A    between atoms: C_9  and  C_10
REMARK    7  A    between atoms: C_12  and  C_13
REMARK    8  A    between atoms: C_13  and  C_14
REMARK    9  A    between atoms: C_17  and  C_18
REMARK   10  A    between atoms: C_23  and  C_24
REMARK                            x       y       z     vdW  Elec       q    Type
REMARK                         _______ _______ _______ _____ _____    ______ ____
ROOT
ATOM      1  C   UNL     1       2.575   7.315  18.540  0.00  0.00    +0.000 A 
ATOM      2  C   UNL     1       2.393   7.015  19.891  0.00  0.00    +0.000 A 
ATOM      3  C   UNL     1       1.647   7.871  20.705  0.00  0.00    +0.000 A 
ATOM      4  C   UNL     1       1.119   9.082  20.213  0.00  0.00    +0.000 A 
ATOM      5  C   UNL     1       1.381   9.386  18.867  0.00  0.00    +0.000 A 
ATOM      6  C   UNL     1       2.043   8.495  18.026  0.00  0.00    +0.000 A 
ENDROOT
BRANCH   4   7
ATOM      7  C   UNL     1       0.345   9.998  21.096  0.00  0.00    +0.000 A 
ATOM      8  C   UNL     1      -0.293   9.448  22.237  0.00  0.00    +0.000 A 
ATOM      9  C   UNL     1      -1.030  10.225  23.132  0.00  0.00    +0.000 A 
ATOM     10  C   UNL     1      -1.123  11.593  22.937  0.00  0.00    +0.000 A 
ATOM     11  C   UNL     1      -0.498  12.177  21.839  0.00  0.00    +0.000 A 
ATOM     12  C   UNL     1       0.211  11.401  20.896  0.00  0.00    +0.000 A 
BRANCH  12  13
ATOM     13  C   UNL     1       0.766  12.125  19.756  0.00  0.00    +0.000 A 
ATOM     14  N   UNL     1       2.074  12.563  19.732  0.00  0.00    +0.000 NA
ATOM     15  N   UNL     1       2.275  13.109  18.540  0.00  0.00    +0.000 NA
ATOM     16  N   UNL     1       1.102  12.986  17.912  0.00  0.00    +0.000 N 
ATOM     17  N   UNL     1       0.107  12.436  18.623  0.00  0.00    +0.000 NA
ATOM     18  H   UNL     1       0.979  13.276  16.946  0.00  0.00    +0.000 HD
ENDBRANCH  12  13
ENDBRANCH   4   7
BRANCH   1  19
ATOM     19  C   UNL     1       3.409   6.436  17.666  0.00  0.00    +0.000 C 
BRANCH  19  25
ATOM     20  N   UNL     1       5.062   4.777  18.829  0.00  0.00    +0.000 N 
ATOM     21  N   UNL     1       5.147   3.447  19.072  0.00  0.00    +0.000 NA
ATOM     22  C   UNL     1       4.007   2.934  18.616  0.00  0.00    +0.000 A 
ATOM     23  C   UNL     1       3.735   1.483  18.736  0.00  0.00    +0.000 C 
ATOM     24  C   UNL     1       3.183   3.923  18.045  0.00  0.00    +0.000 A 
ATOM     25  C   UNL     1       3.897   5.115  18.171  0.00  0.00    +0.000 A 
BRANCH  24  26
ATOM     26  C   UNL     1       1.872   3.746  17.442  0.00  0.00    +0.000 C 
ATOM     27  O   UNL     1       0.880   3.360  18.040  0.00  0.00    +0.000 OA
ENDBRANCH  24  26
BRANCH  20  28
ATOM     28  C   UNL     1       6.202   5.569  19.261  0.00  0.00    +0.000 C 
BRANCH  28  29
ATOM     29  C   UNL     1       7.327   5.704  18.227  0.00  0.00    +0.000 C 
BRANCH  29  31
ATOM     30  C   UNL     1       7.966   8.122  17.846  0.00  0.00    +0.000 C 
ATOM     31  C   UNL     1       7.177   6.931  17.324  0.00  0.00    +0.000 C 
ENDBRANCH  29  31
ENDBRANCH  28  29
ENDBRANCH  20  28
ENDBRANCH  19  25
ENDBRANCH   1  19
TORSDOF 8
ENDMDL
MODEL 4
REMARK VINA RESULT:      -8.5      0.407      1.196
REMARK  Name = 
REMARK  10 active torsions:
REMARK  status: ('A' for Active; 'I' for Inactive)
REMARK    1  A    between atoms: C_1  and  C_2
REMARK    2  A    between atoms: C_2  and  C_3
REMARK    3  A    between atoms: C_3  and  C_4
REMARK    4  A    between atoms: C_4  and  N_5
REMARK    5  A    between atoms: C_7  and  C_8
REMARK    6  A    between atoms: C_9  and  C_10
REMARK    7  A    between atoms: C_12  and  C_13
REMARK    8  A    between atoms: C_13  and  C_14
REMARK    9  A    between atoms: C_17  and  C_18
REMARK   10  A    between atoms: C_23  and  C_24
REMARK                            x       y       z     vdW  Elec       q    Type
REMARK                         _______ _______ _______ _____ _____    ______ ____
ROOT
ATOM      1  C   UNL     1       1.386   8.786  19.416  0.00  0.00    +0.000 A 
ATOM      2  C   UNL     1       1.814   9.036  18.111  0.00  0.00    +0.000 A 
ATOM      3  C   UNL     1       2.639   8.120  17.456  0.00  0.00    +0.000 A 
ATOM      4  C   UNL     1       3.115   6.961  18.103  0.00  0.00    +0.000 A 
ATOM      5  C   UNL     1       2.721   6.777  19.439  0.00  0.00    +0.000 A 
ATOM      6  C   UNL     1       1.825   7.637  20.069  0.00  0.00    +0.000 A 
ENDROOT
BRANCH   4   7
ATOM      7  C   UNL     1       4.013   6.003  17.402  0.00  0.00    +0.000 A 
ATOM      8  C   UNL     1       5.124   6.525  16.690  0.00  0.00    +0.000 A 
ATOM      9  C   UNL     1       6.029   5.709  16.011  0.00  0.00    +0.000 A 
ATOM     10  C   UNL     1       5.878   4.332  16.052  0.00  0.00    +0.000 A 
ATOM     11  C   UNL     1       4.811   3.777  16.754  0.00  0.00    +0.000 A 
ATOM     12  C   UNL     1       3.857   4.588  17.405  0.00  0.00    +0.000 A 
BRANCH  12  13
ATOM     13  C   UNL     1       2.751   3.886  18.051  0.00  0.00    +0.000 A 
ATOM     14  N   UNL     1       1.490   3.833  17.493  0.00  0.00    +0.000 NA
ATOM     15  N   UNL     1       0.751   3.066  18.283  0.00  0.00    +0.000 NA
ATOM     16  N   UNL     1       1.578   2.704  19.268  0.00  0.00    +0.000 N 
ATOM     17  N   UNL     1       2.815   3.217  19.218  0.00  0.00    +0.000 NA
ATOM     18  H   UNL     1       1.289   2.060  19.999  0.00  0.00    +0.000 HD
ENDBRANCH  12  13
ENDBRANCH   4   7
BRANCH   1  19
ATOM     19  C   UNL     1       0.543   9.777  20.150  0.00  0.00    +0.000 C 
BRANCH  19  25
ATOM     20  N   UNL     1      -0.911  11.089  18.417  0.00  0.00    +0.000 N 
ATOM     21  N   UNL     1      -1.087  12.373  18.018  0.00  0.00    +0.000 NA
ATOM     22  C   UNL     1      -0.319  13.098  18.827  0.00  0.00    +0.000 A 
ATOM     23  C   UNL     1      -0.277  14.574  18.699  0.00  0.00    +0.000 C 
ATOM     24  C   UNL     1       0.387  12.290  19.739  0.00  0.00    +0.000 A 
ATOM     25  C   UNL     1       0.007  10.982  19.441  0.00  0.00    +0.000 A 
BRANCH  24  26
ATOM     26  C   UNL     1       1.321  12.721  20.766  0.00  0.00    +0.000 C 
ATOM     27  O   UNL     1       1.019  13.389  21.743  0.00  0.00    +0.000 OA
ENDBRANCH  24  26
BRANCH  20  28
ATOM     28  C   UNL     1      -1.673  10.093  17.681  0.00  0.00    +0.000 C 
BRANCH  28  29
ATOM     29  C   UNL     1      -3.193  10.290  17.708  0.00  0.00    +0.000 C 
BRANCH  29  31
ATOM     30  C   UNL     1      -3.135  10.211  15.180  0.00  0.00    +0.000 C 
ATOM     31  C   UNL     1      -3.753  10.867  16.405  0.00  0.00    +0.000 C 
ENDBRANCH  29  31
ENDBRANCH  28  29
ENDBRANCH  20  28
ENDBRANCH  19  25
ENDBRANCH   1  19
TORSDOF 8
ENDMDL
MODEL 5
REMARK VINA RESULT:      -8.5      3.006      8.685
REMARK  Name = 
REMARK  10 active torsions:
REMARK  status: ('A' for Active; 'I' for Inactive)
REMARK    1  A    between atoms: C_1  and  C_2
REMARK    2  A    between atoms: C_2  and  C_3
REMARK    3  A    between atoms: C_3  and  C_4
REMARK    4  A    between atoms: C_4  and  N_5
REMARK    5  A    between atoms: C_7  and  C_8
REMARK    6  A    between atoms: C_9  and  C_10
REMARK    7  A    between atoms: C_12  and  C_13
REMARK    8  A    between atoms: C_13  and  C_14
REMARK    9  A    between atoms: C_17  and  C_18
REMARK   10  A    between atoms: C_23  and  C_24
REMARK                            x       y       z     vdW  Elec       q    Type
REMARK                         _______ _______ _______ _____ _____    ______ ____
ROOT
ATOM      1  C   UNL     1       2.648   7.820  18.514  0.00  0.00    +0.000 A 
ATOM      2  C   UNL     1       2.176   8.997  17.930  0.00  0.00    +0.000 A 
ATOM      3  C   UNL     1       1.304   9.829  18.635  0.00  0.00    +0.000 A 
ATOM      4  C   UNL     1       0.825   9.481  19.915  0.00  0.00    +0.000 A 
ATOM      5  C   UNL     1       1.265   8.256  20.442  0.00  0.00    +0.000 A 
ATOM      6  C   UNL     1       2.205   7.466  19.786  0.00  0.00    +0.000 A 
ENDROOT
BRANCH   4   7
ATOM      7  C   UNL     1      -0.122  10.365  20.648  0.00  0.00    +0.000 A 
ATOM      8  C   UNL     1       0.015  10.473  22.056  0.00  0.00    +0.000 A 
ATOM      9  C   UNL     1      -0.816  11.283  22.830  0.00  0.00    +0.000 A 
ATOM     10  C   UNL     1      -1.793  12.050  22.216  0.00  0.00    +0.000 A 
ATOM     11  C   UNL     1      -1.951  11.988  20.834  0.00  0.00    +0.000 A 
ATOM     12  C   UNL     1      -1.153  11.136  20.040  0.00  0.00    +0.000 A 
BRANCH  12  13
ATOM     13  C   UNL     1      -1.461  11.115  18.613  0.00  0.00    +0.000 A 
ATOM     14  N   UNL     1      -1.970   9.995  17.989  0.00  0.00    +0.000 NA
ATOM     15  N   UNL     1      -2.204  10.329  16.727  0.00  0.00    +0.000 NA
ATOM     16  N   UNL     1      -1.826  11.609  16.644  0.00  0.00    +0.000 N 
ATOM     17  N   UNL     1      -1.306  12.143  17.757  0.00  0.00    +0.000 NA
ATOM     18  H   UNL     1      -1.947  12.147  15.790  0.00  0.00    +0.000 HD
ENDBRANCH  12  13
ENDBRANCH   4   7
BRANCH   1  19
ATOM     19  C   UNL     1       3.542   6.894  17.756  0.00  0.00    +0.000 C 
BRANCH  19  25
ATOM     20  N   UNL     1       5.173   5.197  18.896  0.00  0.00    +0.000 N 
ATOM     21  N   UNL     1       5.159   3.903  19.297  0.00  0.00    +0.000 NA
ATOM     22  C   UNL     1       3.919   3.479  19.066  0.00  0.00    +0.000 A 
ATOM     23  C   UNL     1       3.523   2.093  19.410  0.00  0.00    +0.000 C 
ATOM     24  C   UNL     1       3.124   4.485  18.486  0.00  0.00    +0.000 A 
ATOM     25  C   UNL     1       3.964   5.591  18.360  0.00  0.00    +0.000 A 
BRANCH  24  26
ATOM     26  C   UNL     1       1.728   4.395  18.091  0.00  0.00    +0.000 C 
ATOM     27  O   UNL     1       1.312   3.724  17.159  0.00  0.00    +0.000 OA
ENDBRANCH  24  26
BRANCH  20  28
ATOM     28  C   UNL     1       6.438   5.894  19.066  0.00  0.00    +0.000 C 
BRANCH  28  29
ATOM     29  C   UNL     1       7.312   5.966  17.807  0.00  0.00    +0.000 C 
BRANCH  29  31
ATOM     30  C   UNL     1       8.103   8.367  17.911  0.00  0.00    +0.000 C 
ATOM     31  C   UNL     1       7.294   7.341  17.133  0.00  0.00    +0.000 C 
ENDBRANCH  29  31
ENDBRANCH  28  29
ENDBRANCH  20  28
ENDBRANCH  19  25
ENDBRANCH   1  19
TORSDOF 8
ENDMDL
MODEL 6
REMARK VINA RESULT:      -8.4      2.906      8.692
REMARK  Name = 
REMARK  10 active torsions:
REMARK  status: ('A' for Active; 'I' for Inactive)
REMARK    1  A    between atoms: C_1  and  C_2
REMARK    2  A    between atoms: C_2  and  C_3
REMARK    3  A    between atoms: C_3  and  C_4
REMARK    4  A    between atoms: C_4  and  N_5
REMARK    5  A    between atoms: C_7  and  C_8
REMARK    6  A    between atoms: C_9  and  C_10
REMARK    7  A    between atoms: C_12  and  C_13
REMARK    8  A    between atoms: C_13  and  C_14
REMARK    9  A    between atoms: C_17  and  C_18
REMARK   10  A    between atoms: C_23  and  C_24
REMARK                            x       y       z     vdW  Elec       q    Type
REMARK                         _______ _______ _______ _____ _____    ______ ____
ROOT
ATOM      1  C   UNL     1       2.568   7.731  18.495  0.00  0.00    +0.000 A 
ATOM      2  C   UNL     1       2.063   8.882  17.888  0.00  0.00    +0.000 A 
ATOM      3  C   UNL     1       1.216   9.735  18.598  0.00  0.00    +0.000 A 
ATOM      4  C   UNL     1       0.795   9.433  19.909  0.00  0.00    +0.000 A 
ATOM      5  C   UNL     1       1.266   8.232  20.464  0.00  0.00    +0.000 A 
ATOM      6  C   UNL     1       2.183   7.423  19.798  0.00  0.00    +0.000 A 
ENDROOT
BRANCH   4   7
ATOM      7  C   UNL     1      -0.128  10.339  20.649  0.00  0.00    +0.000 A 
ATOM      8  C   UNL     1       0.036  10.461  22.052  0.00  0.00    +0.000 A 
ATOM      9  C   UNL     1      -0.770  11.292  22.832  0.00  0.00    +0.000 A 
ATOM     10  C   UNL     1      -1.747  12.065  22.226  0.00  0.00    +0.000 A 
ATOM     11  C   UNL     1      -1.930  11.989  20.848  0.00  0.00    +0.000 A 
ATOM     12  C   UNL     1      -1.158  11.117  20.050  0.00  0.00    +0.000 A 
BRANCH  12  13
ATOM     13  C   UNL     1      -1.491  11.084  18.628  0.00  0.00    +0.000 A 
ATOM     14  N   UNL     1      -2.048   9.972  18.032  0.00  0.00    +0.000 NA
ATOM     15  N   UNL     1      -2.293  10.294  16.768  0.00  0.00    +0.000 NA
ATOM     16  N   UNL     1      -1.874  11.559  16.658  0.00  0.00    +0.000 N 
ATOM     17  N   UNL     1      -1.317  12.093  17.754  0.00  0.00    +0.000 NA
ATOM     18  H   UNL     1      -1.991  12.088  15.798  0.00  0.00    +0.000 HD
ENDBRANCH  12  13
ENDBRANCH   4   7
BRANCH   1  19
ATOM     19  C   UNL     1       3.436   6.782  17.735  0.00  0.00    +0.000 C 
BRANCH  19  25
ATOM     20  N   UNL     1       5.090   5.097  18.860  0.00  0.00    +0.000 N 
ATOM     21  N   UNL     1       5.078   3.813  19.294  0.00  0.00    +0.000 NA
ATOM     22  C   UNL     1       3.826   3.398  19.120  0.00  0.00    +0.000 A 
ATOM     23  C   UNL     1       3.428   2.025  19.515  0.00  0.00    +0.000 C 
ATOM     24  C   UNL     1       3.020   4.398  18.543  0.00  0.00    +0.000 A 
ATOM     25  C   UNL     1       3.866   5.490  18.358  0.00  0.00    +0.000 A 
BRANCH  24  26
ATOM     26  C   UNL     1       1.610   4.313  18.201  0.00  0.00    +0.000 C 
ATOM     27  O   UNL     1       1.180   4.001  17.101  0.00  0.00    +0.000 OA
ENDBRANCH  24  26
BRANCH  20  28
ATOM     28  C   UNL     1       6.368   5.784  18.965  0.00  0.00    +0.000 C 
BRANCH  28  29
ATOM     29  C   UNL     1       7.133   5.935  17.645  0.00  0.00    +0.000 C 
BRANCH  29  31
ATOM     30  C   UNL     1       6.574   4.502  15.636  0.00  0.00    +0.000 C 
ATOM     31  C   UNL     1       7.372   4.603  16.927  0.00  0.00    +0.000 C 
ENDBRANCH  29  31
ENDBRANCH  28  29
ENDBRANCH  20  28
ENDBRANCH  19  25
ENDBRANCH   1  19
TORSDOF 8
ENDMDL
MODEL 7
REMARK VINA RESULT:      -8.4      3.066      8.387
REMARK  Name = 
REMARK  10 active torsions:
REMARK  status: ('A' for Active; 'I' for Inactive)
REMARK    1  A    between atoms: C_1  and  C_2
REMARK    2  A    between atoms: C_2  and  C_3
REMARK    3  A    between atoms: C_3  and  C_4
REMARK    4  A    between atoms: C_4  and  N_5
REMARK    5  A    between atoms: C_7  and  C_8
REMARK    6  A    between atoms: C_9  and  C_10
REMARK    7  A    between atoms: C_12  and  C_13
REMARK    8  A    between atoms: C_13  and  C_14
REMARK    9  A    between atoms: C_17  and  C_18
REMARK   10  A    between atoms: C_23  and  C_24
REMARK                            x       y       z     vdW  Elec       q    Type
REMARK                         _______ _______ _______ _____ _____    ______ ____
ROOT
ATOM      1  C   UNL     1       2.447   7.281  18.538  0.00  0.00    +0.000 A 
ATOM      2  C   UNL     1       2.282   7.008  19.897  0.00  0.00    +0.000 A 
ATOM      3  C   UNL     1       1.573   7.895  20.709  0.00  0.00    +0.000 A 
ATOM      4  C   UNL     1       1.066   9.111  20.208  0.00  0.00    +0.000 A 
ATOM      5  C   UNL     1       1.312   9.387  18.852  0.00  0.00    +0.000 A 
ATOM      6  C   UNL     1       1.936   8.466  18.014  0.00  0.00    +0.000 A 
ENDROOT
BRANCH   4   7
ATOM      7  C   UNL     1       0.332  10.061  21.089  0.00  0.00    +0.000 A 
ATOM      8  C   UNL     1      -0.340   9.537  22.224  0.00  0.00    +0.000 A 
ATOM      9  C   UNL     1      -1.045  10.346  23.116  0.00  0.00    +0.000 A 
ATOM     10  C   UNL     1      -1.070  11.718  22.927  0.00  0.00    +0.000 A 
ATOM     11  C   UNL     1      -0.408  12.275  21.836  0.00  0.00    +0.000 A 
ATOM     12  C   UNL     1       0.268  11.469  20.895  0.00  0.00    +0.000 A 
BRANCH  12  13
ATOM     13  C   UNL     1       0.866  12.169  19.762  0.00  0.00    +0.000 A 
ATOM     14  N   UNL     1       2.168  12.627  19.786  0.00  0.00    +0.000 NA
ATOM     15  N   UNL     1       2.418  13.143  18.590  0.00  0.00    +0.000 NA
ATOM     16  N   UNL     1       1.277  12.985  17.912  0.00  0.00    +0.000 N 
ATOM     17  N   UNL     1       0.258  12.439  18.591  0.00  0.00    +0.000 NA
ATOM     18  H   UNL     1       1.196  13.245  16.933  0.00  0.00    +0.000 HD
ENDBRANCH  12  13
ENDBRANCH   4   7
BRANCH   1  19
ATOM     19  C   UNL     1       3.243   6.368  17.664  0.00  0.00    +0.000 C 
BRANCH  19  25
ATOM     20  N   UNL     1       4.539   4.490  18.941  0.00  0.00    +0.000 N 
ATOM     21  N   UNL     1       5.818   4.209  19.289  0.00  0.00    +0.000 NA
ATOM     22  C   UNL     1       6.551   5.171  18.733  0.00  0.00    +0.000 A 
ATOM     23  C   UNL     1       8.025   5.174  18.885  0.00  0.00    +0.000 C 
ATOM     24  C   UNL     1       5.751   6.102  18.044  0.00  0.00    +0.000 A 
ATOM     25  C   UNL     1       4.441   5.656  18.209  0.00  0.00    +0.000 A 
BRANCH  24  26
ATOM     26  C   UNL     1       6.191   7.284  17.320  0.00  0.00    +0.000 C 
ATOM     27  O   UNL     1       7.220   7.355  16.666  0.00  0.00    +0.000 OA
ENDBRANCH  24  26
BRANCH  20  28
ATOM     28  C   UNL     1       3.536   3.555  19.425  0.00  0.00    +0.000 C 
BRANCH  28  29
ATOM     29  C   UNL     1       2.536   3.073  18.367  0.00  0.00    +0.000 C 
BRANCH  29  31
ATOM     30  C   UNL     1       0.962   3.586  20.281  0.00  0.00    +0.000 C 
ATOM     31  C   UNL     1       1.077   3.174  18.821  0.00  0.00    +0.000 C 
ENDBRANCH  29  31
ENDBRANCH  28  29
ENDBRANCH  20  28
ENDBRANCH  19  25
ENDBRANCH   1  19
TORSDOF 8
ENDMDL
MODEL 8
REMARK VINA RESULT:      -8.3      2.877      8.341
REMARK  Name = 
REMARK  10 active torsions:
REMARK  status: ('A' for Active; 'I' for Inactive)
REMARK    1  A    between atoms: C_1  and  C_2
REMARK    2  A    between atoms: C_2  and  C_3
REMARK    3  A    between atoms: C_3  and  C_4
REMARK    4  A    between atoms: C_4  and  N_5
REMARK    5  A    between atoms: C_7  and  C_8
REMARK    6  A    between atoms: C_9  and  C_10
REMARK    7  A    between atoms: C_12  and  C_13
REMARK    8  A    between atoms: C_13  and  C_14
REMARK    9  A    between atoms: C_17  and  C_18
REMARK   10  A    between atoms: C_23  and  C_24
REMARK                            x       y       z     vdW  Elec       q    Type
REMARK                         _______ _______ _______ _____ _____    ______ ____
ROOT
ATOM      1  C   UNL     1       2.657   7.883  18.060  0.00  0.00    +0.000 A 
ATOM      2  C   UNL     1       2.340   7.255  19.266  0.00  0.00    +0.000 A 
ATOM      3  C   UNL     1       1.518   7.896  20.195  0.00  0.00    +0.000 A 
ATOM      4  C   UNL     1       1.042   9.205  19.980  0.00  0.00    +0.000 A 
ATOM      5  C   UNL     1       1.438   9.834  18.788  0.00  0.00    +0.000 A 
ATOM      6  C   UNL     1       2.180   9.169  17.816  0.00  0.00    +0.000 A 
ENDROOT
BRANCH   4   7
ATOM      7  C   UNL     1       0.184   9.887  20.989  0.00  0.00    +0.000 A 
ATOM      8  C   UNL     1       0.305   9.492  22.346  0.00  0.00    +0.000 A 
ATOM      9  C   UNL     1      -0.445  10.078  23.366  0.00  0.00    +0.000 A 
ATOM     10  C   UNL     1      -1.318  11.112  23.070  0.00  0.00    +0.000 A 
ATOM     11  C   UNL     1      -1.454  11.543  21.753  0.00  0.00    +0.000 A 
ATOM     12  C   UNL     1      -0.741  10.929  20.700  0.00  0.00    +0.000 A 
BRANCH  12  13
ATOM     13  C   UNL     1      -1.021  11.430  19.357  0.00  0.00    +0.000 A 
ATOM     14  N   UNL     1      -1.816  10.738  18.467  0.00  0.00    +0.000 NA
ATOM     15  N   UNL     1      -1.927  11.493  17.382  0.00  0.00    +0.000 NA
ATOM     16  N   UNL     1      -1.202  12.582  17.656  0.00  0.00    +0.000 N 
ATOM     17  N   UNL     1      -0.569  12.588  18.838  0.00  0.00    +0.000 NA
ATOM     18  H   UNL     1      -1.153  13.367  17.013  0.00  0.00    +0.000 HD
ENDBRANCH  12  13
ENDBRANCH   4   7
BRANCH   1  19
ATOM     19  C   UNL     1       3.574   7.234  17.076  0.00  0.00    +0.000 C 
BRANCH  19  25
ATOM     20  N   UNL     1       4.211   4.815  17.840  0.00  0.00    +0.000 N 
ATOM     21  N   UNL     1       5.321   4.144  18.233  0.00  0.00    +0.000 NA
ATOM     22  C   UNL     1       6.319   5.014  18.104  0.00  0.00    +0.000 A 
ATOM     23  C   UNL     1       7.710   4.614  18.426  0.00  0.00    +0.000 C 
ATOM     24  C   UNL     1       5.864   6.267  17.653  0.00  0.00    +0.000 A 
ATOM     25  C   UNL     1       4.484   6.127  17.509  0.00  0.00    +0.000 A 
BRANCH  24  26
ATOM     26  C   UNL     1       6.655   7.460  17.399  0.00  0.00    +0.000 C 
ATOM     27  O   UNL     1       7.664   7.490  16.712  0.00  0.00    +0.000 OA
ENDBRANCH  24  26
BRANCH  20  28
ATOM     28  C   UNL     1       2.971   4.057  17.879  0.00  0.00    +0.000 C 
BRANCH  28  29
ATOM     29  C   UNL     1       2.799   3.158  19.110  0.00  0.00    +0.000 C 
BRANCH  29  31
ATOM     30  C   UNL     1       1.511   2.871  21.268  0.00  0.00    +0.000 C 
ATOM     31  C   UNL     1       1.464   3.366  19.830  0.00  0.00    +0.000 C 
ENDBRANCH  29  31
ENDBRANCH  28  29
ENDBRANCH  20  28
ENDBRANCH  19  25
ENDBRANCH   1  19
TORSDOF 8
ENDMDL
MODEL 9
REMARK VINA RESULT:      -8.3      2.909      8.201
REMARK  Name = 
REMARK  10 active torsions:
REMARK  status: ('A' for Active; 'I' for Inactive)
REMARK    1  A    between atoms: C_1  and  C_2
REMARK    2  A    between atoms: C_2  and  C_3
REMARK    3  A    between atoms: C_3  and  C_4
REMARK    4  A    between atoms: C_4  and  N_5
REMARK    5  A    between atoms: C_7  and  C_8
REMARK    6  A    between atoms: C_9  and  C_10
REMARK    7  A    between atoms: C_12  and  C_13
REMARK    8  A    between atoms: C_13  and  C_14
REMARK    9  A    between atoms: C_17  and  C_18
REMARK   10  A    between atoms: C_23  and  C_24
REMARK                            x       y       z     vdW  Elec       q    Type
REMARK                         _______ _______ _______ _____ _____    ______ ____
ROOT
ATOM      1  C   UNL     1       2.553   7.685  18.368  0.00  0.00    +0.000 A 
ATOM      2  C   UNL     1       2.242   7.359  19.689  0.00  0.00    +0.000 A 
ATOM      3  C   UNL     1       1.372   8.167  20.424  0.00  0.00    +0.000 A 
ATOM      4  C   UNL     1       0.840   9.357  19.888  0.00  0.00    +0.000 A 
ATOM      5  C   UNL     1       1.231   9.692  18.581  0.00  0.00    +0.000 A 
ATOM      6  C   UNL     1       2.023   8.845  17.809  0.00  0.00    +0.000 A 
ENDROOT
BRANCH   4   7
ATOM      7  C   UNL     1      -0.068  10.223  20.690  0.00  0.00    +0.000 A 
ATOM      8  C   UNL     1       0.084  10.228  22.100  0.00  0.00    +0.000 A 
ATOM      9  C   UNL     1      -0.710  11.013  22.937  0.00  0.00    +0.000 A 
ATOM     10  C   UNL     1      -1.662  11.856  22.387  0.00  0.00    +0.000 A 
ATOM     11  C   UNL     1      -1.833  11.895  21.006  0.00  0.00    +0.000 A 
ATOM     12  C   UNL     1      -1.074  11.072  20.147  0.00  0.00    +0.000 A 
BRANCH  12  13
ATOM     13  C   UNL     1      -1.393  11.161  18.725  0.00  0.00    +0.000 A 
ATOM     14  N   UNL     1      -2.018  10.133  18.048  0.00  0.00    +0.000 NA
ATOM     15  N   UNL     1      -2.227  10.559  16.809  0.00  0.00    +0.000 NA
ATOM     16  N   UNL     1      -1.722  11.797  16.791  0.00  0.00    +0.000 N 
ATOM     17  N   UNL     1      -1.142  12.214  17.924  0.00  0.00    +0.000 NA
ATOM     18  H   UNL     1      -1.794  12.391  15.969  0.00  0.00    +0.000 HD
ENDBRANCH  12  13
ENDBRANCH   4   7
BRANCH   1  19
ATOM     19  C   UNL     1       3.519   6.859  17.582  0.00  0.00    +0.000 C 
BRANCH  19  25
ATOM     20  N   UNL     1       4.582   5.011  19.097  0.00  0.00    +0.000 N 
ATOM     21  N   UNL     1       5.807   4.681  19.572  0.00  0.00    +0.000 NA
ATOM     22  C   UNL     1       6.645   5.551  19.012  0.00  0.00    +0.000 A 
ATOM     23  C   UNL     1       8.099   5.478  19.287  0.00  0.00    +0.000 C 
ATOM     24  C   UNL     1       5.967   6.473  18.192  0.00  0.00    +0.000 A 
ATOM     25  C   UNL     1       4.620   6.121  18.278  0.00  0.00    +0.000 A 
BRANCH  24  26
ATOM     26  C   UNL     1       6.540   7.567  17.424  0.00  0.00    +0.000 C 
ATOM     27  O   UNL     1       7.531   7.473  16.716  0.00  0.00    +0.000 OA
ENDBRANCH  24  26
BRANCH  20  28
ATOM     28  C   UNL     1       3.483   4.179  19.561  0.00  0.00    +0.000 C 
BRANCH  28  29
ATOM     29  C   UNL     1       3.280   2.877  18.776  0.00  0.00    +0.000 C 
BRANCH  29  31
ATOM     30  C   UNL     1       1.322   4.057  17.692  0.00  0.00    +0.000 C 
ATOM     31  C   UNL     1       2.456   3.062  17.498  0.00  0.00    +0.000 C 
ENDBRANCH  29  31
ENDBRANCH  28  29
ENDBRANCH  20  28
ENDBRANCH  19  25
ENDBRANCH   1  19
TORSDOF 8
ENDMDL
