MODEL 1
REMARK VINA RESULT:      -8.2      0.000      0.000
REMARK  Name = 
REMARK  12 active torsions:
REMARK  status: ('A' for Active; 'I' for Inactive)
REMARK    1  A    between atoms: C_1  and  C_2
REMARK    2  A    between atoms: C_2  and  C_3
REMARK    3  A    between atoms: C_3  and  N_4
REMARK    4  A    between atoms: N_4  and  C_5
REMARK    5  A    between atoms: N_4  and  C_6
REMARK    6  A    between atoms: C_6  and  C_7
REMARK    7  A    between atoms: C_12  and  C_13
REMARK    8  A    between atoms: N_23  and  C_24
REMARK    9  A    between atoms: C_24  and  C_25
REMARK   10  A    between atoms: C_24  and  C_26
REMARK   11  A    between atoms: C_26  and  O_27
REMARK   12  A    between atoms: C_29  and  C_30
REMARK                            x       y       z     vdW  Elec       q    Type
REMARK                         _______ _______ _______ _____ _____    ______ ____
ROOT
ATOM      1  C   UNL     1       5.549   5.755  16.762  0.00  0.00    +0.000 C 
ATOM      2  O   UNL     1       4.446   6.546  16.261  0.00  0.00    +0.000 OA
ATOM      3  C   UNL     1       3.539   7.021  17.148  0.00  0.00    +0.000 A 
ATOM      4  N   UNL     1       3.461   8.368  17.157  0.00  0.00    +0.000 NA
ATOM      5  C   UNL     1       2.688   8.944  18.118  0.00  0.00    +0.000 A 
ATOM      6  C   UNL     1       1.980   8.244  19.095  0.00  0.00    +0.000 A 
ATOM      7  C   UNL     1       2.062   6.851  19.018  0.00  0.00    +0.000 A 
ATOM      8  C   UNL     1       2.843   6.234  18.052  0.00  0.00    +0.000 A 
ATOM      9  C   UNL     1       2.859   4.777  18.085  0.00  0.00    +0.000 C 
ATOM     10  O   UNL     1       1.902   4.205  17.564  0.00  0.00    +0.000 OA
ATOM     11  N   UNL     1       3.829   4.119  18.856  0.00  0.00    +0.000 N 
ATOM     12  C   UNL     1       5.206   4.605  19.110  0.00  0.00    +0.000 C 
ATOM     13  C   UNL     1       5.721   5.832  18.330  0.00  0.00    +0.000 C 
ATOM     14  C   UNL     1       7.163   6.170  18.735  0.00  0.00    +0.000 C 
ENDROOT
BRANCH   6  15
ATOM     15  C   UNL     1       1.217   8.895  20.170  0.00  0.00    +0.000 A 
ATOM     16  C   UNL     1       0.305   9.928  19.885  0.00  0.00    +0.000 A 
ATOM     17  C   UNL     1      -0.488  10.497  20.883  0.00  0.00    +0.000 A 
ATOM     18  C   UNL     1      -0.371  10.057  22.195  0.00  0.00    +0.000 A 
ATOM     19  C   UNL     1       0.533   9.047  22.507  0.00  0.00    +0.000 A 
ATOM     20  C   UNL     1       1.316   8.469  21.505  0.00  0.00    +0.000 A 
ENDBRANCH   6  15
BRANCH  11  21
ATOM     21  C   UNL     1       3.470   2.735  19.282  0.00  0.00    +0.000 C 
ATOM     22  C   UNL     1       3.555   1.732  18.130  0.00  0.00    +0.000 C 
BRANCH  21  23
ATOM     23  C   UNL     1       4.262   2.227  20.503  0.00  0.00    +0.000 C 
BRANCH  23  24
ATOM     24  O   UNL     1       5.288   1.317  20.114  0.00  0.00    +0.000 OA
ATOM     25  H   UNL     1       5.171   1.137  19.166  0.00  0.00    +0.000 HD
ENDBRANCH  23  24
ENDBRANCH  21  23
ENDBRANCH  11  21
BRANCH   1  26
ATOM     26  C   UNL     1       5.428   4.316  16.156  0.00  0.00    +0.000 C 
BRANCH  26  27
ATOM     27  N   UNL     1       6.192   3.955  14.922  0.00  0.00    +0.000 NA
ATOM     28  C   UNL     1       7.367   4.816  14.731  0.00  0.00    +0.000 C 
BRANCH  27  29
ATOM     29  C   UNL     1       5.267   4.106  13.765  0.00  0.00    +0.000 C 
BRANCH  29  31
ATOM     30  C   UNL     1       4.514   3.160  11.551  0.00  0.00    +0.000 C 
ATOM     31  C   UNL     1       5.693   3.360  12.494  0.00  0.00    +0.000 C 
ENDBRANCH  29  31
ENDBRANCH  27  29
ENDBRANCH  26  27
ENDBRANCH   1  26
TORSDOF 8
ENDMDL
MODEL 2
REMARK VINA RESULT:      -8.1      1.109      1.456
REMARK  Name = 
REMARK  12 active torsions:
REMARK  status: ('A' for Active; 'I' for Inactive)
REMARK    1  A    between atoms: C_1  and  C_2
REMARK    2  A    between atoms: C_2  and  C_3
REMARK    3  A    between atoms: C_3  and  N_4
REMARK    4  A    between atoms: N_4  and  C_5
REMARK    5  A    between atoms: N_4  and  C_6
REMARK    6  A    between atoms: C_6  and  C_7
REMARK    7  A    between atoms: C_12  and  C_13
REMARK    8  A    between atoms: N_23  and  C_24
REMARK    9  A    between atoms: C_24  and  C_25
REMARK   10  A    between atoms: C_24  and  C_26
REMARK   11  A    between atoms: C_26  and  O_27
REMARK   12  A    between atoms: C_29  and  C_30
REMARK                            x       y       z     vdW  Elec       q    Type
REMARK                         _______ _______ _______ _____ _____    ______ ____
ROOT
ATOM      1  C   UNL     1       5.250   5.602  17.013  0.00  0.00    +0.000 C 
ATOM      2  O   UNL     1       4.288   6.545  16.488  0.00  0.00    +0.000 OA
ATOM      3  C   UNL     1       3.359   7.056  17.333  0.00  0.00    +0.000 A 
ATOM      4  N   UNL     1       3.425   8.399  17.444  0.00  0.00    +0.000 NA
ATOM      5  C   UNL     1       2.634   8.988  18.382  0.00  0.00    +0.000 A 
ATOM      6  C   UNL     1       1.770   8.306  19.238  0.00  0.00    +0.000 A 
ATOM      7  C   UNL     1       1.710   6.922  19.056  0.00  0.00    +0.000 A 
ATOM      8  C   UNL     1       2.505   6.291  18.110  0.00  0.00    +0.000 A 
ATOM      9  C   UNL     1       2.364   4.842  18.027  0.00  0.00    +0.000 C 
ATOM     10  O   UNL     1       1.402   4.420  17.386  0.00  0.00    +0.000 OA
ATOM     11  N   UNL     1       3.185   4.026  18.820  0.00  0.00    +0.000 N 
ATOM     12  C   UNL     1       4.577   4.334  19.225  0.00  0.00    +0.000 C 
ATOM     13  C   UNL     1       5.287   5.548  18.590  0.00  0.00    +0.000 C 
ATOM     14  C   UNL     1       6.715   5.691  19.138  0.00  0.00    +0.000 C 
ENDROOT
BRANCH   6  15
ATOM     15  C   UNL     1       0.986   8.961  20.296  0.00  0.00    +0.000 A 
ATOM     16  C   UNL     1       1.105   8.555  21.637  0.00  0.00    +0.000 A 
ATOM     17  C   UNL     1       0.433   9.222  22.663  0.00  0.00    +0.000 A 
ATOM     18  C   UNL     1      -0.392  10.299  22.365  0.00  0.00    +0.000 A 
ATOM     19  C   UNL     1      -0.538  10.712  21.045  0.00  0.00    +0.000 A 
ATOM     20  C   UNL     1       0.146  10.053  20.021  0.00  0.00    +0.000 A 
ENDBRANCH   6  15
BRANCH  11  21
ATOM     21  C   UNL     1       2.644   2.664  19.103  0.00  0.00    +0.000 C 
ATOM     22  C   UNL     1       3.738   1.594  19.105  0.00  0.00    +0.000 C 
BRANCH  21  23
ATOM     23  C   UNL     1       1.797   2.578  20.388  0.00  0.00    +0.000 C 
BRANCH  23  24
ATOM     24  O   UNL     1       0.480   3.082  20.176  0.00  0.00    +0.000 OA
ATOM     25  H   UNL     1       0.098   2.588  19.430  0.00  0.00    +0.000 HD
ENDBRANCH  23  24
ENDBRANCH  21  23
ENDBRANCH  11  21
BRANCH   1  26
ATOM     26  C   UNL     1       5.032   4.232  16.285  0.00  0.00    +0.000 C 
BRANCH  26  27
ATOM     27  N   UNL     1       6.003   3.773  15.244  0.00  0.00    +0.000 NA
ATOM     28  C   UNL     1       7.226   4.588  15.235  0.00  0.00    +0.000 C 
BRANCH  27  29
ATOM     29  C   UNL     1       5.323   3.875  13.924  0.00  0.00    +0.000 C 
BRANCH  29  31
ATOM     30  C   UNL     1       5.581   2.598  11.764  0.00  0.00    +0.000 C 
ATOM     31  C   UNL     1       6.221   3.605  12.710  0.00  0.00    +0.000 C 
ENDBRANCH  29  31
ENDBRANCH  27  29
ENDBRANCH  26  27
ENDBRANCH   1  26
TORSDOF 8
ENDMDL
MODEL 3
REMARK VINA RESULT:      -8.1      0.738      1.294
REMARK  Name = 
REMARK  12 active torsions:
REMARK  status: ('A' for Active; 'I' for Inactive)
REMARK    1  A    between atoms: C_1  and  C_2
REMARK    2  A    between atoms: C_2  and  C_3
REMARK    3  A    between atoms: C_3  and  N_4
REMARK    4  A    between atoms: N_4  and  C_5
REMARK    5  A    between atoms: N_4  and  C_6
REMARK    6  A    between atoms: C_6  and  C_7
REMARK    7  A    between atoms: C_12  and  C_13
REMARK    8  A    between atoms: N_23  and  C_24
REMARK    9  A    between atoms: C_24  and  C_25
REMARK   10  A    between atoms: C_24  and  C_26
REMARK   11  A    between atoms: C_26  and  O_27
REMARK   12  A    between atoms: C_29  and  C_30
REMARK                            x       y       z     vdW  Elec       q    Type
REMARK                         _______ _______ _______ _____ _____    ______ ____
ROOT
ATOM      1  C   UNL     1       5.837   5.724  16.692  0.00  0.00    +0.000 C 
ATOM      2  O   UNL     1       4.673   6.405  16.169  0.00  0.00    +0.000 OA
ATOM      3  C   UNL     1       3.752   6.874  17.046  0.00  0.00    +0.000 A 
ATOM      4  N   UNL     1       3.582   8.210  16.973  0.00  0.00    +0.000 NA
ATOM      5  C   UNL     1       2.791   8.792  17.915  0.00  0.00    +0.000 A 
ATOM      6  C   UNL     1       2.152   8.111  18.950  0.00  0.00    +0.000 A 
ATOM      7  C   UNL     1       2.327   6.724  18.958  0.00  0.00    +0.000 A 
ATOM      8  C   UNL     1       3.130   6.101  18.013  0.00  0.00    +0.000 A 
ATOM      9  C   UNL     1       3.247   4.653  18.137  0.00  0.00    +0.000 C 
ATOM     10  O   UNL     1       2.322   3.986  17.676  0.00  0.00    +0.000 OA
ATOM     11  N   UNL     1       4.275   4.112  18.924  0.00  0.00    +0.000 N 
ATOM     12  C   UNL     1       5.621   4.706  19.114  0.00  0.00    +0.000 C 
ATOM     13  C   UNL     1       6.034   5.912  18.247  0.00  0.00    +0.000 C 
ATOM     14  C   UNL     1       7.457   6.371  18.595  0.00  0.00    +0.000 C 
ENDROOT
BRANCH   6  15
ATOM     15  C   UNL     1       1.367   8.776  20.001  0.00  0.00    +0.000 A 
ATOM     16  C   UNL     1       1.356   8.279  21.317  0.00  0.00    +0.000 A 
ATOM     17  C   UNL     1       0.685   8.946  22.343  0.00  0.00    +0.000 A 
ATOM     18  C   UNL     1      -0.008  10.118  22.070  0.00  0.00    +0.000 A 
ATOM     19  C   UNL     1      -0.025  10.624  20.774  0.00  0.00    +0.000 A 
ATOM     20  C   UNL     1       0.658   9.963  19.750  0.00  0.00    +0.000 A 
ENDBRANCH   6  15
BRANCH  11  21
ATOM     21  C   UNL     1       4.021   2.738  19.444  0.00  0.00    +0.000 C 
ATOM     22  C   UNL     1       2.991   2.727  20.576  0.00  0.00    +0.000 C 
BRANCH  21  23
ATOM     23  C   UNL     1       3.643   1.713  18.356  0.00  0.00    +0.000 C 
BRANCH  23  24
ATOM     24  O   UNL     1       2.292   1.279  18.499  0.00  0.00    +0.000 OA
ATOM     25  H   UNL     1       1.886   1.303  17.615  0.00  0.00    +0.000 HD
ENDBRANCH  23  24
ENDBRANCH  21  23
ENDBRANCH  11  21
BRANCH   1  26
ATOM     26  C   UNL     1       5.803   4.244  16.179  0.00  0.00    +0.000 C 
BRANCH  26  27
ATOM     27  N   UNL     1       6.414   3.893  14.861  0.00  0.00    +0.000 NA
ATOM     28  C   UNL     1       7.347   4.928  14.393  0.00  0.00    +0.000 C 
BRANCH  27  29
ATOM     29  C   UNL     1       5.303   3.741  13.881  0.00  0.00    +0.000 C 
BRANCH  29  31
ATOM     30  C   UNL     1       4.539   3.209  11.536  0.00  0.00    +0.000 C 
ATOM     31  C   UNL     1       5.738   3.343  12.465  0.00  0.00    +0.000 C 
ENDBRANCH  29  31
ENDBRANCH  27  29
ENDBRANCH  26  27
ENDBRANCH   1  26
TORSDOF 8
ENDMDL
MODEL 4
REMARK VINA RESULT:      -7.2      4.200      8.188
REMARK  Name = 
REMARK  12 active torsions:
REMARK  status: ('A' for Active; 'I' for Inactive)
REMARK    1  A    between atoms: C_1  and  C_2
REMARK    2  A    between atoms: C_2  and  C_3
REMARK    3  A    between atoms: C_3  and  N_4
REMARK    4  A    between atoms: N_4  and  C_5
REMARK    5  A    between atoms: N_4  and  C_6
REMARK    6  A    between atoms: C_6  and  C_7
REMARK    7  A    between atoms: C_12  and  C_13
REMARK    8  A    between atoms: N_23  and  C_24
REMARK    9  A    between atoms: C_24  and  C_25
REMARK   10  A    between atoms: C_24  and  C_26
REMARK   11  A    between atoms: C_26  and  O_27
REMARK   12  A    between atoms: C_29  and  C_30
REMARK                            x       y       z     vdW  Elec       q    Type
REMARK                         _______ _______ _______ _____ _____    ______ ____
ROOT
ATOM      1  C   UNL     1       0.753  11.036  18.007  0.00  0.00    +0.000 C 
ATOM      2  O   UNL     1       2.031  10.359  18.049  0.00  0.00    +0.000 OA
ATOM      3  C   UNL     1       2.094   9.138  18.635  0.00  0.00    +0.000 A 
ATOM      4  N   UNL     1       2.504   8.166  17.794  0.00  0.00    +0.000 NA
ATOM      5  C   UNL     1       2.455   6.884  18.249  0.00  0.00    +0.000 A 
ATOM      6  C   UNL     1       2.008   6.504  19.513  0.00  0.00    +0.000 A 
ATOM      7  C   UNL     1       1.631   7.551  20.360  0.00  0.00    +0.000 A 
ATOM      8  C   UNL     1       1.667   8.868  19.925  0.00  0.00    +0.000 A 
ATOM      9  C   UNL     1       1.236   9.868  20.895  0.00  0.00    +0.000 C 
ATOM     10  O   UNL     1       2.063  10.206  21.740  0.00  0.00    +0.000 OA
ATOM     11  N   UNL     1      -0.117  10.238  20.943  0.00  0.00    +0.000 N 
ATOM     12  C   UNL     1      -1.042  10.284  19.786  0.00  0.00    +0.000 C 
ATOM     13  C   UNL     1      -0.469  10.103  18.365  0.00  0.00    +0.000 C 
ATOM     14  C   UNL     1      -1.584  10.186  17.313  0.00  0.00    +0.000 C 
ENDROOT
BRANCH   6  15
ATOM     15  C   UNL     1       1.891   5.105  19.950  0.00  0.00    +0.000 A 
ATOM     16  C   UNL     1       2.257   4.722  21.253  0.00  0.00    +0.000 A 
ATOM     17  C   UNL     1       2.072   3.416  21.709  0.00  0.00    +0.000 A 
ATOM     18  C   UNL     1       1.534   2.456  20.861  0.00  0.00    +0.000 A 
ATOM     19  C   UNL     1       1.177   2.805  19.562  0.00  0.00    +0.000 A 
ATOM     20  C   UNL     1       1.350   4.116  19.112  0.00  0.00    +0.000 A 
ENDBRANCH   6  15
BRANCH  11  21
ATOM     21  C   UNL     1      -0.575  10.802  22.246  0.00  0.00    +0.000 C 
ATOM     22  C   UNL     1      -1.774  11.738  22.083  0.00  0.00    +0.000 C 
BRANCH  21  23
ATOM     23  C   UNL     1      -0.857   9.741  23.327  0.00  0.00    +0.000 C 
BRANCH  23  24
ATOM     24  O   UNL     1       0.303   9.481  24.115  0.00  0.00    +0.000 OA
ATOM     25  H   UNL     1       0.442   8.519  24.117  0.00  0.00    +0.000 HD
ENDBRANCH  23  24
ENDBRANCH  21  23
ENDBRANCH  11  21
BRANCH   1  26
ATOM     26  C   UNL     1       0.877  12.355  18.842  0.00  0.00    +0.000 C 
BRANCH  26  27
ATOM     27  N   UNL     1       2.225  12.883  19.216  0.00  0.00    +0.000 NA
ATOM     28  C   UNL     1       2.206  13.568  20.516  0.00  0.00    +0.000 C 
BRANCH  27  29
ATOM     29  C   UNL     1       2.640  13.838  18.153  0.00  0.00    +0.000 C 
BRANCH  29  31
ATOM     30  C   UNL     1       3.169  16.204  17.453  0.00  0.00    +0.000 C 
ATOM     31  C   UNL     1       2.669  15.311  18.581  0.00  0.00    +0.000 C 
ENDBRANCH  29  31
ENDBRANCH  27  29
ENDBRANCH  26  27
ENDBRANCH   1  26
TORSDOF 8
ENDMDL
MODEL 5
REMARK VINA RESULT:      -7.0      4.484      8.982
REMARK  Name = 
REMARK  12 active torsions:
REMARK  status: ('A' for Active; 'I' for Inactive)
REMARK    1  A    between atoms: C_1  and  C_2
REMARK    2  A    between atoms: C_2  and  C_3
REMARK    3  A    between atoms: C_3  and  N_4
REMARK    4  A    between atoms: N_4  and  C_5
REMARK    5  A    between atoms: N_4  and  C_6
REMARK    6  A    between atoms: C_6  and  C_7
REMARK    7  A    between atoms: C_12  and  C_13
REMARK    8  A    between atoms: N_23  and  C_24
REMARK    9  A    between atoms: C_24  and  C_25
REMARK   10  A    between atoms: C_24  and  C_26
REMARK   11  A    between atoms: C_26  and  O_27
REMARK   12  A    between atoms: C_29  and  C_30
REMARK                            x       y       z     vdW  Elec       q    Type
REMARK                         _______ _______ _______ _____ _____    ______ ____
ROOT
ATOM      1  C   UNL     1      -0.082  12.592  18.174  0.00  0.00    +0.000 C 
ATOM      2  O   UNL     1       1.283  12.125  18.069  0.00  0.00    +0.000 OA
ATOM      3  C   UNL     1       1.564  10.861  18.469  0.00  0.00    +0.000 A 
ATOM      4  N   UNL     1       2.064  10.091  17.481  0.00  0.00    +0.000 NA
ATOM      5  C   UNL     1       2.237   8.767  17.745  0.00  0.00    +0.000 A 
ATOM      6  C   UNL     1       1.928   8.151  18.957  0.00  0.00    +0.000 A 
ATOM      7  C   UNL     1       1.450   8.998  19.961  0.00  0.00    +0.000 A 
ATOM      8  C   UNL     1       1.260  10.352  19.721  0.00  0.00    +0.000 A 
ATOM      9  C   UNL     1       0.742  11.128  20.842  0.00  0.00    +0.000 C 
ATOM     10  O   UNL     1       1.558  11.472  21.695  0.00  0.00    +0.000 OA
ATOM     11  N   UNL     1      -0.645  11.270  20.994  0.00  0.00    +0.000 N 
ATOM     12  C   UNL     1      -1.634  11.328  19.891  0.00  0.00    +0.000 C 
ATOM     13  C   UNL     1      -1.126  11.438  18.439  0.00  0.00    +0.000 C 
ATOM     14  C   UNL     1      -2.303  11.489  17.453  0.00  0.00    +0.000 C 
ENDROOT
BRANCH   6  15
ATOM     15  C   UNL     1       2.049   6.704  19.189  0.00  0.00    +0.000 A 
ATOM     16  C   UNL     1       1.803   6.154  20.461  0.00  0.00    +0.000 A 
ATOM     17  C   UNL     1       1.831   4.775  20.677  0.00  0.00    +0.000 A 
ATOM     18  C   UNL     1       2.127   3.915  19.627  0.00  0.00    +0.000 A 
ATOM     19  C   UNL     1       2.389   4.434  18.363  0.00  0.00    +0.000 A 
ATOM     20  C   UNL     1       2.347   5.813  18.144  0.00  0.00    +0.000 A 
ENDBRANCH   6  15
BRANCH  11  21
ATOM     21  C   UNL     1      -1.104  11.570  22.381  0.00  0.00    +0.000 C 
ATOM     22  C   UNL     1      -2.427  12.339  22.401  0.00  0.00    +0.000 C 
BRANCH  21  23
ATOM     23  C   UNL     1      -1.181  10.334  23.300  0.00  0.00    +0.000 C 
BRANCH  23  24
ATOM     24  O   UNL     1       0.117   9.919  23.719  0.00  0.00    +0.000 OA
ATOM     25  H   UNL     1       0.605   9.647  22.923  0.00  0.00    +0.000 HD
ENDBRANCH  23  24
ENDBRANCH  21  23
ENDBRANCH  11  21
BRANCH   1  26
ATOM     26  C   UNL     1      -0.109  13.786  19.188  0.00  0.00    +0.000 C 
BRANCH  26  27
ATOM     27  N   UNL     1       1.140  14.558  19.471  0.00  0.00    +0.000 NA
ATOM     28  C   UNL     1       1.297  14.845  20.903  0.00  0.00    +0.000 C 
BRANCH  27  29
ATOM     29  C   UNL     1       1.056  15.835  18.711  0.00  0.00    +0.000 C 
BRANCH  29  31
ATOM     30  C   UNL     1       3.150  16.525  17.483  0.00  0.00    +0.000 C 
ATOM     31  C   UNL     1       2.325  16.697  18.751  0.00  0.00    +0.000 C 
ENDBRANCH  29  31
ENDBRANCH  27  29
ENDBRANCH  26  27
ENDBRANCH   1  26
TORSDOF 8
ENDMDL
MODEL 6
REMARK VINA RESULT:      -6.9      4.454      9.193
REMARK  Name = 
REMARK  12 active torsions:
REMARK  status: ('A' for Active; 'I' for Inactive)
REMARK    1  A    between atoms: C_1  and  C_2
REMARK    2  A    between atoms: C_2  and  C_3
REMARK    3  A    between atoms: C_3  and  N_4
REMARK    4  A    between atoms: N_4  and  C_5
REMARK    5  A    between atoms: N_4  and  C_6
REMARK    6  A    between atoms: C_6  and  C_7
REMARK    7  A    between atoms: C_12  and  C_13
REMARK    8  A    between atoms: N_23  and  C_24
REMARK    9  A    between atoms: C_24  and  C_25
REMARK   10  A    between atoms: C_24  and  C_26
REMARK   11  A    between atoms: C_26  and  O_27
REMARK   12  A    between atoms: C_29  and  C_30
REMARK                            x       y       z     vdW  Elec       q    Type
REMARK                         _______ _______ _______ _____ _____    ______ ____
ROOT
ATOM      1  C   UNL     1       0.016  12.491  18.138  0.00  0.00    +0.000 C 
ATOM      2  O   UNL     1       1.373  12.002  18.035  0.00  0.00    +0.000 OA
ATOM      3  C   UNL     1       1.635  10.737  18.444  0.00  0.00    +0.000 A 
ATOM      4  N   UNL     1       2.121   9.951  17.461  0.00  0.00    +0.000 NA
ATOM      5  C   UNL     1       2.272   8.627  17.736  0.00  0.00    +0.000 A 
ATOM      6  C   UNL     1       1.955   8.025  18.954  0.00  0.00    +0.000 A 
ATOM      7  C   UNL     1       1.492   8.888  19.951  0.00  0.00    +0.000 A 
ATOM      8  C   UNL     1       1.324  10.242  19.701  0.00  0.00    +0.000 A 
ATOM      9  C   UNL     1       0.820  11.035  20.816  0.00  0.00    +0.000 C 
ATOM     10  O   UNL     1       1.643  11.373  21.665  0.00  0.00    +0.000 OA
ATOM     11  N   UNL     1      -0.565  11.201  20.969  0.00  0.00    +0.000 N 
ATOM     12  C   UNL     1      -1.554  11.266  19.866  0.00  0.00    +0.000 C 
ATOM     13  C   UNL     1      -1.046  11.356  18.413  0.00  0.00    +0.000 C 
ATOM     14  C   UNL     1      -2.223  11.418  17.428  0.00  0.00    +0.000 C 
ENDROOT
BRANCH   6  15
ATOM     15  C   UNL     1       2.054   6.578  19.197  0.00  0.00    +0.000 A 
ATOM     16  C   UNL     1       1.804   6.043  20.474  0.00  0.00    +0.000 A 
ATOM     17  C   UNL     1       1.810   4.665  20.701  0.00  0.00    +0.000 A 
ATOM     18  C   UNL     1       2.087   3.792  19.657  0.00  0.00    +0.000 A 
ATOM     19  C   UNL     1       2.351   4.296  18.387  0.00  0.00    +0.000 A 
ATOM     20  C   UNL     1       2.332   5.674  18.158  0.00  0.00    +0.000 A 
ENDBRANCH   6  15
BRANCH  11  21
ATOM     21  C   UNL     1      -1.017  11.519  22.354  0.00  0.00    +0.000 C 
ATOM     22  C   UNL     1      -2.320  12.322  22.369  0.00  0.00    +0.000 C 
BRANCH  21  23
ATOM     23  C   UNL     1      -1.126  10.291  23.279  0.00  0.00    +0.000 C 
BRANCH  23  24
ATOM     24  O   UNL     1       0.154   9.896  23.769  0.00  0.00    +0.000 OA
ATOM     25  H   UNL     1       0.257   8.948  23.578  0.00  0.00    +0.000 HD
ENDBRANCH  23  24
ENDBRANCH  21  23
ENDBRANCH  11  21
BRANCH   1  26
ATOM     26  C   UNL     1       0.009  13.694  19.142  0.00  0.00    +0.000 C 
BRANCH  26  27
ATOM     27  N   UNL     1       0.658  14.988  18.767  0.00  0.00    +0.000 NA
ATOM     28  C   UNL     1       1.763  15.332  19.672  0.00  0.00    +0.000 C 
BRANCH  27  29
ATOM     29  C   UNL     1      -0.388  16.045  18.828  0.00  0.00    +0.000 C 
BRANCH  29  31
ATOM     30  C   UNL     1      -1.251  18.277  18.028  0.00  0.00    +0.000 C 
ATOM     31  C   UNL     1      -0.067  17.320  18.037  0.00  0.00    +0.000 C 
ENDBRANCH  29  31
ENDBRANCH  27  29
ENDBRANCH  26  27
ENDBRANCH   1  26
TORSDOF 8
ENDMDL
MODEL 7
REMARK VINA RESULT:      -6.8      4.205      8.394
REMARK  Name = 
REMARK  12 active torsions:
REMARK  status: ('A' for Active; 'I' for Inactive)
REMARK    1  A    between atoms: C_1  and  C_2
REMARK    2  A    between atoms: C_2  and  C_3
REMARK    3  A    between atoms: C_3  and  N_4
REMARK    4  A    between atoms: N_4  and  C_5
REMARK    5  A    between atoms: N_4  and  C_6
REMARK    6  A    between atoms: C_6  and  C_7
REMARK    7  A    between atoms: C_12  and  C_13
REMARK    8  A    between atoms: N_23  and  C_24
REMARK    9  A    between atoms: C_24  and  C_25
REMARK   10  A    between atoms: C_24  and  C_26
REMARK   11  A    between atoms: C_26  and  O_27
REMARK   12  A    between atoms: C_29  and  C_30
REMARK                            x       y       z     vdW  Elec       q    Type
REMARK                         _______ _______ _______ _____ _____    ______ ____
ROOT
ATOM      1  C   UNL     1       0.789  11.065  18.055  0.00  0.00    +0.000 C 
ATOM      2  O   UNL     1       2.054  10.365  18.095  0.00  0.00    +0.000 OA
ATOM      3  C   UNL     1       2.093   9.139  18.672  0.00  0.00    +0.000 A 
ATOM      4  N   UNL     1       2.488   8.167  17.824  0.00  0.00    +0.000 NA
ATOM      5  C   UNL     1       2.415   6.882  18.267  0.00  0.00    +0.000 A 
ATOM      6  C   UNL     1       1.956   6.499  19.527  0.00  0.00    +0.000 A 
ATOM      7  C   UNL     1       1.596   7.546  20.381  0.00  0.00    +0.000 A 
ATOM      8  C   UNL     1       1.657   8.866  19.958  0.00  0.00    +0.000 A 
ATOM      9  C   UNL     1       1.240   9.865  20.935  0.00  0.00    +0.000 C 
ATOM     10  O   UNL     1       2.071  10.181  21.785  0.00  0.00    +0.000 OA
ATOM     11  N   UNL     1      -0.105  10.259  20.982  0.00  0.00    +0.000 N 
ATOM     12  C   UNL     1      -1.025  10.331  19.821  0.00  0.00    +0.000 C 
ATOM     13  C   UNL     1      -0.451  10.152  18.401  0.00  0.00    +0.000 C 
ATOM     14  C   UNL     1      -1.561  10.265  17.346  0.00  0.00    +0.000 C 
ENDROOT
BRANCH   6  15
ATOM     15  C   UNL     1       1.812   5.099  19.951  0.00  0.00    +0.000 A 
ATOM     16  C   UNL     1       1.364   4.115  19.051  0.00  0.00    +0.000 A 
ATOM     17  C   UNL     1       1.303   2.768  19.414  0.00  0.00    +0.000 A 
ATOM     18  C   UNL     1       1.671   2.379  20.695  0.00  0.00    +0.000 A 
ATOM     19  C   UNL     1       2.104   3.334  21.609  0.00  0.00    +0.000 A 
ATOM     20  C   UNL     1       2.178   4.679  21.241  0.00  0.00    +0.000 A 
ENDBRANCH   6  15
BRANCH  11  21
ATOM     21  C   UNL     1      -0.557  10.821  22.288  0.00  0.00    +0.000 C 
ATOM     22  C   UNL     1      -1.746  11.772  22.130  0.00  0.00    +0.000 C 
BRANCH  21  23
ATOM     23  C   UNL     1      -0.853   9.756  23.362  0.00  0.00    +0.000 C 
BRANCH  23  24
ATOM     24  O   UNL     1       0.296   9.499  24.167  0.00  0.00    +0.000 OA
ATOM     25  H   UNL     1       1.027   9.275  23.565  0.00  0.00    +0.000 HD
ENDBRANCH  23  24
ENDBRANCH  21  23
ENDBRANCH  11  21
BRANCH   1  26
ATOM     26  C   UNL     1       0.934  12.375  18.902  0.00  0.00    +0.000 C 
BRANCH  26  27
ATOM     27  N   UNL     1       1.536  13.600  18.292  0.00  0.00    +0.000 NA
ATOM     28  C   UNL     1       3.004  13.578  18.348  0.00  0.00    +0.000 C 
BRANCH  27  29
ATOM     29  C   UNL     1       1.024  14.774  19.051  0.00  0.00    +0.000 C 
BRANCH  29  31
ATOM     30  C   UNL     1      -0.571  16.720  18.867  0.00  0.00    +0.000 C 
ATOM     31  C   UNL     1      -0.395  15.220  18.675  0.00  0.00    +0.000 C 
ENDBRANCH  29  31
ENDBRANCH  27  29
ENDBRANCH  26  27
ENDBRANCH   1  26
TORSDOF 8
ENDMDL
MODEL 8
REMARK VINA RESULT:      -6.6      4.195      8.318
REMARK  Name = 
REMARK  12 active torsions:
REMARK  status: ('A' for Active; 'I' for Inactive)
REMARK    1  A    between atoms: C_1  and  C_2
REMARK    2  A    between atoms: C_2  and  C_3
REMARK    3  A    between atoms: C_3  and  N_4
REMARK    4  A    between atoms: N_4  and  C_5
REMARK    5  A    between atoms: N_4  and  C_6
REMARK    6  A    between atoms: C_6  and  C_7
REMARK    7  A    between atoms: C_12  and  C_13
REMARK    8  A    between atoms: N_23  and  C_24
REMARK    9  A    between atoms: C_24  and  C_25
REMARK   10  A    between atoms: C_24  and  C_26
REMARK   11  A    between atoms: C_26  and  O_27
REMARK   12  A    between atoms: C_29  and  C_30
REMARK                            x       y       z     vdW  Elec       q    Type
REMARK                         _______ _______ _______ _____ _____    ______ ____
ROOT
ATOM      1  C   UNL     1       0.703  10.932  18.092  0.00  0.00    +0.000 C 
ATOM      2  O   UNL     1       1.988  10.281  18.217  0.00  0.00    +0.000 OA
ATOM      3  C   UNL     1       2.036   9.051  18.784  0.00  0.00    +0.000 A 
ATOM      4  N   UNL     1       2.528   8.105  17.957  0.00  0.00    +0.000 NA
ATOM      5  C   UNL     1       2.475   6.813  18.383  0.00  0.00    +0.000 A 
ATOM      6  C   UNL     1       1.944   6.399  19.604  0.00  0.00    +0.000 A 
ATOM      7  C   UNL     1       1.483   7.420  20.440  0.00  0.00    +0.000 A 
ATOM      8  C   UNL     1       1.521   8.746  20.033  0.00  0.00    +0.000 A 
ATOM      9  C   UNL     1       0.997   9.717  20.987  0.00  0.00    +0.000 C 
ATOM     10  O   UNL     1       1.752  10.056  21.897  0.00  0.00    +0.000 OA
ATOM     11  N   UNL     1      -0.363  10.058  20.941  0.00  0.00    +0.000 N 
ATOM     12  C   UNL     1      -1.201  10.107  19.719  0.00  0.00    +0.000 C 
ATOM     13  C   UNL     1      -0.521   9.967  18.342  0.00  0.00    +0.000 C 
ATOM     14  C   UNL     1      -1.558  10.048  17.212  0.00  0.00    +0.000 C 
ENDROOT
BRANCH   6  15
ATOM     15  C   UNL     1       1.826   4.989  20.005  0.00  0.00    +0.000 A 
ATOM     16  C   UNL     1       1.387   4.013  19.092  0.00  0.00    +0.000 A 
ATOM     17  C   UNL     1       1.351   2.660  19.431  0.00  0.00    +0.000 A 
ATOM     18  C   UNL     1       1.736   2.254  20.703  0.00  0.00    +0.000 A 
ATOM     19  C   UNL     1       2.161   3.200  21.630  0.00  0.00    +0.000 A 
ATOM     20  C   UNL     1       2.209   4.553  21.284  0.00  0.00    +0.000 A 
ENDBRANCH   6  15
BRANCH  11  21
ATOM     21  C   UNL     1      -0.929  10.586  22.217  0.00  0.00    +0.000 C 
ATOM     22  C   UNL     1      -0.472   9.778  23.433  0.00  0.00    +0.000 C 
BRANCH  21  23
ATOM     23  C   UNL     1      -0.680  12.091  22.440  0.00  0.00    +0.000 C 
BRANCH  23  24
ATOM     24  O   UNL     1      -1.661  12.657  23.306  0.00  0.00    +0.000 OA
ATOM     25  H   UNL     1      -1.369  12.496  24.219  0.00  0.00    +0.000 HD
ENDBRANCH  23  24
ENDBRANCH  21  23
ENDBRANCH  11  21
BRANCH   1  26
ATOM     26  C   UNL     1       0.734  12.237  18.959  0.00  0.00    +0.000 C 
BRANCH  26  27
ATOM     27  N   UNL     1       2.037  12.910  19.253  0.00  0.00    +0.000 NA
ATOM     28  C   UNL     1       2.057  13.506  20.596  0.00  0.00    +0.000 C 
BRANCH  27  29
ATOM     29  C   UNL     1       2.229  13.975  18.230  0.00  0.00    +0.000 C 
BRANCH  29  31
ATOM     30  C   UNL     1       3.625  15.880  17.345  0.00  0.00    +0.000 C 
ATOM     31  C   UNL     1       3.357  14.969  18.535  0.00  0.00    +0.000 C 
ENDBRANCH  29  31
ENDBRANCH  27  29
ENDBRANCH  26  27
ENDBRANCH   1  26
TORSDOF 8
ENDMDL
MODEL 9
REMARK VINA RESULT:      -6.6      4.447      9.240
REMARK  Name = 
REMARK  12 active torsions:
REMARK  status: ('A' for Active; 'I' for Inactive)
REMARK    1  A    between atoms: C_1  and  C_2
REMARK    2  A    between atoms: C_2  and  C_3
REMARK    3  A    between atoms: C_3  and  N_4
REMARK    4  A    between atoms: N_4  and  C_5
REMARK    5  A    between atoms: N_4  and  C_6
REMARK    6  A    between atoms: C_6  and  C_7
REMARK    7  A    between atoms: C_12  and  C_13
REMARK    8  A    between atoms: N_23  and  C_24
REMARK    9  A    between atoms: C_24  and  C_25
REMARK   10  A    between atoms: C_24  and  C_26
REMARK   11  A    between atoms: C_26  and  O_27
REMARK   12  A    between atoms: C_29  and  C_30
REMARK                            x       y       z     vdW  Elec       q    Type
REMARK                         _______ _______ _______ _____ _____    ______ ____
ROOT
ATOM      1  C   UNL     1       0.233  12.496  18.340  0.00  0.00    +0.000 C 
ATOM      2  O   UNL     1       1.567  11.951  18.226  0.00  0.00    +0.000 OA
ATOM      3  C   UNL     1       1.763  10.652  18.560  0.00  0.00    +0.000 A 
ATOM      4  N   UNL     1       2.230   9.906  17.537  0.00  0.00    +0.000 NA
ATOM      5  C   UNL     1       2.315   8.562  17.732  0.00  0.00    +0.000 A 
ATOM      6  C   UNL     1       1.950   7.902  18.905  0.00  0.00    +0.000 A 
ATOM      7  C   UNL     1       1.510   8.723  19.947  0.00  0.00    +0.000 A 
ATOM      8  C   UNL     1       1.409  10.097  19.779  0.00  0.00    +0.000 A 
ATOM      9  C   UNL     1       0.923  10.843  20.934  0.00  0.00    +0.000 C 
ATOM     10  O   UNL     1       1.746  11.089  21.814  0.00  0.00    +0.000 OA
ATOM     11  N   UNL     1      -0.455  11.064  21.077  0.00  0.00    +0.000 N 
ATOM     12  C   UNL     1      -1.421  11.243  19.967  0.00  0.00    +0.000 C 
ATOM     13  C   UNL     1      -0.885  11.398  18.529  0.00  0.00    +0.000 C 
ATOM     14  C   UNL     1      -2.041  11.575  17.534  0.00  0.00    +0.000 C 
ENDROOT
BRANCH   6  15
ATOM     15  C   UNL     1       1.977   6.440  19.060  0.00  0.00    +0.000 A 
ATOM     16  C   UNL     1       1.804   5.845  20.323  0.00  0.00    +0.000 A 
ATOM     17  C   UNL     1       1.743   4.458  20.473  0.00  0.00    +0.000 A 
ATOM     18  C   UNL     1       1.875   3.634  19.363  0.00  0.00    +0.000 A 
ATOM     19  C   UNL     1       2.061   4.197  18.104  0.00  0.00    +0.000 A 
ATOM     20  C   UNL     1       2.109   5.585  17.953  0.00  0.00    +0.000 A 
ENDBRANCH   6  15
BRANCH  11  21
ATOM     21  C   UNL     1      -0.915  11.318  22.473  0.00  0.00    +0.000 C 
ATOM     22  C   UNL     1      -2.235  12.091  22.517  0.00  0.00    +0.000 C 
BRANCH  21  23
ATOM     23  C   UNL     1      -0.998  10.052  23.349  0.00  0.00    +0.000 C 
BRANCH  23  24
ATOM     24  O   UNL     1       0.273   9.723  23.905  0.00  0.00    +0.000 OA
ATOM     25  H   UNL     1       0.950   9.995  23.262  0.00  0.00    +0.000 HD
ENDBRANCH  23  24
ENDBRANCH  21  23
ENDBRANCH  11  21
BRANCH   1  26
ATOM     26  C   UNL     1       0.264  13.634  19.416  0.00  0.00    +0.000 C 
BRANCH  26  27
ATOM     27  N   UNL     1      -0.733  14.747  19.361  0.00  0.00    +0.000 NA
ATOM     28  C   UNL     1      -0.212  15.917  18.638  0.00  0.00    +0.000 C 
BRANCH  27  29
ATOM     29  C   UNL     1      -1.055  15.128  20.763  0.00  0.00    +0.000 C 
BRANCH  29  31
ATOM     30  C   UNL     1       0.368  16.105  22.603  0.00  0.00    +0.000 C 
ATOM     31  C   UNL     1       0.063  14.861  21.780  0.00  0.00    +0.000 C 
ENDBRANCH  29  31
ENDBRANCH  27  29
ENDBRANCH  26  27
ENDBRANCH   1  26
TORSDOF 8
ENDMDL
