MODEL 1
REMARK VINA RESULT:      -7.7      0.000      0.000
REMARK  Name = 
REMARK  9 active torsions:
REMARK  status: ('A' for Active; 'I' for Inactive)
REMARK    1  A    between atoms: C_1  and  C_2
REMARK    2  A    between atoms: C_2  and  N_3
REMARK    3  A    between atoms: C_2  and  C_16
REMARK    4  A    between atoms: C_4  and  C_6
REMARK    5  A    between atoms: C_6  and  C_7
REMARK    6  A    between atoms: C_7  and  C_8
REMARK    7  A    between atoms: C_8  and  C_9
REMARK    8  A    between atoms: C_9  and  C_10
REMARK    9  A    between atoms: C_22  and  C_23
REMARK                            x       y       z     vdW  Elec       q    Type
REMARK                         _______ _______ _______ _____ _____    ______ ____
ROOT
ATOM      1  C   UNL     1       5.095   3.671  16.423  0.00  0.00    +0.000 C 
ATOM      2  C   UNL     1       4.944   4.988  17.177  0.00  0.00    +0.000 C 
ENDROOT
BRANCH   2   3
ATOM      3  C   UNL     1       4.363   4.748  18.595  0.00  0.00    +0.000 C 
ATOM      4  O   UNL     1       4.959   4.022  19.404  0.00  0.00    +0.000 OA
ATOM      5  N   UNL     1       3.240   5.441  18.996  0.00  0.00    +0.000 N 
ATOM      6  C   UNL     1       2.405   6.339  18.214  0.00  0.00    +0.000 C 
ATOM      7  C   UNL     1       2.137   7.480  19.175  0.00  0.00    +0.000 C 
ATOM      8  C   UNL     1       1.994   6.783  20.524  0.00  0.00    +0.000 C 
ATOM      9  C   UNL     1       2.845   5.504  20.409  0.00  0.00    +0.000 C 
BRANCH   9  10
ATOM     10  C   UNL     1       2.084   4.285  20.806  0.00  0.00    +0.000 A 
ATOM     11  N   UNL     1       1.010   3.753  20.252  0.00  0.00    +0.000 NA
ATOM     12  N   UNL     1       0.670   2.676  21.030  0.00  0.00    +0.000 NA
ATOM     13  N   UNL     1       1.514   2.536  22.041  0.00  0.00    +0.000 NA
ATOM     14  N   UNL     1       2.398   3.535  21.902  0.00  0.00    +0.000 N 
ATOM     15  H   UNL     1       3.170   3.640  22.552  0.00  0.00    +0.000 HD
ENDBRANCH   9  10
ENDBRANCH   2   3
BRANCH   2  16
ATOM     16  N   UNL     1       6.241   5.652  17.321  0.00  0.00    +0.000 N 
ATOM     17  C   UNL     1       6.439   6.938  16.874  0.00  0.00    +0.000 C 
ATOM     18  O   UNL     1       5.542   7.622  16.384  0.00  0.00    +0.000 OA
ATOM     19  H   UNL     1       7.034   5.089  17.621  0.00  0.00    +0.000 HD
BRANCH  17  20
ATOM     20  C   UNL     1       7.856   7.452  17.006  0.00  0.00    +0.000 C 
BRANCH  20  21
ATOM     21  C   UNL     1       8.085   8.115  18.363  0.00  0.00    +0.000 C 
BRANCH  21  22
ATOM     22  C   UNL     1       8.425   9.607  18.261  0.00  0.00    +0.000 C 
BRANCH  22  23
ATOM     23  C   UNL     1       9.279  10.107  19.430  0.00  0.00    +0.000 C 
BRANCH  23  24
ATOM     24  C   UNL     1      10.283  11.145  18.998  0.00  0.00    +0.000 A 
ATOM     25  C   UNL     1      11.199  11.669  19.922  0.00  0.00    +0.000 A 
ATOM     26  C   UNL     1      12.126  12.634  19.528  0.00  0.00    +0.000 A 
ATOM     27  C   UNL     1      12.142  13.088  18.210  0.00  0.00    +0.000 A 
ATOM     28  C   UNL     1      11.231  12.578  17.286  0.00  0.00    +0.000 A 
ATOM     29  C   UNL     1      10.304  11.612  17.678  0.00  0.00    +0.000 A 
ENDBRANCH  23  24
ENDBRANCH  22  23
ENDBRANCH  21  22
ENDBRANCH  20  21
ENDBRANCH  17  20
ENDBRANCH   2  16
TORSDOF 8
ENDMDL
MODEL 2
REMARK VINA RESULT:      -7.6      4.074      7.578
REMARK  Name = 
REMARK  9 active torsions:
REMARK  status: ('A' for Active; 'I' for Inactive)
REMARK    1  A    between atoms: C_1  and  C_2
REMARK    2  A    between atoms: C_2  and  N_3
REMARK    3  A    between atoms: C_2  and  C_16
REMARK    4  A    between atoms: C_4  and  C_6
REMARK    5  A    between atoms: C_6  and  C_7
REMARK    6  A    between atoms: C_7  and  C_8
REMARK    7  A    between atoms: C_8  and  C_9
REMARK    8  A    between atoms: C_9  and  C_10
REMARK    9  A    between atoms: C_22  and  C_23
REMARK                            x       y       z     vdW  Elec       q    Type
REMARK                         _______ _______ _______ _____ _____    ______ ____
ROOT
ATOM      1  C   UNL     1       3.587   1.310  17.914  0.00  0.00    +0.000 C 
ATOM      2  C   UNL     1       4.029   2.632  18.533  0.00  0.00    +0.000 C 
ENDROOT
BRANCH   2   3
ATOM      3  C   UNL     1       4.377   3.667  17.431  0.00  0.00    +0.000 C 
ATOM      4  O   UNL     1       3.622   3.833  16.463  0.00  0.00    +0.000 OA
ATOM      5  N   UNL     1       5.473   4.489  17.593  0.00  0.00    +0.000 N 
ATOM      6  C   UNL     1       6.471   4.466  18.650  0.00  0.00    +0.000 C 
ATOM      7  C   UNL     1       6.670   5.936  18.964  0.00  0.00    +0.000 C 
ATOM      8  C   UNL     1       6.567   6.609  17.600  0.00  0.00    +0.000 C 
ATOM      9  C   UNL     1       5.659   5.686  16.763  0.00  0.00    +0.000 C 
BRANCH   9  10
ATOM     10  C   UNL     1       6.271   5.336  15.450  0.00  0.00    +0.000 A 
ATOM     11  N   UNL     1       5.748   4.679  14.432  0.00  0.00    +0.000 NA
ATOM     12  N   UNL     1       6.740   4.572  13.492  0.00  0.00    +0.000 NA
ATOM     13  N   UNL     1       7.855   5.153  13.911  0.00  0.00    +0.000 NA
ATOM     14  N   UNL     1       7.564   5.633  15.129  0.00  0.00    +0.000 N 
ATOM     15  H   UNL     1       8.257   6.146  15.664  0.00  0.00    +0.000 HD
ENDBRANCH   9  10
ENDBRANCH   2   3
BRANCH   2  16
ATOM     16  N   UNL     1       2.962   3.193  19.365  0.00  0.00    +0.000 N 
ATOM     17  C   UNL     1       2.867   2.891  20.704  0.00  0.00    +0.000 C 
ATOM     18  O   UNL     1       3.688   2.187  21.291  0.00  0.00    +0.000 OA
ATOM     19  H   UNL     1       2.206   3.690  18.900  0.00  0.00    +0.000 HD
BRANCH  17  20
ATOM     20  C   UNL     1       1.659   3.468  21.409  0.00  0.00    +0.000 C 
BRANCH  20  21
ATOM     21  C   UNL     1       1.047   4.619  20.613  0.00  0.00    +0.000 C 
BRANCH  21  22
ATOM     22  C   UNL     1       1.792   5.947  20.793  0.00  0.00    +0.000 C 
BRANCH  22  23
ATOM     23  C   UNL     1       2.354   6.501  19.481  0.00  0.00    +0.000 C 
BRANCH  23  24
ATOM     24  C   UNL     1       1.915   7.921  19.228  0.00  0.00    +0.000 A 
ATOM     25  C   UNL     1       2.395   8.621  18.112  0.00  0.00    +0.000 A 
ATOM     26  C   UNL     1       1.996   9.937  17.878  0.00  0.00    +0.000 A 
ATOM     27  C   UNL     1       1.118  10.566  18.759  0.00  0.00    +0.000 A 
ATOM     28  C   UNL     1       0.639   9.880  19.875  0.00  0.00    +0.000 A 
ATOM     29  C   UNL     1       1.037   8.564  20.110  0.00  0.00    +0.000 A 
ENDBRANCH  23  24
ENDBRANCH  22  23
ENDBRANCH  21  22
ENDBRANCH  20  21
ENDBRANCH  17  20
ENDBRANCH   2  16
TORSDOF 8
ENDMDL
MODEL 3
REMARK VINA RESULT:      -7.4      3.890      8.060
REMARK  Name = 
REMARK  9 active torsions:
REMARK  status: ('A' for Active; 'I' for Inactive)
REMARK    1  A    between atoms: C_1  and  C_2
REMARK    2  A    between atoms: C_2  and  N_3
REMARK    3  A    between atoms: C_2  and  C_16
REMARK    4  A    between atoms: C_4  and  C_6
REMARK    5  A    between atoms: C_6  and  C_7
REMARK    6  A    between atoms: C_7  and  C_8
REMARK    7  A    between atoms: C_8  and  C_9
REMARK    8  A    between atoms: C_9  and  C_10
REMARK    9  A    between atoms: C_22  and  C_23
REMARK                            x       y       z     vdW  Elec       q    Type
REMARK                         _______ _______ _______ _____ _____    ______ ____
ROOT
ATOM      1  C   UNL     1       3.621   2.932  18.433  0.00  0.00    +0.000 C 
ATOM      2  C   UNL     1       4.106   3.900  19.507  0.00  0.00    +0.000 C 
ENDROOT
BRANCH   2   3
ATOM      3  C   UNL     1       5.466   4.530  19.108  0.00  0.00    +0.000 C 
ATOM      4  O   UNL     1       6.364   4.673  19.951  0.00  0.00    +0.000 OA
ATOM      5  N   UNL     1       5.718   4.823  17.784  0.00  0.00    +0.000 N 
ATOM      6  C   UNL     1       4.815   4.721  16.650  0.00  0.00    +0.000 C 
ATOM      7  C   UNL     1       5.690   4.120  15.568  0.00  0.00    +0.000 C 
ATOM      8  C   UNL     1       7.047   4.775  15.804  0.00  0.00    +0.000 C 
ATOM      9  C   UNL     1       7.079   5.105  17.309  0.00  0.00    +0.000 C 
BRANCH   9  10
ATOM     10  C   UNL     1       7.449   6.526  17.565  0.00  0.00    +0.000 A 
ATOM     11  N   UNL     1       7.194   7.600  16.842  0.00  0.00    +0.000 NA
ATOM     12  N   UNL     1       7.802   8.649  17.482  0.00  0.00    +0.000 NA
ATOM     13  N   UNL     1       8.417   8.240  18.582  0.00  0.00    +0.000 NA
ATOM     14  N   UNL     1       8.195   6.918  18.639  0.00  0.00    +0.000 N 
ATOM     15  H   UNL     1       8.553   6.365  19.409  0.00  0.00    +0.000 HD
ENDBRANCH   9  10
ENDBRANCH   2   3
BRANCH   2  16
ATOM     16  N   UNL     1       3.140   4.984  19.699  0.00  0.00    +0.000 N 
ATOM     17  C   UNL     1       2.206   4.938  20.708  0.00  0.00    +0.000 C 
ATOM     18  O   UNL     1       2.158   4.028  21.535  0.00  0.00    +0.000 OA
ATOM     19  H   UNL     1       3.075   5.698  18.978  0.00  0.00    +0.000 HD
BRANCH  17  20
ATOM     20  C   UNL     1       1.215   6.082  20.719  0.00  0.00    +0.000 C 
BRANCH  20  21
ATOM     21  C   UNL     1       1.896   7.411  20.399  0.00  0.00    +0.000 C 
BRANCH  21  22
ATOM     22  C   UNL     1       1.454   8.557  21.316  0.00  0.00    +0.000 C 
BRANCH  22  23
ATOM     23  C   UNL     1      -0.052   8.825  21.256  0.00  0.00    +0.000 C 
BRANCH  23  24
ATOM     24  C   UNL     1      -0.371  10.143  20.598  0.00  0.00    +0.000 A 
ATOM     25  C   UNL     1      -0.725  10.188  19.242  0.00  0.00    +0.000 A 
ATOM     26  C   UNL     1      -1.015  11.407  18.627  0.00  0.00    +0.000 A 
ATOM     27  C   UNL     1      -0.949  12.590  19.361  0.00  0.00    +0.000 A 
ATOM     28  C   UNL     1      -0.592  12.556  20.708  0.00  0.00    +0.000 A 
ATOM     29  C   UNL     1      -0.303  11.338  21.325  0.00  0.00    +0.000 A 
ENDBRANCH  23  24
ENDBRANCH  22  23
ENDBRANCH  21  22
ENDBRANCH  20  21
ENDBRANCH  17  20
ENDBRANCH   2  16
TORSDOF 8
ENDMDL
MODEL 4
REMARK VINA RESULT:      -7.4      2.206      3.397
REMARK  Name = 
REMARK  9 active torsions:
REMARK  status: ('A' for Active; 'I' for Inactive)
REMARK    1  A    between atoms: C_1  and  C_2
REMARK    2  A    between atoms: C_2  and  N_3
REMARK    3  A    between atoms: C_2  and  C_16
REMARK    4  A    between atoms: C_4  and  C_6
REMARK    5  A    between atoms: C_6  and  C_7
REMARK    6  A    between atoms: C_7  and  C_8
REMARK    7  A    between atoms: C_8  and  C_9
REMARK    8  A    between atoms: C_9  and  C_10
REMARK    9  A    between atoms: C_22  and  C_23
REMARK                            x       y       z     vdW  Elec       q    Type
REMARK                         _______ _______ _______ _____ _____    ______ ____
ROOT
ATOM      1  C   UNL     1       8.510   5.148  20.287  0.00  0.00    +0.000 C 
ATOM      2  C   UNL     1       8.008   5.735  18.971  0.00  0.00    +0.000 C 
ENDROOT
BRANCH   2   3
ATOM      3  C   UNL     1       6.510   5.398  18.752  0.00  0.00    +0.000 C 
ATOM      4  O   UNL     1       5.651   5.810  19.545  0.00  0.00    +0.000 OA
ATOM      5  N   UNL     1       6.123   4.738  17.605  0.00  0.00    +0.000 N 
ATOM      6  C   UNL     1       6.960   4.185  16.554  0.00  0.00    +0.000 C 
ATOM      7  C   UNL     1       6.226   4.579  15.288  0.00  0.00    +0.000 C 
ATOM      8  C   UNL     1       4.757   4.444  15.671  0.00  0.00    +0.000 C 
ATOM      9  C   UNL     1       4.713   4.686  17.193  0.00  0.00    +0.000 C 
BRANCH   9  10
ATOM     10  C   UNL     1       3.986   3.604  17.914  0.00  0.00    +0.000 A 
ATOM     11  N   UNL     1       3.928   2.313  17.645  0.00  0.00    +0.000 NA
ATOM     12  N   UNL     1       3.080   1.764  18.574  0.00  0.00    +0.000 NA
ATOM     13  N   UNL     1       2.625   2.690  19.405  0.00  0.00    +0.000 NA
ATOM     14  N   UNL     1       3.191   3.836  18.999  0.00  0.00    +0.000 N 
ATOM     15  H   UNL     1       3.014   4.706  19.491  0.00  0.00    +0.000 HD
ENDBRANCH   9  10
ENDBRANCH   2   3
BRANCH   2  16
ATOM     16  N   UNL     1       8.154   7.192  18.968  0.00  0.00    +0.000 N 
ATOM     17  C   UNL     1       7.929   7.930  17.829  0.00  0.00    +0.000 C 
ATOM     18  O   UNL     1       7.543   7.431  16.773  0.00  0.00    +0.000 OA
ATOM     19  H   UNL     1       8.572   7.631  19.785  0.00  0.00    +0.000 HD
BRANCH  17  20
ATOM     20  C   UNL     1       8.213   9.411  17.957  0.00  0.00    +0.000 C 
BRANCH  20  21
ATOM     21  C   UNL     1       9.258   9.687  19.037  0.00  0.00    +0.000 C 
BRANCH  21  22
ATOM     22  C   UNL     1       9.302  11.154  19.480  0.00  0.00    +0.000 C 
BRANCH  22  23
ATOM     23  C   UNL     1       8.881  12.126  18.374  0.00  0.00    +0.000 C 
BRANCH  23  24
ATOM     24  C   UNL     1      10.032  12.969  17.888  0.00  0.00    +0.000 A 
ATOM     25  C   UNL     1      11.262  12.373  17.576  0.00  0.00    +0.000 A 
ATOM     26  C   UNL     1      12.332  13.151  17.131  0.00  0.00    +0.000 A 
ATOM     27  C   UNL     1      12.183  14.530  17.000  0.00  0.00    +0.000 A 
ATOM     28  C   UNL     1      10.965  15.133  17.312  0.00  0.00    +0.000 A 
ATOM     29  C   UNL     1       9.894  14.357  17.756  0.00  0.00    +0.000 A 
ENDBRANCH  23  24
ENDBRANCH  22  23
ENDBRANCH  21  22
ENDBRANCH  20  21
ENDBRANCH  17  20
ENDBRANCH   2  16
TORSDOF 8
ENDMDL
MODEL 5
REMARK VINA RESULT:      -7.3      1.477      1.835
REMARK  Name = 
REMARK  9 active torsions:
REMARK  status: ('A' for Active; 'I' for Inactive)
REMARK    1  A    between atoms: C_1  and  C_2
REMARK    2  A    between atoms: C_2  and  N_3
REMARK    3  A    between atoms: C_2  and  C_16
REMARK    4  A    between atoms: C_4  and  C_6
REMARK    5  A    between atoms: C_6  and  C_7
REMARK    6  A    between atoms: C_7  and  C_8
REMARK    7  A    between atoms: C_8  and  C_9
REMARK    8  A    between atoms: C_9  and  C_10
REMARK    9  A    between atoms: C_22  and  C_23
REMARK                            x       y       z     vdW  Elec       q    Type
REMARK                         _______ _______ _______ _____ _____    ______ ____
ROOT
ATOM      1  C   UNL     1       6.224   4.417  15.803  0.00  0.00    +0.000 C 
ATOM      2  C   UNL     1       5.391   5.446  16.561  0.00  0.00    +0.000 C 
ENDROOT
BRANCH   2   3
ATOM      3  C   UNL     1       4.628   4.780  17.736  0.00  0.00    +0.000 C 
ATOM      4  O   UNL     1       5.064   3.746  18.263  0.00  0.00    +0.000 OA
ATOM      5  N   UNL     1       3.524   5.408  18.272  0.00  0.00    +0.000 N 
ATOM      6  C   UNL     1       2.862   6.620  17.816  0.00  0.00    +0.000 C 
ATOM      7  C   UNL     1       2.573   7.359  19.107  0.00  0.00    +0.000 C 
ATOM      8  C   UNL     1       2.215   6.245  20.083  0.00  0.00    +0.000 C 
ATOM      9  C   UNL     1       2.969   5.002  19.571  0.00  0.00    +0.000 C 
BRANCH   9  10
ATOM     10  C   UNL     1       2.072   3.822  19.422  0.00  0.00    +0.000 A 
ATOM     11  N   UNL     1       0.764   3.740  19.581  0.00  0.00    +0.000 NA
ATOM     12  N   UNL     1       0.434   2.423  19.387  0.00  0.00    +0.000 NA
ATOM     13  N   UNL     1       1.509   1.702  19.107  0.00  0.00    +0.000 NA
ATOM     14  N   UNL     1       2.531   2.571  19.125  0.00  0.00    +0.000 N 
ATOM     15  H   UNL     1       3.476   2.265  18.921  0.00  0.00    +0.000 HD
ENDBRANCH   9  10
ENDBRANCH   2   3
BRANCH   2  16
ATOM     16  N   UNL     1       6.248   6.498  17.112  0.00  0.00    +0.000 N 
ATOM     17  C   UNL     1       7.451   6.200  17.708  0.00  0.00    +0.000 C 
ATOM     18  O   UNL     1       7.904   5.057  17.768  0.00  0.00    +0.000 OA
ATOM     19  H   UNL     1       5.866   7.439  17.179  0.00  0.00    +0.000 HD
BRANCH  17  20
ATOM     20  C   UNL     1       8.179   7.381  18.314  0.00  0.00    +0.000 C 
BRANCH  20  21
ATOM     21  C   UNL     1       7.732   8.696  17.678  0.00  0.00    +0.000 C 
BRANCH  21  22
ATOM     22  C   UNL     1       8.686   9.863  17.961  0.00  0.00    +0.000 C 
BRANCH  22  23
ATOM     23  C   UNL     1       9.147   9.918  19.420  0.00  0.00    +0.000 C 
BRANCH  23  24
ATOM     24  C   UNL     1       9.774  11.243  19.769  0.00  0.00    +0.000 A 
ATOM     25  C   UNL     1      10.672  11.855  18.884  0.00  0.00    +0.000 A 
ATOM     26  C   UNL     1      11.260  13.080  19.206  0.00  0.00    +0.000 A 
ATOM     27  C   UNL     1      10.959  13.698  20.418  0.00  0.00    +0.000 A 
ATOM     28  C   UNL     1      10.071  13.095  21.308  0.00  0.00    +0.000 A 
ATOM     29  C   UNL     1       9.482  11.872  20.987  0.00  0.00    +0.000 A 
ENDBRANCH  23  24
ENDBRANCH  22  23
ENDBRANCH  21  22
ENDBRANCH  20  21
ENDBRANCH  17  20
ENDBRANCH   2  16
TORSDOF 8
ENDMDL
MODEL 6
REMARK VINA RESULT:      -7.3      1.452      1.716
REMARK  Name = 
REMARK  9 active torsions:
REMARK  status: ('A' for Active; 'I' for Inactive)
REMARK    1  A    between atoms: C_1  and  C_2
REMARK    2  A    between atoms: C_2  and  N_3
REMARK    3  A    between atoms: C_2  and  C_16
REMARK    4  A    between atoms: C_4  and  C_6
REMARK    5  A    between atoms: C_6  and  C_7
REMARK    6  A    between atoms: C_7  and  C_8
REMARK    7  A    between atoms: C_8  and  C_9
REMARK    8  A    between atoms: C_9  and  C_10
REMARK    9  A    between atoms: C_22  and  C_23
REMARK                            x       y       z     vdW  Elec       q    Type
REMARK                         _______ _______ _______ _____ _____    ______ ____
ROOT
ATOM      1  C   UNL     1       7.863   4.321  17.921  0.00  0.00    +0.000 C 
ATOM      2  C   UNL     1       6.801   5.415  17.884  0.00  0.00    +0.000 C 
ENDROOT
BRANCH   2   3
ATOM      3  C   UNL     1       5.752   5.203  19.006  0.00  0.00    +0.000 C 
ATOM      4  O   UNL     1       6.107   4.846  20.139  0.00  0.00    +0.000 OA
ATOM      5  N   UNL     1       4.433   5.529  18.774  0.00  0.00    +0.000 N 
ATOM      6  C   UNL     1       3.816   5.971  17.533  0.00  0.00    +0.000 C 
ATOM      7  C   UNL     1       2.892   7.083  17.988  0.00  0.00    +0.000 C 
ATOM      8  C   UNL     1       2.365   6.583  19.329  0.00  0.00    +0.000 C 
ATOM      9  C   UNL     1       3.472   5.661  19.877  0.00  0.00    +0.000 C 
BRANCH   9  10
ATOM     10  C   UNL     1       2.942   4.329  20.286  0.00  0.00    +0.000 A 
ATOM     11  N   UNL     1       2.673   3.272  19.542  0.00  0.00    +0.000 NA
ATOM     12  N   UNL     1       2.154   2.327  20.390  0.00  0.00    +0.000 NA
ATOM     13  N   UNL     1       2.106   2.781  21.634  0.00  0.00    +0.000 NA
ATOM     14  N   UNL     1       2.601   4.027  21.573  0.00  0.00    +0.000 N 
ATOM     15  H   UNL     1       2.689   4.592  22.410  0.00  0.00    +0.000 HD
ENDBRANCH   9  10
ENDBRANCH   2   3
BRANCH   2  16
ATOM     16  N   UNL     1       7.413   6.732  18.073  0.00  0.00    +0.000 N 
ATOM     17  C   UNL     1       7.050   7.807  17.294  0.00  0.00    +0.000 C 
ATOM     18  O   UNL     1       6.165   7.747  16.442  0.00  0.00    +0.000 OA
ATOM     19  H   UNL     1       8.219   6.800  18.690  0.00  0.00    +0.000 HD
BRANCH  17  20
ATOM     20  C   UNL     1       7.836   9.076  17.543  0.00  0.00    +0.000 C 
BRANCH  20  21
ATOM     21  C   UNL     1       8.728   8.945  18.777  0.00  0.00    +0.000 C 
BRANCH  21  22
ATOM     22  C   UNL     1       9.479  10.237  19.123  0.00  0.00    +0.000 C 
BRANCH  22  23
ATOM     23  C   UNL     1       8.836  11.485  18.513  0.00  0.00    +0.000 C 
BRANCH  23  24
ATOM     24  C   UNL     1       9.863  12.486  18.048  0.00  0.00    +0.000 A 
ATOM     25  C   UNL     1       9.565  13.856  18.048  0.00  0.00    +0.000 A 
ATOM     26  C   UNL     1      10.511  14.785  17.613  0.00  0.00    +0.000 A 
ATOM     27  C   UNL     1      11.759  14.352  17.170  0.00  0.00    +0.000 A 
ATOM     28  C   UNL     1      12.064  12.992  17.162  0.00  0.00    +0.000 A 
ATOM     29  C   UNL     1      11.119  12.061  17.597  0.00  0.00    +0.000 A 
ENDBRANCH  23  24
ENDBRANCH  22  23
ENDBRANCH  21  22
ENDBRANCH  20  21
ENDBRANCH  17  20
ENDBRANCH   2  16
TORSDOF 8
ENDMDL
MODEL 7
REMARK VINA RESULT:      -7.3      4.525      9.087
REMARK  Name = 
REMARK  9 active torsions:
REMARK  status: ('A' for Active; 'I' for Inactive)
REMARK    1  A    between atoms: C_1  and  C_2
REMARK    2  A    between atoms: C_2  and  N_3
REMARK    3  A    between atoms: C_2  and  C_16
REMARK    4  A    between atoms: C_4  and  C_6
REMARK    5  A    between atoms: C_6  and  C_7
REMARK    6  A    between atoms: C_7  and  C_8
REMARK    7  A    between atoms: C_8  and  C_9
REMARK    8  A    between atoms: C_9  and  C_10
REMARK    9  A    between atoms: C_22  and  C_23
REMARK                            x       y       z     vdW  Elec       q    Type
REMARK                         _______ _______ _______ _____ _____    ______ ____
ROOT
ATOM      1  C   UNL     1       1.831   5.476  17.950  0.00  0.00    +0.000 C 
ATOM      2  C   UNL     1       2.945   6.337  18.538  0.00  0.00    +0.000 C 
ENDROOT
BRANCH   2   3
ATOM      3  C   UNL     1       4.152   6.415  17.567  0.00  0.00    +0.000 C 
ATOM      4  O   UNL     1       4.091   7.112  16.544  0.00  0.00    +0.000 OA
ATOM      5  N   UNL     1       5.338   5.800  17.907  0.00  0.00    +0.000 N 
ATOM      6  C   UNL     1       5.621   4.953  19.054  0.00  0.00    +0.000 C 
ATOM      7  C   UNL     1       6.985   5.434  19.507  0.00  0.00    +0.000 C 
ATOM      8  C   UNL     1       7.705   5.744  18.200  0.00  0.00    +0.000 C 
ATOM      9  C   UNL     1       6.589   6.110  17.202  0.00  0.00    +0.000 C 
BRANCH   9  10
ATOM     10  C   UNL     1       6.693   5.334  15.934  0.00  0.00    +0.000 A 
ATOM     11  N   UNL     1       7.535   5.485  14.928  0.00  0.00    +0.000 NA
ATOM     12  N   UNL     1       7.174   4.559  13.982  0.00  0.00    +0.000 NA
ATOM     13  N   UNL     1       6.136   3.845  14.391  0.00  0.00    +0.000 NA
ATOM     14  N   UNL     1       5.836   4.323  15.608  0.00  0.00    +0.000 N 
ATOM     15  H   UNL     1       5.077   3.925  16.149  0.00  0.00    +0.000 HD
ENDBRANCH   9  10
ENDBRANCH   2   3
BRANCH   2  16
ATOM     16  N   UNL     1       2.467   7.699  18.784  0.00  0.00    +0.000 N 
ATOM     17  C   UNL     1       1.861   8.040  19.971  0.00  0.00    +0.000 C 
ATOM     18  O   UNL     1       1.732   7.253  20.908  0.00  0.00    +0.000 OA
ATOM     19  H   UNL     1       2.457   8.349  18.002  0.00  0.00    +0.000 HD
BRANCH  17  20
ATOM     20  C   UNL     1       1.335   9.458  20.040  0.00  0.00    +0.000 C 
BRANCH  20  21
ATOM     21  C   UNL     1      -0.001   9.521  20.778  0.00  0.00    +0.000 C 
BRANCH  21  22
ATOM     22  C   UNL     1      -1.095  10.254  19.992  0.00  0.00    +0.000 C 
BRANCH  22  23
ATOM     23  C   UNL     1      -0.895  10.178  18.475  0.00  0.00    +0.000 C 
BRANCH  23  24
ATOM     24  C   UNL     1      -2.142  10.555  17.717  0.00  0.00    +0.000 A 
ATOM     25  C   UNL     1      -3.149  11.304  18.341  0.00  0.00    +0.000 A 
ATOM     26  C   UNL     1      -4.308  11.650  17.644  0.00  0.00    +0.000 A 
ATOM     27  C   UNL     1      -4.471  11.245  16.320  0.00  0.00    +0.000 A 
ATOM     28  C   UNL     1      -3.477  10.495  15.693  0.00  0.00    +0.000 A 
ATOM     29  C   UNL     1      -2.318  10.150  16.388  0.00  0.00    +0.000 A 
ENDBRANCH  23  24
ENDBRANCH  22  23
ENDBRANCH  21  22
ENDBRANCH  20  21
ENDBRANCH  17  20
ENDBRANCH   2  16
TORSDOF 8
ENDMDL
MODEL 8
REMARK VINA RESULT:      -7.3      3.845      8.318
REMARK  Name = 
REMARK  9 active torsions:
REMARK  status: ('A' for Active; 'I' for Inactive)
REMARK    1  A    between atoms: C_1  and  C_2
REMARK    2  A    between atoms: C_2  and  N_3
REMARK    3  A    between atoms: C_2  and  C_16
REMARK    4  A    between atoms: C_4  and  C_6
REMARK    5  A    between atoms: C_6  and  C_7
REMARK    6  A    between atoms: C_7  and  C_8
REMARK    7  A    between atoms: C_8  and  C_9
REMARK    8  A    between atoms: C_9  and  C_10
REMARK    9  A    between atoms: C_22  and  C_23
REMARK                            x       y       z     vdW  Elec       q    Type
REMARK                         _______ _______ _______ _____ _____    ______ ____
ROOT
ATOM      1  C   UNL     1       3.514   3.197  18.688  0.00  0.00    +0.000 C 
ATOM      2  C   UNL     1       4.084   4.194  19.692  0.00  0.00    +0.000 C 
ENDROOT
BRANCH   2   3
ATOM      3  C   UNL     1       5.450   4.746  19.207  0.00  0.00    +0.000 C 
ATOM      4  O   UNL     1       6.434   4.740  19.960  0.00  0.00    +0.000 OA
ATOM      5  N   UNL     1       5.597   5.133  17.891  0.00  0.00    +0.000 N 
ATOM      6  C   UNL     1       4.584   5.206  16.852  0.00  0.00    +0.000 C 
ATOM      7  C   UNL     1       5.294   4.635  15.640  0.00  0.00    +0.000 C 
ATOM      8  C   UNL     1       6.720   5.155  15.786  0.00  0.00    +0.000 C 
ATOM      9  C   UNL     1       6.926   5.347  17.302  0.00  0.00    +0.000 C 
BRANCH   9  10
ATOM     10  C   UNL     1       7.444   6.704  17.631  0.00  0.00    +0.000 A 
ATOM     11  N   UNL     1       7.334   7.829  16.950  0.00  0.00    +0.000 NA
ATOM     12  N   UNL     1       8.034   8.776  17.654  0.00  0.00    +0.000 NA
ATOM     13  N   UNL     1       8.563   8.255  18.751  0.00  0.00    +0.000 NA
ATOM     14  N   UNL     1       8.194   6.966  18.741  0.00  0.00    +0.000 N 
ATOM     15  H   UNL     1       8.462   6.343  19.496  0.00  0.00    +0.000 HD
ENDBRANCH   9  10
ENDBRANCH   2   3
BRANCH   2  16
ATOM     16  N   UNL     1       3.172   5.325  19.871  0.00  0.00    +0.000 N 
ATOM     17  C   UNL     1       2.025   5.207  20.622  0.00  0.00    +0.000 C 
ATOM     18  O   UNL     1       1.725   4.179  21.228  0.00  0.00    +0.000 OA
ATOM     19  H   UNL     1       3.325   6.156  19.304  0.00  0.00    +0.000 HD
BRANCH  17  20
ATOM     20  C   UNL     1       1.136   6.431  20.634  0.00  0.00    +0.000 C 
BRANCH  20  21
ATOM     21  C   UNL     1       1.954   7.715  20.497  0.00  0.00    +0.000 C 
BRANCH  21  22
ATOM     22  C   UNL     1       1.091   8.981  20.431  0.00  0.00    +0.000 C 
BRANCH  22  23
ATOM     23  C   UNL     1       0.896   9.498  19.003  0.00  0.00    +0.000 C 
BRANCH  23  24
ATOM     24  C   UNL     1      -0.405  10.242  18.839  0.00  0.00    +0.000 A 
ATOM     25  C   UNL     1      -1.218  10.005  17.721  0.00  0.00    +0.000 A 
ATOM     26  C   UNL     1      -2.420  10.696  17.563  0.00  0.00    +0.000 A 
ATOM     27  C   UNL     1      -2.817  11.630  18.517  0.00  0.00    +0.000 A 
ATOM     28  C   UNL     1      -2.014  11.876  19.630  0.00  0.00    +0.000 A 
ATOM     29  C   UNL     1      -0.812  11.187  19.790  0.00  0.00    +0.000 A 
ENDBRANCH  23  24
ENDBRANCH  22  23
ENDBRANCH  21  22
ENDBRANCH  20  21
ENDBRANCH  17  20
ENDBRANCH   2  16
TORSDOF 8
ENDMDL
MODEL 9
REMARK VINA RESULT:      -7.2      2.682      3.954
REMARK  Name = 
REMARK  9 active torsions:
REMARK  status: ('A' for Active; 'I' for Inactive)
REMARK    1  A    between atoms: C_1  and  C_2
REMARK    2  A    between atoms: C_2  and  N_3
REMARK    3  A    between atoms: C_2  and  C_16
REMARK    4  A    between atoms: C_4  and  C_6
REMARK    5  A    between atoms: C_6  and  C_7
REMARK    6  A    between atoms: C_7  and  C_8
REMARK    7  A    between atoms: C_8  and  C_9
REMARK    8  A    between atoms: C_9  and  C_10
REMARK    9  A    between atoms: C_22  and  C_23
REMARK                            x       y       z     vdW  Elec       q    Type
REMARK                         _______ _______ _______ _____ _____    ______ ____
ROOT
ATOM      1  C   UNL     1       8.188   5.152  20.119  0.00  0.00    +0.000 C 
ATOM      2  C   UNL     1       7.854   5.788  18.773  0.00  0.00    +0.000 C 
ENDROOT
BRANCH   2   3
ATOM      3  C   UNL     1       6.394   5.466  18.359  0.00  0.00    +0.000 C 
ATOM      4  O   UNL     1       5.443   5.871  19.042  0.00  0.00    +0.000 OA
ATOM      5  N   UNL     1       6.154   4.828  17.160  0.00  0.00    +0.000 N 
ATOM      6  C   UNL     1       7.116   4.286  16.215  0.00  0.00    +0.000 C 
ATOM      7  C   UNL     1       6.552   4.707  14.873  0.00  0.00    +0.000 C 
ATOM      8  C   UNL     1       5.045   4.575  15.063  0.00  0.00    +0.000 C 
ATOM      9  C   UNL     1       4.809   4.793  16.570  0.00  0.00    +0.000 C 
BRANCH   9  10
ATOM     10  C   UNL     1       3.989   3.704  17.173  0.00  0.00    +0.000 A 
ATOM     11  N   UNL     1       4.375   2.539  17.660  0.00  0.00    +0.000 NA
ATOM     12  N   UNL     1       3.231   1.883  18.039  0.00  0.00    +0.000 NA
ATOM     13  N   UNL     1       2.159   2.623  17.798  0.00  0.00    +0.000 NA
ATOM     14  N   UNL     1       2.628   3.759  17.263  0.00  0.00    +0.000 N 
ATOM     15  H   UNL     1       1.997   4.510  17.003  0.00  0.00    +0.000 HD
ENDBRANCH   9  10
ENDBRANCH   2   3
BRANCH   2  16
ATOM     16  N   UNL     1       7.999   7.244  18.841  0.00  0.00    +0.000 N 
ATOM     17  C   UNL     1       8.010   8.015  17.702  0.00  0.00    +0.000 C 
ATOM     18  O   UNL     1       7.847   7.547  16.576  0.00  0.00    +0.000 OA
ATOM     19  H   UNL     1       8.242   7.658  19.738  0.00  0.00    +0.000 HD
BRANCH  17  20
ATOM     20  C   UNL     1       8.263   9.490  17.926  0.00  0.00    +0.000 C 
BRANCH  20  21
ATOM     21  C   UNL     1       9.267   9.717  19.055  0.00  0.00    +0.000 C 
BRANCH  21  22
ATOM     22  C   UNL     1       9.702  11.181  19.197  0.00  0.00    +0.000 C 
BRANCH  22  23
ATOM     23  C   UNL     1       9.879  11.885  17.849  0.00  0.00    +0.000 C 
BRANCH  23  24
ATOM     24  C   UNL     1       9.197  13.229  17.815  0.00  0.00    +0.000 A 
ATOM     25  C   UNL     1       9.947  14.406  17.950  0.00  0.00    +0.000 A 
ATOM     26  C   UNL     1       9.318  15.651  17.924  0.00  0.00    +0.000 A 
ATOM     27  C   UNL     1       7.935  15.730  17.769  0.00  0.00    +0.000 A 
ATOM     28  C   UNL     1       7.180  14.565  17.639  0.00  0.00    +0.000 A 
ATOM     29  C   UNL     1       7.807  13.319  17.663  0.00  0.00    +0.000 A 
ENDBRANCH  23  24
ENDBRANCH  22  23
ENDBRANCH  21  22
ENDBRANCH  20  21
ENDBRANCH  17  20
ENDBRANCH   2  16
TORSDOF 8
ENDMDL
