MODEL 1
REMARK VINA RESULT:      -7.5      0.000      0.000
REMARK  Name = 
REMARK  8 active torsions:
REMARK  status: ('A' for Active; 'I' for Inactive)
REMARK    1  A    between atoms: C_1  and  O_2
REMARK    2  A    between atoms: O_2  and  C_3
REMARK    3  A    between atoms: N_12  and  C_13
REMARK    4  A    between atoms: C_13  and  C_14
REMARK    5  A    between atoms: C_15  and  C_16
REMARK    6  A    between atoms: C_16  and  P_17
REMARK    7  A    between atoms: P_17  and  O_19
REMARK    8  A    between atoms: P_17  and  O_20
REMARK                            x       y       z     vdW  Elec       q    Type
REMARK                         _______ _______ _______ _____ _____    ______ ____
ROOT
ATOM      1  C   UNL     1       2.966   7.602  17.794  0.00  0.00    +0.000 A 
ATOM      2  C   UNL     1       2.263   6.708  18.602  0.00  0.00    +0.000 A 
ATOM      3  C   UNL     1       2.868   5.528  19.017  0.00  0.00    +0.000 A 
ATOM      4  C   UNL     1       4.184   5.251  18.648  0.00  0.00    +0.000 A 
ATOM      5  C   UNL     1       4.814   4.002  19.104  0.00  0.00    +0.000 A 
ATOM      6  O   UNL     1       4.211   3.192  19.798  0.00  0.00    +0.000 OA
ATOM      7  N   UNL     1       6.109   3.809  18.723  0.00  0.00    +0.000 N 
ATOM      8  C   UNL     1       6.910   4.701  18.066  0.00  0.00    +0.000 A 
ATOM      9  O   UNL     1       8.100   4.440  17.933  0.00  0.00    +0.000 OA
ATOM     10  N   UNL     1       6.307   5.865  17.605  0.00  0.00    +0.000 N 
ATOM     11  C   UNL     1       4.934   6.150  17.873  0.00  0.00    +0.000 A 
ATOM     12  C   UNL     1       4.288   7.311  17.423  0.00  0.00    +0.000 A 
ATOM     13  H   UNL     1       6.561   2.977  19.064  0.00  0.00    +0.000 HD
ENDROOT
BRANCH   1  15
ATOM     14  C   UNL     1       1.400   9.366  18.038  0.00  0.00    +0.000 C 
ATOM     15  O   UNL     1       2.482   8.790  17.316  0.00  0.00    +0.000 OA
ENDBRANCH   1  15
BRANCH  10  16
ATOM     16  C   UNL     1       7.166   6.839  16.939  0.00  0.00    +0.000 C 
BRANCH  16  17
ATOM     17  C   UNL     1       7.856   7.789  17.885  0.00  0.00    +0.000 C 
ATOM     18  C   UNL     1       8.137   9.091  17.710  0.00  0.00    +0.000 C 
BRANCH  18  19
ATOM     19  C   UNL     1       8.893   9.926  18.711  0.00  0.00    +0.000 C 
BRANCH  19  20
ATOM     20  P   UNL     1       9.157  11.612  18.050  0.00  0.00    +0.000 P 
ATOM     21  O   UNL     1       9.395  12.166  19.457  0.00  0.00    +0.000 OA
BRANCH  20  22
ATOM     22  O   UNL     1      10.649  11.187  17.515  0.00  0.00    +0.000 OA
ATOM     23  H   UNL     1      10.668  10.260  17.213  0.00  0.00    +0.000 HD
ENDBRANCH  20  22
BRANCH  20  24
ATOM     24  O   UNL     1       9.405  13.205  17.425  0.00  0.00    +0.000 OA
ATOM     25  H   UNL     1       9.217  13.794  18.185  0.00  0.00    +0.000 HD
ENDBRANCH  20  24
ENDBRANCH  19  20
ENDBRANCH  18  19
ENDBRANCH  16  17
ENDBRANCH  10  16
TORSDOF 7
ENDMDL
MODEL 2
REMARK VINA RESULT:      -7.2      3.832      4.804
REMARK  Name = 
REMARK  8 active torsions:
REMARK  status: ('A' for Active; 'I' for Inactive)
REMARK    1  A    between atoms: C_1  and  O_2
REMARK    2  A    between atoms: O_2  and  C_3
REMARK    3  A    between atoms: N_12  and  C_13
REMARK    4  A    between atoms: C_13  and  C_14
REMARK    5  A    between atoms: C_15  and  C_16
REMARK    6  A    between atoms: C_16  and  P_17
REMARK    7  A    between atoms: P_17  and  O_19
REMARK    8  A    between atoms: P_17  and  O_20
REMARK                            x       y       z     vdW  Elec       q    Type
REMARK                         _______ _______ _______ _____ _____    ______ ____
ROOT
ATOM      1  C   UNL     1       2.222   7.251  19.059  0.00  0.00    +0.000 A 
ATOM      2  C   UNL     1       1.797   7.111  20.380  0.00  0.00    +0.000 A 
ATOM      3  C   UNL     1       1.584   5.844  20.909  0.00  0.00    +0.000 A 
ATOM      4  C   UNL     1       1.820   4.713  20.126  0.00  0.00    +0.000 A 
ATOM      5  C   UNL     1       1.599   3.378  20.703  0.00  0.00    +0.000 A 
ATOM      6  O   UNL     1       1.208   3.230  21.854  0.00  0.00    +0.000 OA
ATOM      7  N   UNL     1       1.871   2.320  19.888  0.00  0.00    +0.000 N 
ATOM      8  C   UNL     1       2.432   2.370  18.642  0.00  0.00    +0.000 A 
ATOM      9  O   UNL     1       2.759   1.321  18.098  0.00  0.00    +0.000 OA
ATOM     10  N   UNL     1       2.609   3.629  18.083  0.00  0.00    +0.000 N 
ATOM     11  C   UNL     1       2.290   4.818  18.807  0.00  0.00    +0.000 A 
ATOM     12  C   UNL     1       2.450   6.107  18.279  0.00  0.00    +0.000 A 
ATOM     13  H   UNL     1       1.762   1.402  20.286  0.00  0.00    +0.000 HD
ENDROOT
BRANCH   1  15
ATOM     14  C   UNL     1       1.322   9.248  18.149  0.00  0.00    +0.000 C 
ATOM     15  O   UNL     1       2.461   8.440  18.423  0.00  0.00    +0.000 OA
ENDBRANCH   1  15
BRANCH  10  16
ATOM     16  C   UNL     1       3.245   3.691  16.771  0.00  0.00    +0.000 C 
BRANCH  16  17
ATOM     17  C   UNL     1       4.690   4.122  16.815  0.00  0.00    +0.000 C 
ATOM     18  C   UNL     1       5.606   4.084  15.834  0.00  0.00    +0.000 C 
BRANCH  18  19
ATOM     19  C   UNL     1       7.047   4.488  16.019  0.00  0.00    +0.000 C 
BRANCH  19  20
ATOM     20  P   UNL     1       7.354   4.937  17.765  0.00  0.00    +0.000 P 
ATOM     21  O   UNL     1       8.619   4.076  17.803  0.00  0.00    +0.000 OA
BRANCH  20  22
ATOM     22  O   UNL     1       7.880   6.423  17.308  0.00  0.00    +0.000 OA
ATOM     23  H   UNL     1       8.810   6.397  17.017  0.00  0.00    +0.000 HD
ENDBRANCH  20  22
BRANCH  20  24
ATOM     24  O   UNL     1       7.643   5.363  19.417  0.00  0.00    +0.000 OA
ATOM     25  H   UNL     1       8.619   5.416  19.484  0.00  0.00    +0.000 HD
ENDBRANCH  20  24
ENDBRANCH  19  20
ENDBRANCH  18  19
ENDBRANCH  16  17
ENDBRANCH  10  16
TORSDOF 7
ENDMDL
MODEL 3
REMARK VINA RESULT:      -7.1      3.673      4.530
REMARK  Name = 
REMARK  8 active torsions:
REMARK  status: ('A' for Active; 'I' for Inactive)
REMARK    1  A    between atoms: C_1  and  O_2
REMARK    2  A    between atoms: O_2  and  C_3
REMARK    3  A    between atoms: N_12  and  C_13
REMARK    4  A    between atoms: C_13  and  C_14
REMARK    5  A    between atoms: C_15  and  C_16
REMARK    6  A    between atoms: C_16  and  P_17
REMARK    7  A    between atoms: P_17  and  O_19
REMARK    8  A    between atoms: P_17  and  O_20
REMARK                            x       y       z     vdW  Elec       q    Type
REMARK                         _______ _______ _______ _____ _____    ______ ____
ROOT
ATOM      1  C   UNL     1       2.160   7.226  18.990  0.00  0.00    +0.000 A 
ATOM      2  C   UNL     1       1.818   7.113  20.338  0.00  0.00    +0.000 A 
ATOM      3  C   UNL     1       1.790   5.862  20.942  0.00  0.00    +0.000 A 
ATOM      4  C   UNL     1       2.128   4.725  20.209  0.00  0.00    +0.000 A 
ATOM      5  C   UNL     1       2.103   3.409  20.865  0.00  0.00    +0.000 A 
ATOM      6  O   UNL     1       1.787   3.282  22.042  0.00  0.00    +0.000 OA
ATOM      7  N   UNL     1       2.466   2.346  20.092  0.00  0.00    +0.000 N 
ATOM      8  C   UNL     1       2.957   2.391  18.817  0.00  0.00    +0.000 A 
ATOM      9  O   UNL     1       3.387   1.360  18.312  0.00  0.00    +0.000 OA
ATOM     10  N   UNL     1       2.949   3.628  18.185  0.00  0.00    +0.000 N 
ATOM     11  C   UNL     1       2.519   4.809  18.863  0.00  0.00    +0.000 A 
ATOM     12  C   UNL     1       2.492   6.076  18.260  0.00  0.00    +0.000 A 
ATOM     13  H   UNL     1       2.491   1.447  20.543  0.00  0.00    +0.000 HD
ENDROOT
BRANCH   1  15
ATOM     14  C   UNL     1       1.334   9.431  18.697  0.00  0.00    +0.000 C 
ATOM     15  O   UNL     1       2.218   8.396  18.281  0.00  0.00    +0.000 OA
ENDBRANCH   1  15
BRANCH  10  16
ATOM     16  C   UNL     1       3.511   3.691  16.839  0.00  0.00    +0.000 C 
BRANCH  16  17
ATOM     17  C   UNL     1       4.944   4.158  16.799  0.00  0.00    +0.000 C 
ATOM     18  C   UNL     1       5.421   5.408  16.912  0.00  0.00    +0.000 C 
BRANCH  18  19
ATOM     19  C   UNL     1       6.882   5.761  16.792  0.00  0.00    +0.000 C 
BRANCH  19  20
ATOM     20  P   UNL     1       7.699   5.614  18.422  0.00  0.00    +0.000 P 
ATOM     21  O   UNL     1       6.347   5.514  19.133  0.00  0.00    +0.000 OA
BRANCH  20  22
ATOM     22  O   UNL     1       8.110   4.059  18.095  0.00  0.00    +0.000 OA
ATOM     23  H   UNL     1       8.394   3.954  17.168  0.00  0.00    +0.000 HD
ENDBRANCH  20  22
BRANCH  20  24
ATOM     24  O   UNL     1       8.473   5.476  19.964  0.00  0.00    +0.000 OA
ATOM     25  H   UNL     1       8.408   4.523  20.180  0.00  0.00    +0.000 HD
ENDBRANCH  20  24
ENDBRANCH  19  20
ENDBRANCH  18  19
ENDBRANCH  16  17
ENDBRANCH  10  16
TORSDOF 7
ENDMDL
MODEL 4
REMARK VINA RESULT:      -7.1      3.078      4.015
REMARK  Name = 
REMARK  8 active torsions:
REMARK  status: ('A' for Active; 'I' for Inactive)
REMARK    1  A    between atoms: C_1  and  O_2
REMARK    2  A    between atoms: O_2  and  C_3
REMARK    3  A    between atoms: N_12  and  C_13
REMARK    4  A    between atoms: C_13  and  C_14
REMARK    5  A    between atoms: C_15  and  C_16
REMARK    6  A    between atoms: C_16  and  P_17
REMARK    7  A    between atoms: P_17  and  O_19
REMARK    8  A    between atoms: P_17  and  O_20
REMARK                            x       y       z     vdW  Elec       q    Type
REMARK                         _______ _______ _______ _____ _____    ______ ____
ROOT
ATOM      1  C   UNL     1       2.293   7.203  18.810  0.00  0.00    +0.000 A 
ATOM      2  C   UNL     1       1.951   7.156  20.162  0.00  0.00    +0.000 A 
ATOM      3  C   UNL     1       1.942   5.938  20.831  0.00  0.00    +0.000 A 
ATOM      4  C   UNL     1       2.300   4.769  20.159  0.00  0.00    +0.000 A 
ATOM      5  C   UNL     1       2.294   3.489  20.885  0.00  0.00    +0.000 A 
ATOM      6  O   UNL     1       1.978   3.420  22.066  0.00  0.00    +0.000 OA
ATOM      7  N   UNL     1       2.676   2.393  20.170  0.00  0.00    +0.000 N 
ATOM      8  C   UNL     1       3.168   2.379  18.894  0.00  0.00    +0.000 A 
ATOM      9  O   UNL     1       3.615   1.330  18.445  0.00  0.00    +0.000 OA
ATOM     10  N   UNL     1       3.142   3.580  18.197  0.00  0.00    +0.000 N 
ATOM     11  C   UNL     1       2.691   4.788  18.811  0.00  0.00    +0.000 A 
ATOM     12  C   UNL     1       2.645   6.020  18.142  0.00  0.00    +0.000 A 
ATOM     13  H   UNL     1       2.715   1.520  20.668  0.00  0.00    +0.000 HD
ENDROOT
BRANCH   1  15
ATOM     14  C   UNL     1       1.458   9.389  18.421  0.00  0.00    +0.000 C 
ATOM     15  O   UNL     1       2.334   8.334  18.040  0.00  0.00    +0.000 OA
ENDBRANCH   1  15
BRANCH  10  16
ATOM     16  C   UNL     1       3.704   3.580  16.850  0.00  0.00    +0.000 C 
BRANCH  16  17
ATOM     17  C   UNL     1       5.159   3.974  16.799  0.00  0.00    +0.000 C 
ATOM     18  C   UNL     1       5.934   4.449  17.788  0.00  0.00    +0.000 C 
BRANCH  18  19
ATOM     19  C   UNL     1       7.369   4.870  17.599  0.00  0.00    +0.000 C 
BRANCH  19  20
ATOM     20  P   UNL     1       7.476   6.693  17.475  0.00  0.00    +0.000 P 
ATOM     21  O   UNL     1       5.990   6.840  17.811  0.00  0.00    +0.000 OA
BRANCH  20  22
ATOM     22  O   UNL     1       8.236   6.763  18.928  0.00  0.00    +0.000 OA
ATOM     23  H   UNL     1       9.017   7.347  18.893  0.00  0.00    +0.000 HD
ENDBRANCH  20  22
BRANCH  20  24
ATOM     24  O   UNL     1       7.579   8.416  17.358  0.00  0.00    +0.000 OA
ATOM     25  H   UNL     1       6.826   8.738  17.896  0.00  0.00    +0.000 HD
ENDBRANCH  20  24
ENDBRANCH  19  20
ENDBRANCH  18  19
ENDBRANCH  16  17
ENDBRANCH  10  16
TORSDOF 7
ENDMDL
MODEL 5
REMARK VINA RESULT:      -6.6      4.635      6.613
REMARK  Name = 
REMARK  8 active torsions:
REMARK  status: ('A' for Active; 'I' for Inactive)
REMARK    1  A    between atoms: C_1  and  O_2
REMARK    2  A    between atoms: O_2  and  C_3
REMARK    3  A    between atoms: N_12  and  C_13
REMARK    4  A    between atoms: C_13  and  C_14
REMARK    5  A    between atoms: C_15  and  C_16
REMARK    6  A    between atoms: C_16  and  P_17
REMARK    7  A    between atoms: P_17  and  O_19
REMARK    8  A    between atoms: P_17  and  O_20
REMARK                            x       y       z     vdW  Elec       q    Type
REMARK                         _______ _______ _______ _____ _____    ______ ____
ROOT
ATOM      1  C   UNL     1       5.176   5.423  16.141  0.00  0.00    +0.000 A 
ATOM      2  C   UNL     1       5.188   4.129  16.664  0.00  0.00    +0.000 A 
ATOM      3  C   UNL     1       4.544   3.863  17.866  0.00  0.00    +0.000 A 
ATOM      4  C   UNL     1       3.867   4.881  18.536  0.00  0.00    +0.000 A 
ATOM      5  C   UNL     1       3.182   4.581  19.803  0.00  0.00    +0.000 A 
ATOM      6  O   UNL     1       3.195   3.458  20.291  0.00  0.00    +0.000 OA
ATOM      7  N   UNL     1       2.522   5.620  20.390  0.00  0.00    +0.000 N 
ATOM      8  C   UNL     1       2.337   6.870  19.868  0.00  0.00    +0.000 A 
ATOM      9  O   UNL     1       1.586   7.647  20.447  0.00  0.00    +0.000 OA
ATOM     10  N   UNL     1       3.010   7.165  18.689  0.00  0.00    +0.000 N 
ATOM     11  C   UNL     1       3.799   6.183  18.015  0.00  0.00    +0.000 A 
ATOM     12  C   UNL     1       4.497   6.442  16.826  0.00  0.00    +0.000 A 
ATOM     13  H   UNL     1       2.017   5.415  21.235  0.00  0.00    +0.000 HD
ENDROOT
BRANCH   1  15
ATOM     14  C   UNL     1       6.747   4.924  14.435  0.00  0.00    +0.000 C 
ATOM     15  O   UNL     1       5.775   5.813  14.974  0.00  0.00    +0.000 OA
ENDBRANCH   1  15
BRANCH  10  16
ATOM     16  C   UNL     1       2.783   8.484  18.106  0.00  0.00    +0.000 C 
BRANCH  16  17
ATOM     17  C   UNL     1       1.334   8.774  17.806  0.00  0.00    +0.000 C 
ATOM     18  C   UNL     1       0.627   9.884  18.078  0.00  0.00    +0.000 C 
BRANCH  18  19
ATOM     19  C   UNL     1      -0.844  10.033  17.784  0.00  0.00    +0.000 C 
BRANCH  19  20
ATOM     20  P   UNL     1      -1.473  11.593  18.504  0.00  0.00    +0.000 P 
ATOM     21  O   UNL     1      -0.068  11.990  18.964  0.00  0.00    +0.000 OA
BRANCH  20  22
ATOM     22  O   UNL     1      -1.617  12.246  17.006  0.00  0.00    +0.000 OA
ATOM     23  H   UNL     1      -1.536  13.218  17.032  0.00  0.00    +0.000 HD
ENDBRANCH  20  22
BRANCH  20  24
ATOM     24  O   UNL     1      -2.069  13.067  19.185  0.00  0.00    +0.000 OA
ATOM     25  H   UNL     1      -1.594  13.768  18.693  0.00  0.00    +0.000 HD
ENDBRANCH  20  24
ENDBRANCH  19  20
ENDBRANCH  18  19
ENDBRANCH  16  17
ENDBRANCH  10  16
TORSDOF 7
ENDMDL
MODEL 6
REMARK VINA RESULT:      -6.4      3.716      4.522
REMARK  Name = 
REMARK  8 active torsions:
REMARK  status: ('A' for Active; 'I' for Inactive)
REMARK    1  A    between atoms: C_1  and  O_2
REMARK    2  A    between atoms: O_2  and  C_3
REMARK    3  A    between atoms: N_12  and  C_13
REMARK    4  A    between atoms: C_13  and  C_14
REMARK    5  A    between atoms: C_15  and  C_16
REMARK    6  A    between atoms: C_16  and  P_17
REMARK    7  A    between atoms: P_17  and  O_19
REMARK    8  A    between atoms: P_17  and  O_20
REMARK                            x       y       z     vdW  Elec       q    Type
REMARK                         _______ _______ _______ _____ _____    ______ ____
ROOT
ATOM      1  C   UNL     1       2.372   6.849  18.670  0.00  0.00    +0.000 A 
ATOM      2  C   UNL     1       2.101   6.923  20.037  0.00  0.00    +0.000 A 
ATOM      3  C   UNL     1       2.074   5.763  20.801  0.00  0.00    +0.000 A 
ATOM      4  C   UNL     1       2.344   4.530  20.207  0.00  0.00    +0.000 A 
ATOM      5  C   UNL     1       2.322   3.312  21.031  0.00  0.00    +0.000 A 
ATOM      6  O   UNL     1       2.067   3.349  22.229  0.00  0.00    +0.000 OA
ATOM      7  N   UNL     1       2.617   2.147  20.388  0.00  0.00    +0.000 N 
ATOM      8  C   UNL     1       3.039   2.010  19.095  0.00  0.00    +0.000 A 
ATOM      9  O   UNL     1       3.415   0.910  18.709  0.00  0.00    +0.000 OA
ATOM     10  N   UNL     1       3.028   3.154  18.307  0.00  0.00    +0.000 N 
ATOM     11  C   UNL     1       2.664   4.426  18.844  0.00  0.00    +0.000 A 
ATOM     12  C   UNL     1       2.636   5.604  18.082  0.00  0.00    +0.000 A 
ATOM     13  H   UNL     1       2.644   1.314  20.951  0.00  0.00    +0.000 HD
ENDROOT
BRANCH   1  15
ATOM     14  C   UNL     1       1.804   9.116  18.261  0.00  0.00    +0.000 C 
ATOM     15  O   UNL     1       2.421   7.915  17.811  0.00  0.00    +0.000 OA
ENDBRANCH   1  15
BRANCH  10  16
ATOM     16  C   UNL     1       3.517   3.023  16.937  0.00  0.00    +0.000 C 
BRANCH  16  17
ATOM     17  C   UNL     1       4.668   3.942  16.613  0.00  0.00    +0.000 C 
ATOM     18  C   UNL     1       5.675   3.750  15.745  0.00  0.00    +0.000 C 
BRANCH  18  19
ATOM     19  C   UNL     1       6.811   4.722  15.552  0.00  0.00    +0.000 C 
BRANCH  19  20
ATOM     20  P   UNL     1       6.564   6.194  16.610  0.00  0.00    +0.000 P 
ATOM     21  O   UNL     1       7.964   6.714  16.276  0.00  0.00    +0.000 OA
BRANCH  20  22
ATOM     22  O   UNL     1       5.591   6.868  15.474  0.00  0.00    +0.000 OA
ATOM     23  H   UNL     1       5.077   7.612  15.841  0.00  0.00    +0.000 HD
ENDBRANCH  20  22
BRANCH  20  24
ATOM     24  O   UNL     1       6.330   7.585  17.611  0.00  0.00    +0.000 OA
ATOM     25  H   UNL     1       5.404   7.853  17.437  0.00  0.00    +0.000 HD
ENDBRANCH  20  24
ENDBRANCH  19  20
ENDBRANCH  18  19
ENDBRANCH  16  17
ENDBRANCH  10  16
TORSDOF 7
ENDMDL
MODEL 7
REMARK VINA RESULT:      -6.4      3.889      6.380
REMARK  Name = 
REMARK  8 active torsions:
REMARK  status: ('A' for Active; 'I' for Inactive)
REMARK    1  A    between atoms: C_1  and  O_2
REMARK    2  A    between atoms: O_2  and  C_3
REMARK    3  A    between atoms: N_12  and  C_13
REMARK    4  A    between atoms: C_13  and  C_14
REMARK    5  A    between atoms: C_15  and  C_16
REMARK    6  A    between atoms: C_16  and  P_17
REMARK    7  A    between atoms: P_17  and  O_19
REMARK    8  A    between atoms: P_17  and  O_20
REMARK                            x       y       z     vdW  Elec       q    Type
REMARK                         _______ _______ _______ _____ _____    ______ ____
ROOT
ATOM      1  C   UNL     1       5.468   6.030  16.803  0.00  0.00    +0.000 A 
ATOM      2  C   UNL     1       5.443   4.810  16.126  0.00  0.00    +0.000 A 
ATOM      3  C   UNL     1       4.556   3.817  16.522  0.00  0.00    +0.000 A 
ATOM      4  C   UNL     1       3.674   4.049  17.578  0.00  0.00    +0.000 A 
ATOM      5  C   UNL     1       2.734   2.991  17.980  0.00  0.00    +0.000 A 
ATOM      6  O   UNL     1       2.707   1.905  17.414  0.00  0.00    +0.000 OA
ATOM      7  N   UNL     1       1.888   3.297  19.004  0.00  0.00    +0.000 N 
ATOM      8  C   UNL     1       1.747   4.513  19.613  0.00  0.00    +0.000 A 
ATOM      9  O   UNL     1       0.832   4.671  20.413  0.00  0.00    +0.000 OA
ATOM     10  N   UNL     1       2.656   5.502  19.259  0.00  0.00    +0.000 N 
ATOM     11  C   UNL     1       3.644   5.281  18.251  0.00  0.00    +0.000 A 
ATOM     12  C   UNL     1       4.581   6.251  17.867  0.00  0.00    +0.000 A 
ATOM     13  H   UNL     1       1.214   2.595  19.259  0.00  0.00    +0.000 HD
ENDROOT
BRANCH   1  15
ATOM     14  C   UNL     1       7.396   7.279  17.394  0.00  0.00    +0.000 C 
ATOM     15  O   UNL     1       6.296   7.082  16.514  0.00  0.00    +0.000 OA
ENDBRANCH   1  15
BRANCH  10  16
ATOM     16  C   UNL     1       2.485   6.815  19.875  0.00  0.00    +0.000 C 
BRANCH  16  17
ATOM     17  C   UNL     1       2.044   7.886  18.910  0.00  0.00    +0.000 C 
ATOM     18  C   UNL     1       1.447   9.060  19.175  0.00  0.00    +0.000 C 
BRANCH  18  19
ATOM     19  C   UNL     1       0.994  10.028  18.112  0.00  0.00    +0.000 C 
BRANCH  19  20
ATOM     20  P   UNL     1      -0.766  10.460  18.367  0.00  0.00    +0.000 P 
ATOM     21  O   UNL     1      -0.613  10.345  19.886  0.00  0.00    +0.000 OA
BRANCH  20  22
ATOM     22  O   UNL     1      -0.444  12.035  18.038  0.00  0.00    +0.000 OA
ATOM     23  H   UNL     1      -0.788  12.622  18.737  0.00  0.00    +0.000 HD
ENDBRANCH  20  22
BRANCH  20  24
ATOM     24  O   UNL     1      -2.430  10.868  18.606  0.00  0.00    +0.000 OA
ATOM     25  H   UNL     1      -2.409  11.807  18.885  0.00  0.00    +0.000 HD
ENDBRANCH  20  24
ENDBRANCH  19  20
ENDBRANCH  18  19
ENDBRANCH  16  17
ENDBRANCH  10  16
TORSDOF 7
ENDMDL
MODEL 8
REMARK VINA RESULT:      -6.3      4.371      5.184
REMARK  Name = 
REMARK  8 active torsions:
REMARK  status: ('A' for Active; 'I' for Inactive)
REMARK    1  A    between atoms: C_1  and  O_2
REMARK    2  A    between atoms: O_2  and  C_3
REMARK    3  A    between atoms: N_12  and  C_13
REMARK    4  A    between atoms: C_13  and  C_14
REMARK    5  A    between atoms: C_15  and  C_16
REMARK    6  A    between atoms: C_16  and  P_17
REMARK    7  A    between atoms: P_17  and  O_19
REMARK    8  A    between atoms: P_17  and  O_20
REMARK                            x       y       z     vdW  Elec       q    Type
REMARK                         _______ _______ _______ _____ _____    ______ ____
ROOT
ATOM      1  C   UNL     1       2.463   6.962  19.270  0.00  0.00    +0.000 A 
ATOM      2  C   UNL     1       1.532   6.768  20.291  0.00  0.00    +0.000 A 
ATOM      3  C   UNL     1       1.495   5.557  20.973  0.00  0.00    +0.000 A 
ATOM      4  C   UNL     1       2.404   4.549  20.653  0.00  0.00    +0.000 A 
ATOM      5  C   UNL     1       2.359   3.276  21.390  0.00  0.00    +0.000 A 
ATOM      6  O   UNL     1       1.538   3.075  22.277  0.00  0.00    +0.000 OA
ATOM      7  N   UNL     1       3.291   2.345  21.039  0.00  0.00    +0.000 N 
ATOM      8  C   UNL     1       4.326   2.515  20.162  0.00  0.00    +0.000 A 
ATOM      9  O   UNL     1       5.173   1.634  20.071  0.00  0.00    +0.000 OA
ATOM     10  N   UNL     1       4.350   3.702  19.441  0.00  0.00    +0.000 N 
ATOM     11  C   UNL     1       3.382   4.728  19.662  0.00  0.00    +0.000 A 
ATOM     12  C   UNL     1       3.369   5.939  18.953  0.00  0.00    +0.000 A 
ATOM     13  H   UNL     1       3.294   1.488  21.565  0.00  0.00    +0.000 HD
ENDROOT
BRANCH   1  15
ATOM     14  C   UNL     1       1.631   9.123  18.752  0.00  0.00    +0.000 C 
ATOM     15  O   UNL     1       2.596   8.102  18.524  0.00  0.00    +0.000 OA
ENDBRANCH   1  15
BRANCH  10  16
ATOM     16  C   UNL     1       5.476   3.906  18.534  0.00  0.00    +0.000 C 
BRANCH  16  17
ATOM     17  C   UNL     1       5.084   3.946  17.079  0.00  0.00    +0.000 C 
ATOM     18  C   UNL     1       5.772   4.445  16.038  0.00  0.00    +0.000 C 
BRANCH  18  19
ATOM     19  C   UNL     1       5.244   4.485  14.627  0.00  0.00    +0.000 C 
BRANCH  19  20
ATOM     20  P   UNL     1       6.606   4.833  13.456  0.00  0.00    +0.000 P 
ATOM     21  O   UNL     1       7.576   5.106  14.609  0.00  0.00    +0.000 OA
BRANCH  20  22
ATOM     22  O   UNL     1       6.773   3.230  13.147  0.00  0.00    +0.000 OA
ATOM     23  H   UNL     1       5.973   2.733  13.402  0.00  0.00    +0.000 HD
ENDBRANCH  20  22
BRANCH  20  24
ATOM     24  O   UNL     1       7.893   5.162  12.349  0.00  0.00    +0.000 OA
ATOM     25  H   UNL     1       8.649   4.647  12.699  0.00  0.00    +0.000 HD
ENDBRANCH  20  24
ENDBRANCH  19  20
ENDBRANCH  18  19
ENDBRANCH  16  17
ENDBRANCH  10  16
TORSDOF 7
ENDMDL
MODEL 9
REMARK VINA RESULT:      -6.3      3.208      6.074
REMARK  Name = 
REMARK  8 active torsions:
REMARK  status: ('A' for Active; 'I' for Inactive)
REMARK    1  A    between atoms: C_1  and  O_2
REMARK    2  A    between atoms: O_2  and  C_3
REMARK    3  A    between atoms: N_12  and  C_13
REMARK    4  A    between atoms: C_13  and  C_14
REMARK    5  A    between atoms: C_15  and  C_16
REMARK    6  A    between atoms: C_16  and  P_17
REMARK    7  A    between atoms: P_17  and  O_19
REMARK    8  A    between atoms: P_17  and  O_20
REMARK                            x       y       z     vdW  Elec       q    Type
REMARK                         _______ _______ _______ _____ _____    ______ ____
ROOT
ATOM      1  C   UNL     1       7.020   6.777  17.555  0.00  0.00    +0.000 A 
ATOM      2  C   UNL     1       7.621   5.631  18.077  0.00  0.00    +0.000 A 
ATOM      3  C   UNL     1       6.838   4.645  18.664  0.00  0.00    +0.000 A 
ATOM      4  C   UNL     1       5.451   4.789  18.708  0.00  0.00    +0.000 A 
ATOM      5  C   UNL     1       4.634   3.732  19.324  0.00  0.00    +0.000 A 
ATOM      6  O   UNL     1       5.141   2.726  19.807  0.00  0.00    +0.000 OA
ATOM      7  N   UNL     1       3.286   3.931  19.311  0.00  0.00    +0.000 N 
ATOM      8  C   UNL     1       2.615   4.946  18.688  0.00  0.00    +0.000 A 
ATOM      9  O   UNL     1       1.391   4.901  18.636  0.00  0.00    +0.000 OA
ATOM     10  N   UNL     1       3.385   5.962  18.136  0.00  0.00    +0.000 N 
ATOM     11  C   UNL     1       4.812   5.909  18.153  0.00  0.00    +0.000 A 
ATOM     12  C   UNL     1       5.625   6.915  17.610  0.00  0.00    +0.000 A 
ATOM     13  H   UNL     1       2.717   3.195  19.694  0.00  0.00    +0.000 HD
ENDROOT
BRANCH   1  15
ATOM     14  C   UNL     1       8.010   8.919  17.798  0.00  0.00    +0.000 C 
ATOM     15  O   UNL     1       7.679   7.818  16.959  0.00  0.00    +0.000 OA
ENDBRANCH   1  15
BRANCH  10  16
ATOM     16  C   UNL     1       2.675   7.027  17.434  0.00  0.00    +0.000 C 
BRANCH  16  17
ATOM     17  C   UNL     1       2.320   8.202  18.310  0.00  0.00    +0.000 C 
ATOM     18  C   UNL     1       1.469   9.210  18.058  0.00  0.00    +0.000 C 
BRANCH  18  19
ATOM     19  C   UNL     1       1.243  10.370  18.993  0.00  0.00    +0.000 C 
BRANCH  19  20
ATOM     20  P   UNL     1       0.402   9.795  20.514  0.00  0.00    +0.000 P 
ATOM     21  O   UNL     1       1.141  10.836  21.359  0.00  0.00    +0.000 OA
BRANCH  20  22
ATOM     22  O   UNL     1      -0.982  10.546  20.052  0.00  0.00    +0.000 OA
ATOM     23  H   UNL     1      -0.926  11.510  20.188  0.00  0.00    +0.000 HD
ENDBRANCH  20  22
BRANCH  20  24
ATOM     24  O   UNL     1      -0.393   9.251  21.951  0.00  0.00    +0.000 OA
ATOM     25  H   UNL     1       0.321   8.836  22.477  0.00  0.00    +0.000 HD
ENDBRANCH  20  24
ENDBRANCH  19  20
ENDBRANCH  18  19
ENDBRANCH  16  17
ENDBRANCH  10  16
TORSDOF 7
ENDMDL
