MODEL 1
REMARK VINA RESULT:      -7.3      0.000      0.000
REMARK  Name = 
REMARK  7 active torsions:
REMARK  status: ('A' for Active; 'I' for Inactive)
REMARK    1  A    between atoms: C_1  and  C_2
REMARK    2  A    between atoms: C_2  and  O_3
REMARK    3  A    between atoms: O_3  and  C_4
REMARK    4  A    between atoms: C_4  and  C_6
REMARK    5  A    between atoms: C_7  and  C_8
REMARK    6  A    between atoms: C_13  and  C_14
REMARK    7  A    between atoms: C_17  and  C_18
REMARK                            x       y       z     vdW  Elec       q    Type
REMARK                         _______ _______ _______ _____ _____    ______ ____
ROOT
ATOM      1  C   UNL     1       3.071   4.290  18.773  0.00  0.00    +0.000 C 
ATOM      2  C   UNL     1       3.967   3.355  18.384  0.00  0.00    +0.000 C 
ATOM      3  C   UNL     1       3.709   2.036  17.705  0.00  0.00    +0.000 C 
ATOM      4  N   UNL     1       5.303   3.589  18.635  0.00  0.00    +0.000 N 
ATOM      5  C   UNL     1       5.828   4.729  19.154  0.00  0.00    +0.000 C 
ATOM      6  O   UNL     1       7.033   4.863  19.333  0.00  0.00    +0.000 OA
ATOM      7  N   UNL     1       4.952   5.717  19.436  0.00  0.00    +0.000 N 
ATOM      8  C   UNL     1       3.509   5.570  19.448  0.00  0.00    +0.000 C 
ATOM      9  H   UNL     1       5.993   2.887  18.390  0.00  0.00    +0.000 HD
ATOM     10  H   UNL     1       5.356   6.549  19.844  0.00  0.00    +0.000 HD
ENDROOT
BRANCH   8  11
ATOM     11  C   UNL     1       2.970   6.846  18.873  0.00  0.00    +0.000 A 
ATOM     12  C   UNL     1       3.130   7.490  17.662  0.00  0.00    +0.000 A 
ATOM     13  C   UNL     1       2.322   8.650  17.712  0.00  0.00    +0.000 A 
ATOM     14  C   UNL     1       1.731   8.660  18.959  0.00  0.00    +0.000 A 
ATOM     15  C   UNL     1       0.792   9.581  19.630  0.00  0.00    +0.000 C 
ATOM     16  O   UNL     1       2.126   7.568  19.672  0.00  0.00    +0.000 OA
ENDBRANCH   8  11
BRANCH   1  17
ATOM     17  C   UNL     1       1.609   4.101  18.589  0.00  0.00    +0.000 C 
ATOM     18  O   UNL     1       1.041   4.056  17.506  0.00  0.00    +0.000 OA
BRANCH  17  19
ATOM     19  O   UNL     1       0.987   3.979  19.788  0.00  0.00    +0.000 OA
BRANCH  19  21
ATOM     20  C   UNL     1       1.762   2.780  21.727  0.00  0.00    +0.000 C 
ATOM     21  C   UNL     1       1.058   2.676  20.388  0.00  0.00    +0.000 C 
ENDBRANCH  19  21
ENDBRANCH  17  19
ENDBRANCH   1  17
TORSDOF 4
ENDMDL
MODEL 2
REMARK VINA RESULT:      -7.2      3.048      5.049
REMARK  Name = 
REMARK  7 active torsions:
REMARK  status: ('A' for Active; 'I' for Inactive)
REMARK    1  A    between atoms: C_1  and  C_2
REMARK    2  A    between atoms: C_2  and  O_3
REMARK    3  A    between atoms: O_3  and  C_4
REMARK    4  A    between atoms: C_4  and  C_6
REMARK    5  A    between atoms: C_7  and  C_8
REMARK    6  A    between atoms: C_13  and  C_14
REMARK    7  A    between atoms: C_17  and  C_18
REMARK                            x       y       z     vdW  Elec       q    Type
REMARK                         _______ _______ _______ _____ _____    ______ ____
ROOT
ATOM      1  C   UNL     1       6.449   6.047  17.287  0.00  0.00    +0.000 C 
ATOM      2  C   UNL     1       7.386   6.863  17.822  0.00  0.00    +0.000 C 
ATOM      3  C   UNL     1       7.932   8.151  17.267  0.00  0.00    +0.000 C 
ATOM      4  N   UNL     1       7.954   6.500  19.024  0.00  0.00    +0.000 N 
ATOM      5  C   UNL     1       7.592   5.438  19.789  0.00  0.00    +0.000 C 
ATOM      6  O   UNL     1       8.140   5.193  20.857  0.00  0.00    +0.000 OA
ATOM      7  N   UNL     1       6.574   4.684  19.321  0.00  0.00    +0.000 N 
ATOM      8  C   UNL     1       6.014   4.780  17.986  0.00  0.00    +0.000 C 
ATOM      9  H   UNL     1       8.687   7.073  19.428  0.00  0.00    +0.000 HD
ATOM     10  H   UNL     1       6.333   3.883  19.889  0.00  0.00    +0.000 HD
ENDROOT
BRANCH   8  11
ATOM     11  C   UNL     1       4.537   4.583  18.156  0.00  0.00    +0.000 A 
ATOM     12  C   UNL     1       3.561   3.973  17.393  0.00  0.00    +0.000 A 
ATOM     13  C   UNL     1       2.351   4.088  18.118  0.00  0.00    +0.000 A 
ATOM     14  C   UNL     1       2.653   4.779  19.273  0.00  0.00    +0.000 A 
ATOM     15  C   UNL     1       1.851   5.219  20.431  0.00  0.00    +0.000 C 
ATOM     16  O   UNL     1       3.981   5.089  19.299  0.00  0.00    +0.000 OA
ENDBRANCH   8  11
BRANCH   1  17
ATOM     17  C   UNL     1       5.819   6.331  15.972  0.00  0.00    +0.000 C 
ATOM     18  O   UNL     1       4.903   7.122  15.792  0.00  0.00    +0.000 OA
BRANCH  17  19
ATOM     19  O   UNL     1       6.402   5.597  14.992  0.00  0.00    +0.000 OA
BRANCH  19  21
ATOM     20  C   UNL     1       6.349   3.855  13.330  0.00  0.00    +0.000 C 
ATOM     21  C   UNL     1       5.598   4.532  14.459  0.00  0.00    +0.000 C 
ENDBRANCH  19  21
ENDBRANCH  17  19
ENDBRANCH   1  17
TORSDOF 4
ENDMDL
MODEL 3
REMARK VINA RESULT:      -7.0      1.929      5.061
REMARK  Name = 
REMARK  7 active torsions:
REMARK  status: ('A' for Active; 'I' for Inactive)
REMARK    1  A    between atoms: C_1  and  C_2
REMARK    2  A    between atoms: C_2  and  O_3
REMARK    3  A    between atoms: O_3  and  C_4
REMARK    4  A    between atoms: C_4  and  C_6
REMARK    5  A    between atoms: C_7  and  C_8
REMARK    6  A    between atoms: C_13  and  C_14
REMARK    7  A    between atoms: C_17  and  C_18
REMARK                            x       y       z     vdW  Elec       q    Type
REMARK                         _______ _______ _______ _____ _____    ______ ____
ROOT
ATOM      1  C   UNL     1       4.255   5.803  18.459  0.00  0.00    +0.000 C 
ATOM      2  C   UNL     1       4.234   6.648  17.404  0.00  0.00    +0.000 C 
ATOM      3  C   UNL     1       5.069   6.604  16.152  0.00  0.00    +0.000 C 
ATOM      4  N   UNL     1       3.359   7.714  17.441  0.00  0.00    +0.000 N 
ATOM      5  C   UNL     1       2.430   7.950  18.403  0.00  0.00    +0.000 C 
ATOM      6  O   UNL     1       1.678   8.916  18.354  0.00  0.00    +0.000 OA
ATOM      7  N   UNL     1       2.362   7.044  19.403  0.00  0.00    +0.000 N 
ATOM      8  C   UNL     1       3.338   5.999  19.645  0.00  0.00    +0.000 C 
ATOM      9  H   UNL     1       3.350   8.385  16.681  0.00  0.00    +0.000 HD
ATOM     10  H   UNL     1       1.683   7.247  20.124  0.00  0.00    +0.000 HD
ENDROOT
BRANCH   8  11
ATOM     11  C   UNL     1       2.544   4.802  20.080  0.00  0.00    +0.000 A 
ATOM     12  C   UNL     1       2.243   4.253  21.310  0.00  0.00    +0.000 A 
ATOM     13  C   UNL     1       1.411   3.135  21.060  0.00  0.00    +0.000 A 
ATOM     14  C   UNL     1       1.270   3.053  19.691  0.00  0.00    +0.000 A 
ATOM     15  C   UNL     1       0.542   2.130  18.799  0.00  0.00    +0.000 C 
ATOM     16  O   UNL     1       1.962   4.062  19.088  0.00  0.00    +0.000 OA
ENDBRANCH   8  11
BRANCH   1  17
ATOM     17  C   UNL     1       5.198   4.657  18.529  0.00  0.00    +0.000 C 
ATOM     18  O   UNL     1       5.024   3.575  17.987  0.00  0.00    +0.000 OA
BRANCH  17  19
ATOM     19  O   UNL     1       6.286   4.977  19.273  0.00  0.00    +0.000 OA
BRANCH  19  21
ATOM     20  C   UNL     1       7.912   6.616  18.588  0.00  0.00    +0.000 C 
ATOM     21  C   UNL     1       7.505   5.157  18.534  0.00  0.00    +0.000 C 
ENDBRANCH  19  21
ENDBRANCH  17  19
ENDBRANCH   1  17
TORSDOF 4
ENDMDL
MODEL 4
REMARK VINA RESULT:      -7.0      2.931      5.161
REMARK  Name = 
REMARK  7 active torsions:
REMARK  status: ('A' for Active; 'I' for Inactive)
REMARK    1  A    between atoms: C_1  and  C_2
REMARK    2  A    between atoms: C_2  and  O_3
REMARK    3  A    between atoms: O_3  and  C_4
REMARK    4  A    between atoms: C_4  and  C_6
REMARK    5  A    between atoms: C_7  and  C_8
REMARK    6  A    between atoms: C_13  and  C_14
REMARK    7  A    between atoms: C_17  and  C_18
REMARK                            x       y       z     vdW  Elec       q    Type
REMARK                         _______ _______ _______ _____ _____    ______ ____
ROOT
ATOM      1  C   UNL     1       6.312   6.087  17.450  0.00  0.00    +0.000 C 
ATOM      2  C   UNL     1       7.325   6.868  17.890  0.00  0.00    +0.000 C 
ATOM      3  C   UNL     1       7.868   8.130  17.277  0.00  0.00    +0.000 C 
ATOM      4  N   UNL     1       7.986   6.489  19.039  0.00  0.00    +0.000 N 
ATOM      5  C   UNL     1       7.654   5.446  19.843  0.00  0.00    +0.000 C 
ATOM      6  O   UNL     1       8.288   5.184  20.859  0.00  0.00    +0.000 OA
ATOM      7  N   UNL     1       6.570   4.730  19.476  0.00  0.00    +0.000 N 
ATOM      8  C   UNL     1       5.894   4.841  18.198  0.00  0.00    +0.000 C 
ATOM      9  H   UNL     1       8.776   7.034  19.370  0.00  0.00    +0.000 HD
ATOM     10  H   UNL     1       6.351   3.943  20.071  0.00  0.00    +0.000 HD
ENDROOT
BRANCH   8  11
ATOM     11  C   UNL     1       4.432   4.705  18.503  0.00  0.00    +0.000 A 
ATOM     12  C   UNL     1       3.483   5.560  19.027  0.00  0.00    +0.000 A 
ATOM     13  C   UNL     1       2.259   4.848  19.033  0.00  0.00    +0.000 A 
ATOM     14  C   UNL     1       2.535   3.593  18.533  0.00  0.00    +0.000 A 
ATOM     15  C   UNL     1       1.710   2.395  18.284  0.00  0.00    +0.000 C 
ATOM     16  O   UNL     1       3.858   3.497  18.214  0.00  0.00    +0.000 OA
ENDBRANCH   8  11
BRANCH   1  17
ATOM     17  C   UNL     1       5.576   6.389  16.196  0.00  0.00    +0.000 C 
ATOM     18  O   UNL     1       4.593   7.114  16.119  0.00  0.00    +0.000 OA
BRANCH  17  19
ATOM     19  O   UNL     1       6.146   5.755  15.141  0.00  0.00    +0.000 OA
BRANCH  19  21
ATOM     20  C   UNL     1       6.265   3.926  13.579  0.00  0.00    +0.000 C 
ATOM     21  C   UNL     1       5.464   4.573  14.692  0.00  0.00    +0.000 C 
ENDBRANCH  19  21
ENDBRANCH  17  19
ENDBRANCH   1  17
TORSDOF 4
ENDMDL
MODEL 5
REMARK VINA RESULT:      -6.9      2.537      4.156
REMARK  Name = 
REMARK  7 active torsions:
REMARK  status: ('A' for Active; 'I' for Inactive)
REMARK    1  A    between atoms: C_1  and  C_2
REMARK    2  A    between atoms: C_2  and  O_3
REMARK    3  A    between atoms: O_3  and  C_4
REMARK    4  A    between atoms: C_4  and  C_6
REMARK    5  A    between atoms: C_7  and  C_8
REMARK    6  A    between atoms: C_13  and  C_14
REMARK    7  A    between atoms: C_17  and  C_18
REMARK                            x       y       z     vdW  Elec       q    Type
REMARK                         _______ _______ _______ _____ _____    ______ ____
ROOT
ATOM      1  C   UNL     1       5.371   5.415  17.547  0.00  0.00    +0.000 C 
ATOM      2  C   UNL     1       6.260   4.592  18.149  0.00  0.00    +0.000 C 
ATOM      3  C   UNL     1       7.759   4.574  18.014  0.00  0.00    +0.000 C 
ATOM      4  N   UNL     1       5.775   3.617  18.993  0.00  0.00    +0.000 N 
ATOM      5  C   UNL     1       4.478   3.457  19.366  0.00  0.00    +0.000 C 
ATOM      6  O   UNL     1       4.131   2.570  20.137  0.00  0.00    +0.000 OA
ATOM      7  N   UNL     1       3.598   4.349  18.864  0.00  0.00    +0.000 N 
ATOM      8  C   UNL     1       3.886   5.291  17.799  0.00  0.00    +0.000 C 
ATOM      9  H   UNL     1       6.416   2.961  19.427  0.00  0.00    +0.000 HD
ATOM     10  H   UNL     1       2.634   4.202  19.131  0.00  0.00    +0.000 HD
ENDROOT
BRANCH   8  11
ATOM     11  C   UNL     1       3.164   6.552  18.172  0.00  0.00    +0.000 A 
ATOM     12  C   UNL     1       2.868   7.718  17.496  0.00  0.00    +0.000 A 
ATOM     13  C   UNL     1       2.123   8.525  18.389  0.00  0.00    +0.000 A 
ATOM     14  C   UNL     1       2.025   7.814  19.567  0.00  0.00    +0.000 A 
ATOM     15  C   UNL     1       1.387   8.089  20.869  0.00  0.00    +0.000 C 
ATOM     16  O   UNL     1       2.662   6.615  19.443  0.00  0.00    +0.000 OA
ENDBRANCH   8  11
BRANCH   1  17
ATOM     17  C   UNL     1       5.798   6.462  16.583  0.00  0.00    +0.000 C 
ATOM     18  O   UNL     1       6.354   7.507  16.888  0.00  0.00    +0.000 OA
BRANCH  17  19
ATOM     19  O   UNL     1       5.491   6.097  15.313  0.00  0.00    +0.000 OA
BRANCH  19  21
ATOM     20  C   UNL     1       5.729   4.068  14.040  0.00  0.00    +0.000 C 
ATOM     21  C   UNL     1       6.450   5.242  14.670  0.00  0.00    +0.000 C 
ENDBRANCH  19  21
ENDBRANCH  17  19
ENDBRANCH   1  17
TORSDOF 4
ENDMDL
MODEL 6
REMARK VINA RESULT:      -6.8      1.992      4.921
REMARK  Name = 
REMARK  7 active torsions:
REMARK  status: ('A' for Active; 'I' for Inactive)
REMARK    1  A    between atoms: C_1  and  C_2
REMARK    2  A    between atoms: C_2  and  O_3
REMARK    3  A    between atoms: O_3  and  C_4
REMARK    4  A    between atoms: C_4  and  C_6
REMARK    5  A    between atoms: C_7  and  C_8
REMARK    6  A    between atoms: C_13  and  C_14
REMARK    7  A    between atoms: C_17  and  C_18
REMARK                            x       y       z     vdW  Elec       q    Type
REMARK                         _______ _______ _______ _____ _____    ______ ____
ROOT
ATOM      1  C   UNL     1       4.254   5.617  17.950  0.00  0.00    +0.000 C 
ATOM      2  C   UNL     1       4.361   6.574  17.000  0.00  0.00    +0.000 C 
ATOM      3  C   UNL     1       5.210   6.569  15.757  0.00  0.00    +0.000 C 
ATOM      4  N   UNL     1       3.625   7.730  17.155  0.00  0.00    +0.000 N 
ATOM      5  C   UNL     1       2.712   7.969  18.133  0.00  0.00    +0.000 C 
ATOM      6  O   UNL     1       2.087   9.021  18.191  0.00  0.00    +0.000 OA
ATOM      7  N   UNL     1       2.511   6.970  19.019  0.00  0.00    +0.000 N 
ATOM      8  C   UNL     1       3.344   5.789  19.144  0.00  0.00    +0.000 C 
ATOM      9  H   UNL     1       3.715   8.480  16.479  0.00  0.00    +0.000 HD
ATOM     10  H   UNL     1       1.847   7.173  19.754  0.00  0.00    +0.000 HD
ENDROOT
BRANCH   8  11
ATOM     11  C   UNL     1       2.399   4.660  19.431  0.00  0.00    +0.000 A 
ATOM     12  C   UNL     1       1.458   3.988  18.677  0.00  0.00    +0.000 A 
ATOM     13  C   UNL     1       0.913   2.985  19.513  0.00  0.00    +0.000 A 
ATOM     14  C   UNL     1       1.536   3.116  20.737  0.00  0.00    +0.000 A 
ATOM     15  C   UNL     1       1.422   2.390  22.017  0.00  0.00    +0.000 C 
ATOM     16  O   UNL     1       2.437   4.138  20.695  0.00  0.00    +0.000 OA
ENDBRANCH   8  11
BRANCH   1  17
ATOM     17  C   UNL     1       5.046   4.362  17.891  0.00  0.00    +0.000 C 
ATOM     18  O   UNL     1       4.794   3.409  17.167  0.00  0.00    +0.000 OA
BRANCH  17  19
ATOM     19  O   UNL     1       6.095   4.417  18.750  0.00  0.00    +0.000 OA
BRANCH  19  21
ATOM     20  C   UNL     1       7.828   6.086  18.845  0.00  0.00    +0.000 C 
ATOM     21  C   UNL     1       7.346   4.819  18.168  0.00  0.00    +0.000 C 
ENDBRANCH  19  21
ENDBRANCH  17  19
ENDBRANCH   1  17
TORSDOF 4
ENDMDL
MODEL 7
REMARK VINA RESULT:      -6.8      2.340      4.247
REMARK  Name = 
REMARK  7 active torsions:
REMARK  status: ('A' for Active; 'I' for Inactive)
REMARK    1  A    between atoms: C_1  and  C_2
REMARK    2  A    between atoms: C_2  and  O_3
REMARK    3  A    between atoms: O_3  and  C_4
REMARK    4  A    between atoms: C_4  and  C_6
REMARK    5  A    between atoms: C_7  and  C_8
REMARK    6  A    between atoms: C_13  and  C_14
REMARK    7  A    between atoms: C_17  and  C_18
REMARK                            x       y       z     vdW  Elec       q    Type
REMARK                         _______ _______ _______ _____ _____    ______ ____
ROOT
ATOM      1  C   UNL     1       3.214   4.752  19.407  0.00  0.00    +0.000 C 
ATOM      2  C   UNL     1       2.516   3.693  19.878  0.00  0.00    +0.000 C 
ATOM      3  C   UNL     1       1.032   3.577  20.105  0.00  0.00    +0.000 C 
ATOM      4  N   UNL     1       3.213   2.555  20.221  0.00  0.00    +0.000 N 
ATOM      5  C   UNL     1       4.543   2.349  20.040  0.00  0.00    +0.000 C 
ATOM      6  O   UNL     1       5.086   1.298  20.360  0.00  0.00    +0.000 OA
ATOM      7  N   UNL     1       5.230   3.357  19.460  0.00  0.00    +0.000 N 
ATOM      8  C   UNL     1       4.715   4.695  19.241  0.00  0.00    +0.000 C 
ATOM      9  H   UNL     1       2.719   1.760  20.614  0.00  0.00    +0.000 HD
ATOM     10  H   UNL     1       6.223   3.199  19.355  0.00  0.00    +0.000 HD
ENDROOT
BRANCH   8  11
ATOM     11  C   UNL     1       5.256   5.120  17.907  0.00  0.00    +0.000 A 
ATOM     12  C   UNL     1       5.760   6.307  17.416  0.00  0.00    +0.000 A 
ATOM     13  C   UNL     1       6.147   6.058  16.077  0.00  0.00    +0.000 A 
ATOM     14  C   UNL     1       5.837   4.739  15.821  0.00  0.00    +0.000 A 
ATOM     15  C   UNL     1       5.985   3.873  14.635  0.00  0.00    +0.000 C 
ATOM     16  O   UNL     1       5.289   4.164  16.929  0.00  0.00    +0.000 OA
ENDBRANCH   8  11
BRANCH   1  17
ATOM     17  C   UNL     1       2.553   6.036  19.059  0.00  0.00    +0.000 C 
ATOM     18  O   UNL     1       2.106   6.315  17.956  0.00  0.00    +0.000 OA
BRANCH  17  19
ATOM     19  O   UNL     1       2.508   6.859  20.137  0.00  0.00    +0.000 OA
BRANCH  19  21
ATOM     20  C   UNL     1       0.975   8.354  21.237  0.00  0.00    +0.000 C 
ATOM     21  C   UNL     1       1.739   8.060  19.962  0.00  0.00    +0.000 C 
ENDBRANCH  19  21
ENDBRANCH  17  19
ENDBRANCH   1  17
TORSDOF 4
ENDMDL
MODEL 8
REMARK VINA RESULT:      -6.8      2.495      4.298
REMARK  Name = 
REMARK  7 active torsions:
REMARK  status: ('A' for Active; 'I' for Inactive)
REMARK    1  A    between atoms: C_1  and  C_2
REMARK    2  A    between atoms: C_2  and  O_3
REMARK    3  A    between atoms: O_3  and  C_4
REMARK    4  A    between atoms: C_4  and  C_6
REMARK    5  A    between atoms: C_7  and  C_8
REMARK    6  A    between atoms: C_13  and  C_14
REMARK    7  A    between atoms: C_17  and  C_18
REMARK                            x       y       z     vdW  Elec       q    Type
REMARK                         _______ _______ _______ _____ _____    ______ ____
ROOT
ATOM      1  C   UNL     1       5.249   5.507  17.563  0.00  0.00    +0.000 C 
ATOM      2  C   UNL     1       6.116   4.622  18.104  0.00  0.00    +0.000 C 
ATOM      3  C   UNL     1       7.617   4.590  17.989  0.00  0.00    +0.000 C 
ATOM      4  N   UNL     1       5.603   3.586  18.856  0.00  0.00    +0.000 N 
ATOM      5  C   UNL     1       4.299   3.417  19.196  0.00  0.00    +0.000 C 
ATOM      6  O   UNL     1       3.926   2.473  19.883  0.00  0.00    +0.000 OA
ATOM      7  N   UNL     1       3.440   4.363  18.759  0.00  0.00    +0.000 N 
ATOM      8  C   UNL     1       3.759   5.388  17.783  0.00  0.00    +0.000 C 
ATOM      9  H   UNL     1       6.228   2.885  19.241  0.00  0.00    +0.000 HD
ATOM     10  H   UNL     1       2.471   4.210  19.000  0.00  0.00    +0.000 HD
ENDROOT
BRANCH   8  11
ATOM     11  C   UNL     1       3.051   6.624  18.254  0.00  0.00    +0.000 A 
ATOM     12  C   UNL     1       2.743   7.831  17.659  0.00  0.00    +0.000 A 
ATOM     13  C   UNL     1       2.023   8.581  18.620  0.00  0.00    +0.000 A 
ATOM     14  C   UNL     1       1.951   7.798  19.753  0.00  0.00    +0.000 A 
ATOM     15  C   UNL     1       1.347   7.991  21.085  0.00  0.00    +0.000 C 
ATOM     16  O   UNL     1       2.581   6.607  19.538  0.00  0.00    +0.000 OA
ENDBRANCH   8  11
BRANCH   1  17
ATOM     17  C   UNL     1       5.707   6.626  16.698  0.00  0.00    +0.000 C 
ATOM     18  O   UNL     1       5.590   6.662  15.482  0.00  0.00    +0.000 OA
BRANCH  17  19
ATOM     19  O   UNL     1       6.270   7.609  17.445  0.00  0.00    +0.000 OA
BRANCH  19  21
ATOM     20  C   UNL     1       8.125   9.035  18.013  0.00  0.00    +0.000 C 
ATOM     21  C   UNL     1       7.672   7.826  17.218  0.00  0.00    +0.000 C 
ENDBRANCH  19  21
ENDBRANCH  17  19
ENDBRANCH   1  17
TORSDOF 4
ENDMDL
MODEL 9
REMARK VINA RESULT:      -6.8      1.972      3.994
REMARK  Name = 
REMARK  7 active torsions:
REMARK  status: ('A' for Active; 'I' for Inactive)
REMARK    1  A    between atoms: C_1  and  C_2
REMARK    2  A    between atoms: C_2  and  O_3
REMARK    3  A    between atoms: O_3  and  C_4
REMARK    4  A    between atoms: C_4  and  C_6
REMARK    5  A    between atoms: C_7  and  C_8
REMARK    6  A    between atoms: C_13  and  C_14
REMARK    7  A    between atoms: C_17  and  C_18
REMARK                            x       y       z     vdW  Elec       q    Type
REMARK                         _______ _______ _______ _____ _____    ______ ____
ROOT
ATOM      1  C   UNL     1       3.852   4.015  18.719  0.00  0.00    +0.000 C 
ATOM      2  C   UNL     1       3.634   2.809  19.291  0.00  0.00    +0.000 C 
ATOM      3  C   UNL     1       4.599   1.954  20.069  0.00  0.00    +0.000 C 
ATOM      4  N   UNL     1       2.384   2.242  19.158  0.00  0.00    +0.000 N 
ATOM      5  C   UNL     1       1.301   2.826  18.585  0.00  0.00    +0.000 C 
ATOM      6  O   UNL     1       0.217   2.258  18.519  0.00  0.00    +0.000 OA
ATOM      7  N   UNL     1       1.476   4.081  18.116  0.00  0.00    +0.000 N 
ATOM      8  C   UNL     1       2.759   4.741  17.968  0.00  0.00    +0.000 C 
ATOM      9  H   UNL     1       2.205   1.321  19.543  0.00  0.00    +0.000 HD
ATOM     10  H   UNL     1       0.667   4.492  17.670  0.00  0.00    +0.000 HD
ENDROOT
BRANCH   8  11
ATOM     11  C   UNL     1       2.520   6.171  18.352  0.00  0.00    +0.000 A 
ATOM     12  C   UNL     1       2.627   7.371  17.678  0.00  0.00    +0.000 A 
ATOM     13  C   UNL     1       2.221   8.380  18.583  0.00  0.00    +0.000 A 
ATOM     14  C   UNL     1       1.911   7.742  19.766  0.00  0.00    +0.000 A 
ATOM     15  C   UNL     1       1.432   8.214  21.079  0.00  0.00    +0.000 C 
ATOM     16  O   UNL     1       2.096   6.397  19.633  0.00  0.00    +0.000 OA
ENDBRANCH   8  11
BRANCH   1  17
ATOM     17  C   UNL     1       5.180   4.679  18.768  0.00  0.00    +0.000 C 
ATOM     18  O   UNL     1       5.556   5.424  19.663  0.00  0.00    +0.000 OA
BRANCH  17  19
ATOM     19  O   UNL     1       5.924   4.343  17.685  0.00  0.00    +0.000 OA
BRANCH  19  21
ATOM     20  C   UNL     1       5.587   5.938  15.914  0.00  0.00    +0.000 C 
ATOM     21  C   UNL     1       6.532   5.443  16.991  0.00  0.00    +0.000 C 
ENDBRANCH  19  21
ENDBRANCH  17  19
ENDBRANCH   1  17
TORSDOF 4
ENDMDL
