MODEL 1
REMARK VINA RESULT:      -7.3      0.000      0.000
REMARK  Name = 
REMARK  7 active torsions:
REMARK  status: ('A' for Active; 'I' for Inactive)
REMARK    1  A    between atoms: C_1  and  O_2
REMARK    2  A    between atoms: O_2  and  C_3
REMARK    3  A    between atoms: C_6  and  C_7
REMARK    4  A    between atoms: C_8  and  C_9
REMARK    5  A    between atoms: C_8  and  C_11
REMARK    6  A    between atoms: N_13  and  C_14
REMARK    7  A    between atoms: C_14  and  C_15
REMARK                            x       y       z     vdW  Elec       q    Type
REMARK                         _______ _______ _______ _____ _____    ______ ____
ROOT
ATOM      1  C   UNL     1       2.159   6.143  20.156  0.00  0.00    +0.000 C 
ATOM      2  O   UNL     1       1.810   5.376  21.043  0.00  0.00    +0.000 OA
ATOM      3  N   UNL     1       2.019   7.510  20.254  0.00  0.00    +0.000 N 
ATOM      4  H   UNL     1       2.325   8.128  19.514  0.00  0.00    +0.000 HD
ENDROOT
BRANCH   1   6
ATOM      5  C   UNL     1       4.056   5.928  18.578  0.00  0.00    +0.000 C 
ATOM      6  C   UNL     1       2.771   5.626  18.900  0.00  0.00    +0.000 C 
BRANCH   5  10
ATOM      7  C   UNL     1       6.020   4.570  14.954  0.00  0.00    +0.000 A 
ATOM      8  C   UNL     1       5.534   5.872  15.063  0.00  0.00    +0.000 A 
ATOM      9  C   UNL     1       4.924   6.319  16.251  0.00  0.00    +0.000 A 
ATOM     10  C   UNL     1       4.775   5.467  17.353  0.00  0.00    +0.000 A 
ATOM     11  C   UNL     1       5.296   4.167  17.252  0.00  0.00    +0.000 A 
ATOM     12  C   UNL     1       5.907   3.722  16.054  0.00  0.00    +0.000 A 
BRANCH   7  14
ATOM     13  C   UNL     1       5.695   3.528  12.838  0.00  0.00    +0.000 C 
ATOM     14  O   UNL     1       6.546   4.234  13.736  0.00  0.00    +0.000 OA
ENDBRANCH   7  14
ENDBRANCH   5  10
BRANCH   6  15
ATOM     15  C   UNL     1       2.028   4.692  17.960  0.00  0.00    +0.000 C 
ATOM     16  N   UNL     1       1.411   3.917  17.178  0.00  0.00    +0.000 NA
ENDBRANCH   6  15
ENDBRANCH   1   6
BRANCH   3  17
ATOM     17  C   UNL     1       1.476   8.130  21.444  0.00  0.00    +0.000 C 
BRANCH  17  18
ATOM     18  C   UNL     1       0.614   9.318  21.097  0.00  0.00    +0.000 A 
ATOM     19  C   UNL     1       0.450   9.705  19.760  0.00  0.00    +0.000 A 
ATOM     20  C   UNL     1      -0.354  10.800  19.432  0.00  0.00    +0.000 A 
ATOM     21  C   UNL     1      -1.000  11.526  20.437  0.00  0.00    +0.000 A 
ATOM     22 CL   UNL     1      -1.985  12.863  19.959  0.00  0.00    +0.000 Cl
ATOM     23  C   UNL     1      -0.834  11.157  21.775  0.00  0.00    +0.000 A 
ATOM     24 CL   UNL     1      -1.598  12.005  23.073  0.00  0.00    +0.000 Cl
ATOM     25  C   UNL     1      -0.027  10.060  22.102  0.00  0.00    +0.000 A 
ENDBRANCH  17  18
ENDBRANCH   3  17
TORSDOF 6
ENDMDL
MODEL 2
REMARK VINA RESULT:      -7.2      0.246      1.008
REMARK  Name = 
REMARK  7 active torsions:
REMARK  status: ('A' for Active; 'I' for Inactive)
REMARK    1  A    between atoms: C_1  and  O_2
REMARK    2  A    between atoms: O_2  and  C_3
REMARK    3  A    between atoms: C_6  and  C_7
REMARK    4  A    between atoms: C_8  and  C_9
REMARK    5  A    between atoms: C_8  and  C_11
REMARK    6  A    between atoms: N_13  and  C_14
REMARK    7  A    between atoms: C_14  and  C_15
REMARK                            x       y       z     vdW  Elec       q    Type
REMARK                         _______ _______ _______ _____ _____    ______ ____
ROOT
ATOM      1  C   UNL     1       1.925   6.222  20.173  0.00  0.00    +0.000 C 
ATOM      2  O   UNL     1       1.352   5.485  20.965  0.00  0.00    +0.000 OA
ATOM      3  N   UNL     1       2.043   7.580  20.370  0.00  0.00    +0.000 N 
ATOM      4  H   UNL     1       2.530   8.171  19.710  0.00  0.00    +0.000 HD
ENDROOT
BRANCH   1   6
ATOM      5  C   UNL     1       3.799   6.031  18.565  0.00  0.00    +0.000 C 
ATOM      6  C   UNL     1       2.541   5.674  18.932  0.00  0.00    +0.000 C 
BRANCH   5  10
ATOM      7  C   UNL     1       6.015   4.639  15.103  0.00  0.00    +0.000 A 
ATOM      8  C   UNL     1       5.714   3.777  16.157  0.00  0.00    +0.000 A 
ATOM      9  C   UNL     1       4.969   4.224  17.265  0.00  0.00    +0.000 A 
ATOM     10  C   UNL     1       4.519   5.548  17.349  0.00  0.00    +0.000 A 
ATOM     11  C   UNL     1       4.794   6.403  16.270  0.00  0.00    +0.000 A 
ATOM     12  C   UNL     1       5.546   5.950  15.159  0.00  0.00    +0.000 A 
BRANCH   7  14
ATOM     13  C   UNL     1       6.103   3.603  12.961  0.00  0.00    +0.000 C 
ATOM     14  O   UNL     1       6.786   4.107  14.106  0.00  0.00    +0.000 OA
ENDBRANCH   7  14
ENDBRANCH   5  10
BRANCH   6  15
ATOM     15  C   UNL     1       1.835   4.651  18.059  0.00  0.00    +0.000 C 
ATOM     16  N   UNL     1       1.248   3.801  17.334  0.00  0.00    +0.000 NA
ENDBRANCH   6  15
ENDBRANCH   1   6
BRANCH   3  17
ATOM     17  C   UNL     1       1.520   8.218  21.559  0.00  0.00    +0.000 C 
BRANCH  17  18
ATOM     18  C   UNL     1       0.605   9.364  21.208  0.00  0.00    +0.000 A 
ATOM     19  C   UNL     1       0.428   9.742  19.870  0.00  0.00    +0.000 A 
ATOM     20  C   UNL     1      -0.425  10.798  19.538  0.00  0.00    +0.000 A 
ATOM     21  C   UNL     1      -1.107  11.495  20.539  0.00  0.00    +0.000 A 
ATOM     22 CL   UNL     1      -2.152  12.784  20.056  0.00  0.00    +0.000 Cl
ATOM     23  C   UNL     1      -0.929  11.135  21.878  0.00  0.00    +0.000 A 
ATOM     24 CL   UNL     1      -1.736  11.949  23.172  0.00  0.00    +0.000 Cl
ATOM     25  C   UNL     1      -0.073  10.077  22.210  0.00  0.00    +0.000 A 
ENDBRANCH  17  18
ENDBRANCH   3  17
TORSDOF 6
ENDMDL
MODEL 3
REMARK VINA RESULT:      -7.1      1.387      1.682
REMARK  Name = 
REMARK  7 active torsions:
REMARK  status: ('A' for Active; 'I' for Inactive)
REMARK    1  A    between atoms: C_1  and  O_2
REMARK    2  A    between atoms: O_2  and  C_3
REMARK    3  A    between atoms: C_6  and  C_7
REMARK    4  A    between atoms: C_8  and  C_9
REMARK    5  A    between atoms: C_8  and  C_11
REMARK    6  A    between atoms: N_13  and  C_14
REMARK    7  A    between atoms: C_14  and  C_15
REMARK                            x       y       z     vdW  Elec       q    Type
REMARK                         _______ _______ _______ _____ _____    ______ ____
ROOT
ATOM      1  C   UNL     1       2.861   5.581  20.140  0.00  0.00    +0.000 C 
ATOM      2  O   UNL     1       2.528   4.674  20.891  0.00  0.00    +0.000 OA
ATOM      3  N   UNL     1       2.303   6.838  20.195  0.00  0.00    +0.000 N 
ATOM      4  H   UNL     1       2.601   7.578  19.574  0.00  0.00    +0.000 HD
ENDROOT
BRANCH   1   6
ATOM      5  C   UNL     1       3.590   5.254  17.796  0.00  0.00    +0.000 C 
ATOM      6  C   UNL     1       3.916   5.366  19.110  0.00  0.00    +0.000 C 
BRANCH   5  10
ATOM      7  C   UNL     1       6.290   4.654  14.452  0.00  0.00    +0.000 A 
ATOM      8  C   UNL     1       5.934   5.937  14.865  0.00  0.00    +0.000 A 
ATOM      9  C   UNL     1       5.081   6.128  15.970  0.00  0.00    +0.000 A 
ATOM     10  C   UNL     1       4.556   5.040  16.677  0.00  0.00    +0.000 A 
ATOM     11  C   UNL     1       4.945   3.751  16.279  0.00  0.00    +0.000 A 
ATOM     12  C   UNL     1       5.801   3.563  15.166  0.00  0.00    +0.000 A 
BRANCH   7  14
ATOM     13  C   UNL     1       6.667   3.705  12.301  0.00  0.00    +0.000 C 
ATOM     14  O   UNL     1       7.083   4.591  13.338  0.00  0.00    +0.000 OA
ENDBRANCH   7  14
ENDBRANCH   5  10
BRANCH   6  15
ATOM     15  C   UNL     1       5.395   5.328  19.457  0.00  0.00    +0.000 C 
ATOM     16  N   UNL     1       6.622   5.298  19.745  0.00  0.00    +0.000 NA
ENDBRANCH   6  15
ENDBRANCH   1   6
BRANCH   3  17
ATOM     17  C   UNL     1       1.300   7.176  21.183  0.00  0.00    +0.000 C 
BRANCH  17  18
ATOM     18  C   UNL     1       0.802   8.587  20.996  0.00  0.00    +0.000 A 
ATOM     19  C   UNL     1       1.102   9.293  19.822  0.00  0.00    +0.000 A 
ATOM     20  C   UNL     1       0.636  10.598  19.640  0.00  0.00    +0.000 A 
ATOM     21  C   UNL     1      -0.129  11.218  20.632  0.00  0.00    +0.000 A 
ATOM     22 CL   UNL     1      -0.678  12.830  20.337  0.00  0.00    +0.000 Cl
ATOM     23  C   UNL     1      -0.424  10.529  21.812  0.00  0.00    +0.000 A 
ATOM     24 CL   UNL     1      -1.363  11.228  23.084  0.00  0.00    +0.000 Cl
ATOM     25  C   UNL     1       0.044   9.221  21.994  0.00  0.00    +0.000 A 
ENDBRANCH  17  18
ENDBRANCH   3  17
TORSDOF 6
ENDMDL
MODEL 4
REMARK VINA RESULT:      -7.1      1.433      1.504
REMARK  Name = 
REMARK  7 active torsions:
REMARK  status: ('A' for Active; 'I' for Inactive)
REMARK    1  A    between atoms: C_1  and  O_2
REMARK    2  A    between atoms: O_2  and  C_3
REMARK    3  A    between atoms: C_6  and  C_7
REMARK    4  A    between atoms: C_8  and  C_9
REMARK    5  A    between atoms: C_8  and  C_11
REMARK    6  A    between atoms: N_13  and  C_14
REMARK    7  A    between atoms: C_14  and  C_15
REMARK                            x       y       z     vdW  Elec       q    Type
REMARK                         _______ _______ _______ _____ _____    ______ ____
ROOT
ATOM      1  C   UNL     1       2.218   5.922  20.219  0.00  0.00    +0.000 C 
ATOM      2  O   UNL     1       1.460   5.122  20.751  0.00  0.00    +0.000 OA
ATOM      3  N   UNL     1       2.120   7.283  20.409  0.00  0.00    +0.000 N 
ATOM      4  H   UNL     1       2.763   7.927  19.970  0.00  0.00    +0.000 HD
ENDROOT
BRANCH   1   6
ATOM      5  C   UNL     1       3.742   6.221  18.290  0.00  0.00    +0.000 C 
ATOM      6  C   UNL     1       3.314   5.453  19.325  0.00  0.00    +0.000 C 
BRANCH   5  10
ATOM      7  C   UNL     1       6.875   5.291  15.434  0.00  0.00    +0.000 A 
ATOM      8  C   UNL     1       7.103   6.175  16.488  0.00  0.00    +0.000 A 
ATOM      9  C   UNL     1       6.094   6.451  17.430  0.00  0.00    +0.000 A 
ATOM     10  C   UNL     1       4.828   5.859  17.331  0.00  0.00    +0.000 A 
ATOM     11  C   UNL     1       4.614   4.943  16.288  0.00  0.00    +0.000 A 
ATOM     12  C   UNL     1       5.631   4.670  15.342  0.00  0.00    +0.000 A 
BRANCH   7  14
ATOM     13  C   UNL     1       7.576   5.041  13.173  0.00  0.00    +0.000 C 
ATOM     14  O   UNL     1       7.912   5.139  14.554  0.00  0.00    +0.000 OA
ENDBRANCH   7  14
ENDBRANCH   5  10
BRANCH   6  15
ATOM     15  C   UNL     1       4.047   4.143  19.558  0.00  0.00    +0.000 C 
ATOM     16  N   UNL     1       4.656   3.056  19.752  0.00  0.00    +0.000 NA
ENDBRANCH   6  15
ENDBRANCH   1   6
BRANCH   3  17
ATOM     17  C   UNL     1       1.121   7.852  21.289  0.00  0.00    +0.000 C 
BRANCH  17  18
ATOM     18  C   UNL     1       0.587   9.152  20.742  0.00  0.00    +0.000 A 
ATOM     19  C   UNL     1       0.917   9.560  19.442  0.00  0.00    +0.000 A 
ATOM     20  C   UNL     1       0.418  10.760  18.927  0.00  0.00    +0.000 A 
ATOM     21  C   UNL     1      -0.411  11.571  19.707  0.00  0.00    +0.000 A 
ATOM     22 CL   UNL     1      -0.998  13.036  19.003  0.00  0.00    +0.000 Cl
ATOM     23  C   UNL     1      -0.737  11.180  21.009  0.00  0.00    +0.000 A 
ATOM     24 CL   UNL     1      -1.755  12.129  22.035  0.00  0.00    +0.000 Cl
ATOM     25  C   UNL     1      -0.235   9.978  21.524  0.00  0.00    +0.000 A 
ENDBRANCH  17  18
ENDBRANCH   3  17
TORSDOF 6
ENDMDL
MODEL 5
REMARK VINA RESULT:      -7.1      5.685      7.682
REMARK  Name = 
REMARK  7 active torsions:
REMARK  status: ('A' for Active; 'I' for Inactive)
REMARK    1  A    between atoms: C_1  and  O_2
REMARK    2  A    between atoms: O_2  and  C_3
REMARK    3  A    between atoms: C_6  and  C_7
REMARK    4  A    between atoms: C_8  and  C_9
REMARK    5  A    between atoms: C_8  and  C_11
REMARK    6  A    between atoms: N_13  and  C_14
REMARK    7  A    between atoms: C_14  and  C_15
REMARK                            x       y       z     vdW  Elec       q    Type
REMARK                         _______ _______ _______ _____ _____    ______ ____
ROOT
ATOM      1  C   UNL     1       7.389   7.424  17.230  0.00  0.00    +0.000 C 
ATOM      2  O   UNL     1       7.985   7.058  16.226  0.00  0.00    +0.000 OA
ATOM      3  N   UNL     1       7.641   8.627  17.851  0.00  0.00    +0.000 N 
ATOM      4  H   UNL     1       7.129   8.916  18.673  0.00  0.00    +0.000 HD
ENDROOT
BRANCH   1   6
ATOM      5  C   UNL     1       5.095   6.492  17.288  0.00  0.00    +0.000 C 
ATOM      6  C   UNL     1       6.333   6.569  17.841  0.00  0.00    +0.000 C 
BRANCH   5  10
ATOM      7  C   UNL     1       1.885   4.056  18.898  0.00  0.00    +0.000 A 
ATOM      8  C   UNL     1       2.233   5.268  19.492  0.00  0.00    +0.000 A 
ATOM      9  C   UNL     1       3.255   6.070  18.949  0.00  0.00    +0.000 A 
ATOM     10  C   UNL     1       3.960   5.671  17.807  0.00  0.00    +0.000 A 
ATOM     11  C   UNL     1       3.583   4.467  17.192  0.00  0.00    +0.000 A 
ATOM     12  C   UNL     1       2.557   3.662  17.742  0.00  0.00    +0.000 A 
BRANCH   7  14
ATOM     13  C   UNL     1       1.144   3.027  20.913  0.00  0.00    +0.000 C 
ATOM     14  O   UNL     1       0.913   3.339  19.542  0.00  0.00    +0.000 OA
ENDBRANCH   7  14
ENDBRANCH   5  10
BRANCH   6  15
ATOM     15  C   UNL     1       6.597   5.697  19.057  0.00  0.00    +0.000 C 
ATOM     16  N   UNL     1       6.816   4.972  20.066  0.00  0.00    +0.000 NA
ENDBRANCH   6  15
ENDBRANCH   1   6
BRANCH   3  17
ATOM     17  C   UNL     1       8.615   9.559  17.323  0.00  0.00    +0.000 C 
BRANCH  17  18
ATOM     18  C   UNL     1       8.964  10.618  18.338  0.00  0.00    +0.000 A 
ATOM     19  C   UNL     1       9.297  10.256  19.651  0.00  0.00    +0.000 A 
ATOM     20  C   UNL     1       9.630  11.233  20.594  0.00  0.00    +0.000 A 
ATOM     21  C   UNL     1       9.628  12.585  20.239  0.00  0.00    +0.000 A 
ATOM     22 CL   UNL     1      10.057  13.737  21.453  0.00  0.00    +0.000 Cl
ATOM     23  C   UNL     1       9.286  12.959  18.936  0.00  0.00    +0.000 A 
ATOM     24 CL   UNL     1       9.260  14.608  18.421  0.00  0.00    +0.000 Cl
ATOM     25  C   UNL     1       8.952  11.979  17.992  0.00  0.00    +0.000 A 
ENDBRANCH  17  18
ENDBRANCH   3  17
TORSDOF 6
ENDMDL
MODEL 6
REMARK VINA RESULT:      -7.0      0.671      1.750
REMARK  Name = 
REMARK  7 active torsions:
REMARK  status: ('A' for Active; 'I' for Inactive)
REMARK    1  A    between atoms: C_1  and  O_2
REMARK    2  A    between atoms: O_2  and  C_3
REMARK    3  A    between atoms: C_6  and  C_7
REMARK    4  A    between atoms: C_8  and  C_9
REMARK    5  A    between atoms: C_8  and  C_11
REMARK    6  A    between atoms: N_13  and  C_14
REMARK    7  A    between atoms: C_14  and  C_15
REMARK                            x       y       z     vdW  Elec       q    Type
REMARK                         _______ _______ _______ _____ _____    ______ ____
ROOT
ATOM      1  C   UNL     1       2.207   5.977  20.340  0.00  0.00    +0.000 C 
ATOM      2  O   UNL     1       2.133   5.178  21.263  0.00  0.00    +0.000 OA
ATOM      3  N   UNL     1       1.828   7.295  20.462  0.00  0.00    +0.000 N 
ATOM      4  H   UNL     1       1.908   7.944  19.691  0.00  0.00    +0.000 HD
ENDROOT
BRANCH   1   6
ATOM      5  C   UNL     1       4.020   5.791  18.662  0.00  0.00    +0.000 C 
ATOM      6  C   UNL     1       2.727   5.556  19.009  0.00  0.00    +0.000 C 
BRANCH   5  10
ATOM      7  C   UNL     1       5.987   4.704  14.950  0.00  0.00    +0.000 A 
ATOM      8  C   UNL     1       5.760   3.756  15.946  0.00  0.00    +0.000 A 
ATOM      9  C   UNL     1       5.095   4.105  17.137  0.00  0.00    +0.000 A 
ATOM     10  C   UNL     1       4.653   5.415  17.363  0.00  0.00    +0.000 A 
ATOM     11  C   UNL     1       4.852   6.359  16.342  0.00  0.00    +0.000 A 
ATOM     12  C   UNL     1       5.524   6.003  15.147  0.00  0.00    +0.000 A 
BRANCH   7  14
ATOM     13  C   UNL     1       5.959   3.520  12.885  0.00  0.00    +0.000 C 
ATOM     14  O   UNL     1       6.687   4.262  13.860  0.00  0.00    +0.000 OA
ENDBRANCH   7  14
ENDBRANCH   5  10
BRANCH   6  15
ATOM     15  C   UNL     1       1.876   4.793  18.008  0.00  0.00    +0.000 C 
ATOM     16  N   UNL     1       1.168   4.160  17.178  0.00  0.00    +0.000 NA
ENDBRANCH   6  15
ENDBRANCH   1   6
BRANCH   3  17
ATOM     17  C   UNL     1       1.347   7.829  21.719  0.00  0.00    +0.000 C 
BRANCH  17  18
ATOM     18  C   UNL     1       0.516   9.069  21.505  0.00  0.00    +0.000 A 
ATOM     19  C   UNL     1      -0.009   9.766  22.602  0.00  0.00    +0.000 A 
ATOM     20  C   UNL     1      -0.773  10.920  22.410  0.00  0.00    +0.000 A 
ATOM     21  C   UNL     1      -1.029  11.389  21.119  0.00  0.00    +0.000 A 
ATOM     22 CL   UNL     1      -1.974  12.827  20.956  0.00  0.00    +0.000 Cl
ATOM     23  C   UNL     1      -0.521  10.696  20.016  0.00  0.00    +0.000 A 
ATOM     24 CL   UNL     1      -0.795  11.212  18.389  0.00  0.00    +0.000 Cl
ATOM     25  C   UNL     1       0.244   9.538  20.210  0.00  0.00    +0.000 A 
ENDBRANCH  17  18
ENDBRANCH   3  17
TORSDOF 6
ENDMDL
MODEL 7
REMARK VINA RESULT:      -7.0      1.418      1.556
REMARK  Name = 
REMARK  7 active torsions:
REMARK  status: ('A' for Active; 'I' for Inactive)
REMARK    1  A    between atoms: C_1  and  O_2
REMARK    2  A    between atoms: O_2  and  C_3
REMARK    3  A    between atoms: C_6  and  C_7
REMARK    4  A    between atoms: C_8  and  C_9
REMARK    5  A    between atoms: C_8  and  C_11
REMARK    6  A    between atoms: N_13  and  C_14
REMARK    7  A    between atoms: C_14  and  C_15
REMARK                            x       y       z     vdW  Elec       q    Type
REMARK                         _______ _______ _______ _____ _____    ______ ____
ROOT
ATOM      1  C   UNL     1       2.207   5.740  20.355  0.00  0.00    +0.000 C 
ATOM      2  O   UNL     1       1.572   4.854  20.911  0.00  0.00    +0.000 OA
ATOM      3  N   UNL     1       1.949   7.078  20.550  0.00  0.00    +0.000 N 
ATOM      4  H   UNL     1       2.493   7.796  20.090  0.00  0.00    +0.000 HD
ENDROOT
BRANCH   1   6
ATOM      5  C   UNL     1       3.722   6.293  18.475  0.00  0.00    +0.000 C 
ATOM      6  C   UNL     1       3.321   5.407  19.423  0.00  0.00    +0.000 C 
BRANCH   5  10
ATOM      7  C   UNL     1       6.931   5.518  15.659  0.00  0.00    +0.000 A 
ATOM      8  C   UNL     1       5.623   5.124  15.382  0.00  0.00    +0.000 A 
ATOM      9  C   UNL     1       4.579   5.404  16.285  0.00  0.00    +0.000 A 
ATOM     10  C   UNL     1       4.823   6.073  17.490  0.00  0.00    +0.000 A 
ATOM     11  C   UNL     1       6.136   6.499  17.749  0.00  0.00    +0.000 A 
ATOM     12  C   UNL     1       7.183   6.213  16.839  0.00  0.00    +0.000 A 
BRANCH   7  14
ATOM     13  C   UNL     1       7.399   4.858  13.419  0.00  0.00    +0.000 C 
ATOM     14  O   UNL     1       7.869   5.148  14.733  0.00  0.00    +0.000 OA
ENDBRANCH   7  14
ENDBRANCH   5  10
BRANCH   6  15
ATOM     15  C   UNL     1       4.102   4.108  19.523  0.00  0.00    +0.000 C 
ATOM     16  N   UNL     1       4.750   3.029  19.606  0.00  0.00    +0.000 NA
ENDBRANCH   6  15
ENDBRANCH   1   6
BRANCH   3  17
ATOM     17  C   UNL     1       0.918   7.523  21.464  0.00  0.00    +0.000 C 
BRANCH  17  18
ATOM     18  C   UNL     1       0.486   8.935  21.158  0.00  0.00    +0.000 A 
ATOM     19  C   UNL     1       0.764   9.502  19.907  0.00  0.00    +0.000 A 
ATOM     20  C   UNL     1       0.359  10.808  19.614  0.00  0.00    +0.000 A 
ATOM     21  C   UNL     1      -0.324  11.565  20.570  0.00  0.00    +0.000 A 
ATOM     22 CL   UNL     1      -0.803  13.168  20.137  0.00  0.00    +0.000 Cl
ATOM     23  C   UNL     1      -0.596  11.014  21.825  0.00  0.00    +0.000 A 
ATOM     24 CL   UNL     1      -1.435  11.886  23.059  0.00  0.00    +0.000 Cl
ATOM     25  C   UNL     1      -0.188   9.706  22.118  0.00  0.00    +0.000 A 
ENDBRANCH  17  18
ENDBRANCH   3  17
TORSDOF 6
ENDMDL
MODEL 8
REMARK VINA RESULT:      -7.0      2.357      3.242
REMARK  Name = 
REMARK  7 active torsions:
REMARK  status: ('A' for Active; 'I' for Inactive)
REMARK    1  A    between atoms: C_1  and  O_2
REMARK    2  A    between atoms: O_2  and  C_3
REMARK    3  A    between atoms: C_6  and  C_7
REMARK    4  A    between atoms: C_8  and  C_9
REMARK    5  A    between atoms: C_8  and  C_11
REMARK    6  A    between atoms: N_13  and  C_14
REMARK    7  A    between atoms: C_14  and  C_15
REMARK                            x       y       z     vdW  Elec       q    Type
REMARK                         _______ _______ _______ _____ _____    ______ ____
ROOT
ATOM      1  C   UNL     1       1.264   8.514  20.271  0.00  0.00    +0.000 C 
ATOM      2  O   UNL     1       0.763   8.449  21.386  0.00  0.00    +0.000 OA
ATOM      3  N   UNL     1       1.168   9.633  19.474  0.00  0.00    +0.000 N 
ATOM      4  H   UNL     1       1.599   9.672  18.560  0.00  0.00    +0.000 HD
ENDROOT
BRANCH   1   6
ATOM      5  C   UNL     1       2.686   7.475  18.530  0.00  0.00    +0.000 C 
ATOM      6  C   UNL     1       2.023   7.362  19.710  0.00  0.00    +0.000 C 
BRANCH   5  10
ATOM      7  C   UNL     1       4.959   4.391  16.491  0.00  0.00    +0.000 A 
ATOM      8  C   UNL     1       5.495   5.662  16.694  0.00  0.00    +0.000 A 
ATOM      9  C   UNL     1       4.767   6.651  17.382  0.00  0.00    +0.000 A 
ATOM     10  C   UNL     1       3.480   6.394  17.872  0.00  0.00    +0.000 A 
ATOM     11  C   UNL     1       2.958   5.103  17.696  0.00  0.00    +0.000 A 
ATOM     12  C   UNL     1       3.693   4.112  17.001  0.00  0.00    +0.000 A 
BRANCH   7  14
ATOM     13  C   UNL     1       6.259   4.015  14.532  0.00  0.00    +0.000 C 
ATOM     14  O   UNL     1       5.737   3.529  15.766  0.00  0.00    +0.000 OA
ENDBRANCH   7  14
ENDBRANCH   5  10
BRANCH   6  15
ATOM     15  C   UNL     1       2.153   6.039  20.446  0.00  0.00    +0.000 C 
ATOM     16  N   UNL     1       2.260   4.940  21.057  0.00  0.00    +0.000 NA
ENDBRANCH   6  15
ENDBRANCH   1   6
BRANCH   3  17
ATOM     17  C   UNL     1       0.491  10.828  19.930  0.00  0.00    +0.000 C 
BRANCH  17  18
ATOM     18  C   UNL     1      -0.831  11.010  19.226  0.00  0.00    +0.000 A 
ATOM     19  C   UNL     1      -1.805  11.864  19.763  0.00  0.00    +0.000 A 
ATOM     20  C   UNL     1      -3.028  12.043  19.111  0.00  0.00    +0.000 A 
ATOM     21  C   UNL     1      -3.296  11.366  17.917  0.00  0.00    +0.000 A 
ATOM     22 CL   UNL     1      -4.826  11.642  17.161  0.00  0.00    +0.000 Cl
ATOM     23  C   UNL     1      -2.338  10.504  17.379  0.00  0.00    +0.000 A 
ATOM     24 CL   UNL     1      -2.595   9.631  15.909  0.00  0.00    +0.000 Cl
ATOM     25  C   UNL     1      -1.112  10.324  18.035  0.00  0.00    +0.000 A 
ENDBRANCH  17  18
ENDBRANCH   3  17
TORSDOF 6
ENDMDL
MODEL 9
REMARK VINA RESULT:      -6.9      2.104      2.807
REMARK  Name = 
REMARK  7 active torsions:
REMARK  status: ('A' for Active; 'I' for Inactive)
REMARK    1  A    between atoms: C_1  and  O_2
REMARK    2  A    between atoms: O_2  and  C_3
REMARK    3  A    between atoms: C_6  and  C_7
REMARK    4  A    between atoms: C_8  and  C_9
REMARK    5  A    between atoms: C_8  and  C_11
REMARK    6  A    between atoms: N_13  and  C_14
REMARK    7  A    between atoms: C_14  and  C_15
REMARK                            x       y       z     vdW  Elec       q    Type
REMARK                         _______ _______ _______ _____ _____    ______ ____
ROOT
ATOM      1  C   UNL     1       1.921   7.939  19.336  0.00  0.00    +0.000 C 
ATOM      2  O   UNL     1       1.830   7.750  20.542  0.00  0.00    +0.000 OA
ATOM      3  N   UNL     1       1.420   9.062  18.716  0.00  0.00    +0.000 N 
ATOM      4  H   UNL     1       1.516   9.205  17.720  0.00  0.00    +0.000 HD
ENDROOT
BRANCH   1   6
ATOM      5  C   UNL     1       3.851   7.172  17.986  0.00  0.00    +0.000 C 
ATOM      6  C   UNL     1       2.599   6.943  18.460  0.00  0.00    +0.000 C 
BRANCH   5  10
ATOM      7  C   UNL     1       5.991   4.455  15.365  0.00  0.00    +0.000 A 
ATOM      8  C   UNL     1       5.581   5.711  14.917  0.00  0.00    +0.000 A 
ATOM      9  C   UNL     1       4.914   6.602  15.780  0.00  0.00    +0.000 A 
ATOM     10  C   UNL     1       4.629   6.251  17.105  0.00  0.00    +0.000 A 
ATOM     11  C   UNL     1       5.074   5.000  17.562  0.00  0.00    +0.000 A 
ATOM     12  C   UNL     1       5.743   4.106  16.690  0.00  0.00    +0.000 A 
BRANCH   7  14
ATOM     13  C   UNL     1       6.049   3.708  13.105  0.00  0.00    +0.000 C 
ATOM     14  O   UNL     1       6.585   3.657  14.425  0.00  0.00    +0.000 OA
ENDBRANCH   7  14
ENDBRANCH   5  10
BRANCH   6  15
ATOM     15  C   UNL     1       1.966   5.607  18.108  0.00  0.00    +0.000 C 
ATOM     16  N   UNL     1       1.441   4.498  17.817  0.00  0.00    +0.000 NA
ENDBRANCH   6  15
ENDBRANCH   1   6
BRANCH   3  17
ATOM     17  C   UNL     1       0.778  10.117  19.471  0.00  0.00    +0.000 C 
BRANCH  17  18
ATOM     18  C   UNL     1      -0.546  10.499  18.860  0.00  0.00    +0.000 A 
ATOM     19  C   UNL     1      -1.382  11.421  19.505  0.00  0.00    +0.000 A 
ATOM     20  C   UNL     1      -2.607  11.786  18.939  0.00  0.00    +0.000 A 
ATOM     21  C   UNL     1      -3.016  11.227  17.725  0.00  0.00    +0.000 A 
ATOM     22 CL   UNL     1      -4.539  11.729  17.080  0.00  0.00    +0.000 Cl
ATOM     23  C   UNL     1      -2.197  10.298  17.079  0.00  0.00    +0.000 A 
ATOM     24 CL   UNL     1      -2.634   9.563  15.576  0.00  0.00    +0.000 Cl
ATOM     25  C   UNL     1      -0.970   9.933  17.647  0.00  0.00    +0.000 A 
ENDBRANCH  17  18
ENDBRANCH   3  17
TORSDOF 6
ENDMDL
