MODEL 1
REMARK VINA RESULT:      -6.5      0.000      0.000
REMARK  Name = 
REMARK  9 active torsions:
REMARK  status: ('A' for Active; 'I' for Inactive)
REMARK    1  A    between atoms: C_1  and  C_2
REMARK    2  A    between atoms: C_2  and  C_3
REMARK    3  A    between atoms: C_3  and  C_4
REMARK    4  A    between atoms: C_4  and  C_5
REMARK    5  A    between atoms: C_5  and  C_6
REMARK    6  A    between atoms: C_6  and  C_7
REMARK    7  A    between atoms: C_7  and  C_8
REMARK    8  A    between atoms: C_8  and  N_9
REMARK    9  A    between atoms: C_10  and  C_11
REMARK                            x       y       z     vdW  Elec       q    Type
REMARK                         _______ _______ _______ _____ _____    ______ ____
ROOT
ATOM      1  N   UNL     1       4.510   4.777  17.257  0.00  0.00    +0.000 N 
ATOM      2  C   UNL     1       4.441   6.060  17.574  0.00  0.00    +0.000 A 
ATOM      3  C   UNL     1       5.369   7.179  17.258  0.00  0.00    +0.000 C 
ATOM      4  S   UNL     1       3.025   6.405  18.479  0.00  0.00    +0.000 S 
ATOM      5  C   UNL     1       2.528   4.764  18.445  0.00  0.00    +0.000 A 
ATOM      6  C   UNL     1       1.381   4.204  19.024  0.00  0.00    +0.000 A 
ATOM      7  C   UNL     1       1.169   2.833  18.871  0.00  0.00    +0.000 A 
ATOM      8  C   UNL     1       2.075   2.049  18.162  0.00  0.00    +0.000 A 
ATOM      9  C   UNL     1       3.221   2.618  17.587  0.00  0.00    +0.000 A 
ATOM     10  C   UNL     1       3.451   4.004  17.738  0.00  0.00    +0.000 A 
ENDROOT
BRANCH   1  11
ATOM     11  C   UNL     1       5.604   4.177  16.470  0.00  0.00    +0.000 C 
BRANCH  11  12
ATOM     12  C   UNL     1       5.442   4.465  14.972  0.00  0.00    +0.000 C 
BRANCH  12  13
ATOM     13  C   UNL     1       6.578   3.924  14.096  0.00  0.00    +0.000 C 
BRANCH  13  14
ATOM     14  C   UNL     1       6.273   4.023  12.601  0.00  0.00    +0.000 C 
BRANCH  14  15
ATOM     15  C   UNL     1       6.423   2.671  11.906  0.00  0.00    +0.000 C 
BRANCH  15  16
ATOM     16  C   UNL     1       5.102   2.239  11.270  0.00  0.00    +0.000 C 
BRANCH  16  18
ATOM     17  C   UNL     1       3.333   3.579  10.087  0.00  0.00    +0.000 C 
ATOM     18  C   UNL     1       4.054   3.341  11.402  0.00  0.00    +0.000 C 
ENDBRANCH  16  18
ENDBRANCH  15  16
ENDBRANCH  14  15
ENDBRANCH  13  14
ENDBRANCH  12  13
ENDBRANCH  11  12
ENDBRANCH   1  11
TORSDOF 7
ENDMDL
MODEL 2
REMARK VINA RESULT:      -6.4      1.372      1.551
REMARK  Name = 
REMARK  9 active torsions:
REMARK  status: ('A' for Active; 'I' for Inactive)
REMARK    1  A    between atoms: C_1  and  C_2
REMARK    2  A    between atoms: C_2  and  C_3
REMARK    3  A    between atoms: C_3  and  C_4
REMARK    4  A    between atoms: C_4  and  C_5
REMARK    5  A    between atoms: C_5  and  C_6
REMARK    6  A    between atoms: C_6  and  C_7
REMARK    7  A    between atoms: C_7  and  C_8
REMARK    8  A    between atoms: C_8  and  N_9
REMARK    9  A    between atoms: C_10  and  C_11
REMARK                            x       y       z     vdW  Elec       q    Type
REMARK                         _______ _______ _______ _____ _____    ______ ____
ROOT
ATOM      1  N   UNL     1       4.335   5.004  18.408  0.00  0.00    +0.000 N 
ATOM      2  C   UNL     1       3.958   6.230  18.085  0.00  0.00    +0.000 A 
ATOM      3  C   UNL     1       4.572   7.207  17.144  0.00  0.00    +0.000 C 
ATOM      4  S   UNL     1       2.525   6.683  18.910  0.00  0.00    +0.000 S 
ATOM      5  C   UNL     1       2.449   5.180  19.732  0.00  0.00    +0.000 A 
ATOM      6  C   UNL     1       1.492   4.761  20.667  0.00  0.00    +0.000 A 
ATOM      7  C   UNL     1       1.622   3.485  21.215  0.00  0.00    +0.000 A 
ATOM      8  C   UNL     1       2.676   2.655  20.842  0.00  0.00    +0.000 A 
ATOM      9  C   UNL     1       3.630   3.083  19.908  0.00  0.00    +0.000 A 
ATOM     10  C   UNL     1       3.513   4.374  19.346  0.00  0.00    +0.000 A 
ENDROOT
BRANCH   1  11
ATOM     11  C   UNL     1       5.523   4.329  17.853  0.00  0.00    +0.000 C 
BRANCH  11  12
ATOM     12  C   UNL     1       5.249   3.773  16.450  0.00  0.00    +0.000 C 
BRANCH  12  13
ATOM     13  C   UNL     1       6.038   4.460  15.330  0.00  0.00    +0.000 C 
BRANCH  13  14
ATOM     14  C   UNL     1       5.409   4.258  13.950  0.00  0.00    +0.000 C 
BRANCH  14  15
ATOM     15  C   UNL     1       6.317   3.440  13.033  0.00  0.00    +0.000 C 
BRANCH  15  16
ATOM     16  C   UNL     1       5.549   2.954  11.804  0.00  0.00    +0.000 C 
BRANCH  16  18
ATOM     17  C   UNL     1       3.393   3.138  10.522  0.00  0.00    +0.000 C 
ATOM     18  C   UNL     1       4.204   3.666  11.693  0.00  0.00    +0.000 C 
ENDBRANCH  16  18
ENDBRANCH  15  16
ENDBRANCH  14  15
ENDBRANCH  13  14
ENDBRANCH  12  13
ENDBRANCH  11  12
ENDBRANCH   1  11
TORSDOF 7
ENDMDL
MODEL 3
REMARK VINA RESULT:      -6.3      3.197      6.458
REMARK  Name = 
REMARK  9 active torsions:
REMARK  status: ('A' for Active; 'I' for Inactive)
REMARK    1  A    between atoms: C_1  and  C_2
REMARK    2  A    between atoms: C_2  and  C_3
REMARK    3  A    between atoms: C_3  and  C_4
REMARK    4  A    between atoms: C_4  and  C_5
REMARK    5  A    between atoms: C_5  and  C_6
REMARK    6  A    between atoms: C_6  and  C_7
REMARK    7  A    between atoms: C_7  and  C_8
REMARK    8  A    between atoms: C_8  and  N_9
REMARK    9  A    between atoms: C_10  and  C_11
REMARK                            x       y       z     vdW  Elec       q    Type
REMARK                         _______ _______ _______ _____ _____    ______ ____
ROOT
ATOM      1  N   UNL     1       4.218   5.055  17.721  0.00  0.00    +0.000 N 
ATOM      2  C   UNL     1       4.406   3.940  17.034  0.00  0.00    +0.000 A 
ATOM      3  C   UNL     1       5.344   3.647  15.916  0.00  0.00    +0.000 C 
ATOM      4  S   UNL     1       3.382   2.681  17.590  0.00  0.00    +0.000 S 
ATOM      5  C   UNL     1       2.664   3.701  18.767  0.00  0.00    +0.000 A 
ATOM      6  C   UNL     1       1.651   3.376  19.680  0.00  0.00    +0.000 A 
ATOM      7  C   UNL     1       1.214   4.368  20.559  0.00  0.00    +0.000 A 
ATOM      8  C   UNL     1       1.771   5.643  20.524  0.00  0.00    +0.000 A 
ATOM      9  C   UNL     1       2.782   5.960  19.606  0.00  0.00    +0.000 A 
ATOM     10  C   UNL     1       3.233   4.967  18.708  0.00  0.00    +0.000 A 
ENDROOT
BRANCH   1  11
ATOM     11  C   UNL     1       4.960   6.307  17.486  0.00  0.00    +0.000 C 
BRANCH  11  12
ATOM     12  C   UNL     1       6.342   6.275  18.153  0.00  0.00    +0.000 C 
BRANCH  12  13
ATOM     13  C   UNL     1       7.412   7.102  17.433  0.00  0.00    +0.000 C 
BRANCH  13  14
ATOM     14  C   UNL     1       8.304   7.886  18.397  0.00  0.00    +0.000 C 
BRANCH  14  15
ATOM     15  C   UNL     1       8.341   9.373  18.046  0.00  0.00    +0.000 C 
BRANCH  15  16
ATOM     16  C   UNL     1       9.170  10.151  19.067  0.00  0.00    +0.000 C 
BRANCH  16  18
ATOM     17  C   UNL     1      11.291  11.501  18.990  0.00  0.00    +0.000 C 
ATOM     18  C   UNL     1       9.907  11.306  18.395  0.00  0.00    +0.000 C 
ENDBRANCH  16  18
ENDBRANCH  15  16
ENDBRANCH  14  15
ENDBRANCH  13  14
ENDBRANCH  12  13
ENDBRANCH  11  12
ENDBRANCH   1  11
TORSDOF 7
ENDMDL
MODEL 4
REMARK VINA RESULT:      -6.2      0.867      1.176
REMARK  Name = 
REMARK  9 active torsions:
REMARK  status: ('A' for Active; 'I' for Inactive)
REMARK    1  A    between atoms: C_1  and  C_2
REMARK    2  A    between atoms: C_2  and  C_3
REMARK    3  A    between atoms: C_3  and  C_4
REMARK    4  A    between atoms: C_4  and  C_5
REMARK    5  A    between atoms: C_5  and  C_6
REMARK    6  A    between atoms: C_6  and  C_7
REMARK    7  A    between atoms: C_7  and  C_8
REMARK    8  A    between atoms: C_8  and  N_9
REMARK    9  A    between atoms: C_10  and  C_11
REMARK                            x       y       z     vdW  Elec       q    Type
REMARK                         _______ _______ _______ _____ _____    ______ ____
ROOT
ATOM      1  N   UNL     1       5.039   4.742  16.715  0.00  0.00    +0.000 N 
ATOM      2  C   UNL     1       5.296   5.975  17.119  0.00  0.00    +0.000 A 
ATOM      3  C   UNL     1       6.421   6.886  16.770  0.00  0.00    +0.000 C 
ATOM      4  S   UNL     1       4.092   6.544  18.200  0.00  0.00    +0.000 S 
ATOM      5  C   UNL     1       3.232   5.062  18.119  0.00  0.00    +0.000 A 
ATOM      6  C   UNL     1       2.049   4.720  18.790  0.00  0.00    +0.000 A 
ATOM      7  C   UNL     1       1.515   3.449  18.575  0.00  0.00    +0.000 A 
ATOM      8  C   UNL     1       2.145   2.549  17.719  0.00  0.00    +0.000 A 
ATOM      9  C   UNL     1       3.329   2.900  17.054  0.00  0.00    +0.000 A 
ATOM     10  C   UNL     1       3.883   4.182  17.265  0.00  0.00    +0.000 A 
ENDROOT
BRANCH   1  11
ATOM     11  C   UNL     1       5.885   3.987  15.773  0.00  0.00    +0.000 C 
BRANCH  11  12
ATOM     12  C   UNL     1       5.528   4.309  14.315  0.00  0.00    +0.000 C 
BRANCH  12  13
ATOM     13  C   UNL     1       6.498   3.726  13.282  0.00  0.00    +0.000 C 
BRANCH  13  14
ATOM     14  C   UNL     1       5.799   3.281  11.997  0.00  0.00    +0.000 C 
BRANCH  14  15
ATOM     15  C   UNL     1       4.317   3.653  12.005  0.00  0.00    +0.000 C 
BRANCH  15  16
ATOM     16  C   UNL     1       3.576   2.954  10.866  0.00  0.00    +0.000 C 
BRANCH  16  18
ATOM     17  C   UNL     1       2.448   4.661   9.403  0.00  0.00    +0.000 C 
ATOM     18  C   UNL     1       3.667   3.773   9.581  0.00  0.00    +0.000 C 
ENDBRANCH  16  18
ENDBRANCH  15  16
ENDBRANCH  14  15
ENDBRANCH  13  14
ENDBRANCH  12  13
ENDBRANCH  11  12
ENDBRANCH   1  11
TORSDOF 7
ENDMDL
MODEL 5
REMARK VINA RESULT:      -6.2      1.776      3.185
REMARK  Name = 
REMARK  9 active torsions:
REMARK  status: ('A' for Active; 'I' for Inactive)
REMARK    1  A    between atoms: C_1  and  C_2
REMARK    2  A    between atoms: C_2  and  C_3
REMARK    3  A    between atoms: C_3  and  C_4
REMARK    4  A    between atoms: C_4  and  C_5
REMARK    5  A    between atoms: C_5  and  C_6
REMARK    6  A    between atoms: C_6  and  C_7
REMARK    7  A    between atoms: C_7  and  C_8
REMARK    8  A    between atoms: C_8  and  N_9
REMARK    9  A    between atoms: C_10  and  C_11
REMARK                            x       y       z     vdW  Elec       q    Type
REMARK                         _______ _______ _______ _____ _____    ______ ____
ROOT
ATOM      1  N   UNL     1       3.372   3.974  18.084  0.00  0.00    +0.000 N 
ATOM      2  C   UNL     1       3.114   2.855  18.741  0.00  0.00    +0.000 A 
ATOM      3  C   UNL     1       3.447   1.444  18.405  0.00  0.00    +0.000 C 
ATOM      4  S   UNL     1       2.276   3.168  20.205  0.00  0.00    +0.000 S 
ATOM      5  C   UNL     1       2.255   4.856  19.904  0.00  0.00    +0.000 A 
ATOM      6  C   UNL     1       1.692   5.862  20.702  0.00  0.00    +0.000 A 
ATOM      7  C   UNL     1       1.793   7.183  20.264  0.00  0.00    +0.000 A 
ATOM      8  C   UNL     1       2.433   7.487  19.066  0.00  0.00    +0.000 A 
ATOM      9  C   UNL     1       2.992   6.475  18.273  0.00  0.00    +0.000 A 
ATOM     10  C   UNL     1       2.895   5.132  18.702  0.00  0.00    +0.000 A 
ENDROOT
BRANCH   1  11
ATOM     11  C   UNL     1       4.093   4.031  16.799  0.00  0.00    +0.000 C 
BRANCH  11  12
ATOM     12  C   UNL     1       5.455   4.721  16.948  0.00  0.00    +0.000 C 
BRANCH  12  13
ATOM     13  C   UNL     1       5.914   5.492  15.706  0.00  0.00    +0.000 C 
BRANCH  13  14
ATOM     14  C   UNL     1       7.103   4.834  15.004  0.00  0.00    +0.000 C 
BRANCH  14  15
ATOM     15  C   UNL     1       6.813   4.579  13.526  0.00  0.00    +0.000 C 
BRANCH  15  16
ATOM     16  C   UNL     1       5.631   3.623  13.363  0.00  0.00    +0.000 C 
BRANCH  16  18
ATOM     17  C   UNL     1       4.221   3.241  11.315  0.00  0.00    +0.000 C 
ATOM     18  C   UNL     1       5.590   3.054  11.947  0.00  0.00    +0.000 C 
ENDBRANCH  16  18
ENDBRANCH  15  16
ENDBRANCH  14  15
ENDBRANCH  13  14
ENDBRANCH  12  13
ENDBRANCH  11  12
ENDBRANCH   1  11
TORSDOF 7
ENDMDL
MODEL 6
REMARK VINA RESULT:      -6.1      1.822      2.170
REMARK  Name = 
REMARK  9 active torsions:
REMARK  status: ('A' for Active; 'I' for Inactive)
REMARK    1  A    between atoms: C_1  and  C_2
REMARK    2  A    between atoms: C_2  and  C_3
REMARK    3  A    between atoms: C_3  and  C_4
REMARK    4  A    between atoms: C_4  and  C_5
REMARK    5  A    between atoms: C_5  and  C_6
REMARK    6  A    between atoms: C_6  and  C_7
REMARK    7  A    between atoms: C_7  and  C_8
REMARK    8  A    between atoms: C_8  and  N_9
REMARK    9  A    between atoms: C_10  and  C_11
REMARK                            x       y       z     vdW  Elec       q    Type
REMARK                         _______ _______ _______ _____ _____    ______ ____
ROOT
ATOM      1  N   UNL     1       5.314   5.069  16.755  0.00  0.00    +0.000 N 
ATOM      2  C   UNL     1       6.189   5.691  17.529  0.00  0.00    +0.000 A 
ATOM      3  C   UNL     1       7.235   6.692  17.183  0.00  0.00    +0.000 C 
ATOM      4  S   UNL     1       6.012   5.229  19.171  0.00  0.00    +0.000 S 
ATOM      5  C   UNL     1       4.737   4.146  18.794  0.00  0.00    +0.000 A 
ATOM      6  C   UNL     1       4.023   3.322  19.675  0.00  0.00    +0.000 A 
ATOM      7  C   UNL     1       3.014   2.515  19.150  0.00  0.00    +0.000 A 
ATOM      8  C   UNL     1       2.730   2.529  17.787  0.00  0.00    +0.000 A 
ATOM      9  C   UNL     1       3.450   3.356  16.912  0.00  0.00    +0.000 A 
ATOM     10  C   UNL     1       4.477   4.177  17.429  0.00  0.00    +0.000 A 
ENDROOT
BRANCH   1  11
ATOM     11  C   UNL     1       5.209   5.268  15.298  0.00  0.00    +0.000 C 
BRANCH  11  12
ATOM     12  C   UNL     1       6.024   4.221  14.527  0.00  0.00    +0.000 C 
BRANCH  12  13
ATOM     13  C   UNL     1       7.142   4.804  13.656  0.00  0.00    +0.000 C 
BRANCH  13  14
ATOM     14  C   UNL     1       7.141   4.244  12.234  0.00  0.00    +0.000 C 
BRANCH  14  15
ATOM     15  C   UNL     1       6.236   3.018  12.113  0.00  0.00    +0.000 C 
BRANCH  15  16
ATOM     16  C   UNL     1       6.919   1.918  11.300  0.00  0.00    +0.000 C 
BRANCH  16  18
ATOM     17  C   UNL     1       6.246  -0.503  11.414  0.00  0.00    +0.000 C 
ATOM     18  C   UNL     1       5.905   0.868  10.856  0.00  0.00    +0.000 C 
ENDBRANCH  16  18
ENDBRANCH  15  16
ENDBRANCH  14  15
ENDBRANCH  13  14
ENDBRANCH  12  13
ENDBRANCH  11  12
ENDBRANCH   1  11
TORSDOF 7
ENDMDL
MODEL 7
REMARK VINA RESULT:      -6.1      1.537      1.949
REMARK  Name = 
REMARK  9 active torsions:
REMARK  status: ('A' for Active; 'I' for Inactive)
REMARK    1  A    between atoms: C_1  and  C_2
REMARK    2  A    between atoms: C_2  and  C_3
REMARK    3  A    between atoms: C_3  and  C_4
REMARK    4  A    between atoms: C_4  and  C_5
REMARK    5  A    between atoms: C_5  and  C_6
REMARK    6  A    between atoms: C_6  and  C_7
REMARK    7  A    between atoms: C_7  and  C_8
REMARK    8  A    between atoms: C_8  and  N_9
REMARK    9  A    between atoms: C_10  and  C_11
REMARK                            x       y       z     vdW  Elec       q    Type
REMARK                         _______ _______ _______ _____ _____    ______ ____
ROOT
ATOM      1  N   UNL     1       4.194   5.067  18.290  0.00  0.00    +0.000 N 
ATOM      2  C   UNL     1       3.764   6.295  18.047  0.00  0.00    +0.000 A 
ATOM      3  C   UNL     1       4.265   7.316  17.087  0.00  0.00    +0.000 C 
ATOM      4  S   UNL     1       2.406   6.686  19.019  0.00  0.00    +0.000 S 
ATOM      5  C   UNL     1       2.439   5.155  19.792  0.00  0.00    +0.000 A 
ATOM      6  C   UNL     1       1.584   4.684  20.797  0.00  0.00    +0.000 A 
ATOM      7  C   UNL     1       1.792   3.393  21.286  0.00  0.00    +0.000 A 
ATOM      8  C   UNL     1       2.822   2.601  20.786  0.00  0.00    +0.000 A 
ATOM      9  C   UNL     1       3.674   3.082  19.781  0.00  0.00    +0.000 A 
ATOM     10  C   UNL     1       3.478   4.388  19.279  0.00  0.00    +0.000 A 
ENDROOT
BRANCH   1  11
ATOM     11  C   UNL     1       5.337   4.439  17.602  0.00  0.00    +0.000 C 
BRANCH  11  12
ATOM     12  C   UNL     1       4.897   3.727  16.317  0.00  0.00    +0.000 C 
BRANCH  12  13
ATOM     13  C   UNL     1       5.265   4.464  15.025  0.00  0.00    +0.000 C 
BRANCH  13  14
ATOM     14  C   UNL     1       6.574   3.967  14.410  0.00  0.00    +0.000 C 
BRANCH  14  15
ATOM     15  C   UNL     1       6.511   3.962  12.883  0.00  0.00    +0.000 C 
BRANCH  15  16
ATOM     16  C   UNL     1       5.236   3.275  12.395  0.00  0.00    +0.000 C 
BRANCH  16  18
ATOM     17  C   UNL     1       7.070   1.979  11.263  0.00  0.00    +0.000 C 
ATOM     18  C   UNL     1       5.569   2.149  11.421  0.00  0.00    +0.000 C 
ENDBRANCH  16  18
ENDBRANCH  15  16
ENDBRANCH  14  15
ENDBRANCH  13  14
ENDBRANCH  12  13
ENDBRANCH  11  12
ENDBRANCH   1  11
TORSDOF 7
ENDMDL
MODEL 8
REMARK VINA RESULT:      -6.0      3.156      5.232
REMARK  Name = 
REMARK  9 active torsions:
REMARK  status: ('A' for Active; 'I' for Inactive)
REMARK    1  A    between atoms: C_1  and  C_2
REMARK    2  A    between atoms: C_2  and  C_3
REMARK    3  A    between atoms: C_3  and  C_4
REMARK    4  A    between atoms: C_4  and  C_5
REMARK    5  A    between atoms: C_5  and  C_6
REMARK    6  A    between atoms: C_6  and  C_7
REMARK    7  A    between atoms: C_7  and  C_8
REMARK    8  A    between atoms: C_8  and  N_9
REMARK    9  A    between atoms: C_10  and  C_11
REMARK                            x       y       z     vdW  Elec       q    Type
REMARK                         _______ _______ _______ _____ _____    ______ ____
ROOT
ATOM      1  N   UNL     1       2.947   4.574  18.562  0.00  0.00    +0.000 N 
ATOM      2  C   UNL     1       2.815   3.751  19.589  0.00  0.00    +0.000 A 
ATOM      3  C   UNL     1       3.109   2.296  19.698  0.00  0.00    +0.000 C 
ATOM      4  S   UNL     1       2.223   4.569  20.975  0.00  0.00    +0.000 S 
ATOM      5  C   UNL     1       2.129   6.059  20.132  0.00  0.00    +0.000 A 
ATOM      6  C   UNL     1       1.690   7.297  20.624  0.00  0.00    +0.000 A 
ATOM      7  C   UNL     1       1.699   8.390  19.757  0.00  0.00    +0.000 A 
ATOM      8  C   UNL     1       2.131   8.250  18.441  0.00  0.00    +0.000 A 
ATOM      9  C   UNL     1       2.568   7.009  17.957  0.00  0.00    +0.000 A 
ATOM     10  C   UNL     1       2.561   5.891  18.822  0.00  0.00    +0.000 A 
ENDROOT
BRANCH   1  11
ATOM     11  C   UNL     1       3.447   4.169  17.235  0.00  0.00    +0.000 C 
BRANCH  11  12
ATOM     12  C   UNL     1       4.692   4.971  16.835  0.00  0.00    +0.000 C 
BRANCH  12  13
ATOM     13  C   UNL     1       5.838   4.124  16.271  0.00  0.00    +0.000 C 
BRANCH  13  14
ATOM     14  C   UNL     1       7.212   4.756  16.500  0.00  0.00    +0.000 C 
BRANCH  14  15
ATOM     15  C   UNL     1       7.601   4.737  17.977  0.00  0.00    +0.000 C 
BRANCH  15  16
ATOM     16  C   UNL     1       7.690   6.158  18.534  0.00  0.00    +0.000 C 
BRANCH  16  18
ATOM     17  C   UNL     1       8.034   8.550  17.838  0.00  0.00    +0.000 C 
ATOM     18  C   UNL     1       7.518   7.185  17.418  0.00  0.00    +0.000 C 
ENDBRANCH  16  18
ENDBRANCH  15  16
ENDBRANCH  14  15
ENDBRANCH  13  14
ENDBRANCH  12  13
ENDBRANCH  11  12
ENDBRANCH   1  11
TORSDOF 7
ENDMDL
MODEL 9
REMARK VINA RESULT:      -6.0      3.760      7.457
REMARK  Name = 
REMARK  9 active torsions:
REMARK  status: ('A' for Active; 'I' for Inactive)
REMARK    1  A    between atoms: C_1  and  C_2
REMARK    2  A    between atoms: C_2  and  C_3
REMARK    3  A    between atoms: C_3  and  C_4
REMARK    4  A    between atoms: C_4  and  C_5
REMARK    5  A    between atoms: C_5  and  C_6
REMARK    6  A    between atoms: C_6  and  C_7
REMARK    7  A    between atoms: C_7  and  C_8
REMARK    8  A    between atoms: C_8  and  N_9
REMARK    9  A    between atoms: C_10  and  C_11
REMARK                            x       y       z     vdW  Elec       q    Type
REMARK                         _______ _______ _______ _____ _____    ______ ____
ROOT
ATOM      1  N   UNL     1       3.224   5.849  18.169  0.00  0.00    +0.000 N 
ATOM      2  C   UNL     1       4.181   5.670  17.272  0.00  0.00    +0.000 A 
ATOM      3  C   UNL     1       5.115   6.651  16.655  0.00  0.00    +0.000 C 
ATOM      4  S   UNL     1       4.308   4.022  16.812  0.00  0.00    +0.000 S 
ATOM      5  C   UNL     1       3.015   3.570  17.845  0.00  0.00    +0.000 A 
ATOM      6  C   UNL     1       2.474   2.290  18.030  0.00  0.00    +0.000 A 
ATOM      7  C   UNL     1       1.417   2.147  18.929  0.00  0.00    +0.000 A 
ATOM      8  C   UNL     1       0.916   3.248  19.619  0.00  0.00    +0.000 A 
ATOM      9  C   UNL     1       1.463   4.525  19.426  0.00  0.00    +0.000 A 
ATOM     10  C   UNL     1       2.532   4.686  18.516  0.00  0.00    +0.000 A 
ENDROOT
BRANCH   1  11
ATOM     11  C   UNL     1       2.884   7.153  18.767  0.00  0.00    +0.000 C 
BRANCH  11  12
ATOM     12  C   UNL     1       1.868   7.917  17.908  0.00  0.00    +0.000 C 
BRANCH  12  13
ATOM     13  C   UNL     1       1.815   9.425  18.180  0.00  0.00    +0.000 C 
BRANCH  13  14
ATOM     14  C   UNL     1       0.516   9.859  18.861  0.00  0.00    +0.000 C 
BRANCH  14  15
ATOM     15  C   UNL     1       0.720  10.106  20.355  0.00  0.00    +0.000 C 
BRANCH  15  16
ATOM     16  C   UNL     1       0.233   8.909  21.173  0.00  0.00    +0.000 C 
BRANCH  16  18
ATOM     17  C   UNL     1      -0.719  10.590  22.783  0.00  0.00    +0.000 C 
ATOM     18  C   UNL     1       0.060   9.294  22.639  0.00  0.00    +0.000 C 
ENDBRANCH  16  18
ENDBRANCH  15  16
ENDBRANCH  14  15
ENDBRANCH  13  14
ENDBRANCH  12  13
ENDBRANCH  11  12
ENDBRANCH   1  11
TORSDOF 7
ENDMDL
