MODEL 1
REMARK VINA RESULT:      -7.7      0.000      0.000
REMARK  Name = 
REMARK  9 active torsions:
REMARK  status: ('A' for Active; 'I' for Inactive)
REMARK    1  A    between atoms: C_1  and  O_2
REMARK    2  A    between atoms: O_2  and  C_3
REMARK    3  A    between atoms: C_5  and  C_6
REMARK    4  A    between atoms: C_6  and  O_7
REMARK    5  A    between atoms: O_7  and  C_8
REMARK    6  A    between atoms: N_13  and  C_14
REMARK    7  A    between atoms: C_17  and  C_18
REMARK    8  A    between atoms: C_24  and  O_25
REMARK    9  A    between atoms: O_25  and  C_26
REMARK                            x       y       z     vdW  Elec       q    Type
REMARK                         _______ _______ _______ _____ _____    ______ ____
ROOT
ATOM      1  C   UNL     1       2.320   5.916  20.008  0.00  0.00    +0.000 A 
ATOM      2  C   UNL     1       1.407   5.113  20.636  0.00  0.00    +0.000 A 
ATOM      3  C   UNL     1       1.732   3.778  20.667  0.00  0.00    +0.000 A 
ATOM      4  N   UNL     1       2.862   3.271  20.133  0.00  0.00    +0.000 NA
ATOM      5  C   UNL     1       3.662   4.133  19.487  0.00  0.00    +0.000 A 
ATOM      6  N   UNL     1       4.839   3.645  18.930  0.00  0.00    +0.000 N 
ATOM      7  N   UNL     1       3.419   5.448  19.404  0.00  0.00    +0.000 NA
ATOM      8  H   UNL     1       5.072   2.730  19.285  0.00  0.00    +0.000 HD
ENDROOT
BRANCH   6   9
ATOM      9  C   UNL     1       5.475   4.057  17.751  0.00  0.00    +0.000 A 
ATOM     10  C   UNL     1       4.837   3.854  16.522  0.00  0.00    +0.000 A 
ATOM     11  C   UNL     1       5.459   4.215  15.320  0.00  0.00    +0.000 A 
ATOM     12  C   UNL     1       6.728   4.799  15.333  0.00  0.00    +0.000 A 
ATOM     13  C   UNL     1       7.383   4.995  16.549  0.00  0.00    +0.000 A 
ATOM     14  C   UNL     1       6.762   4.613  17.744  0.00  0.00    +0.000 A 
BRANCH  12  15
ATOM     15  C   UNL     1       7.352   5.204  14.104  0.00  0.00    +0.000 C 
ATOM     16  N   UNL     1       7.844   5.535  13.111  0.00  0.00    +0.000 NA
ENDBRANCH  12  15
ENDBRANCH   6   9
BRANCH   1  17
ATOM     17  O   UNL     1       2.067   7.272  19.961  0.00  0.00    +0.000 OA
BRANCH  17  18
ATOM     18  C   UNL     1       1.590   7.769  21.218  0.00  0.00    +0.000 C 
BRANCH  18  21
ATOM     19  C   UNL     1      -0.330  10.625  19.559  0.00  0.00    +0.000 A 
ATOM     20  C   UNL     1       0.455   9.482  19.742  0.00  0.00    +0.000 A 
ATOM     21  C   UNL     1       0.839   9.066  21.023  0.00  0.00    +0.000 A 
ATOM     22  C   UNL     1       0.434   9.834  22.125  0.00  0.00    +0.000 A 
ATOM     23  C   UNL     1      -0.347  10.982  21.956  0.00  0.00    +0.000 A 
ATOM     24  C   UNL     1      -0.724  11.377  20.670  0.00  0.00    +0.000 A 
BRANCH  19  26
ATOM     25  C   UNL     1      -1.612  11.920  18.023  0.00  0.00    +0.000 C 
ATOM     26  O   UNL     1      -0.670  10.881  18.258  0.00  0.00    +0.000 OA
ENDBRANCH  19  26
BRANCH  23  27
ATOM     27  O   UNL     1      -0.698  11.614  23.120  0.00  0.00    +0.000 OA
ATOM     28  C   UNL     1      -2.061  11.997  23.260  0.00  0.00    +0.000 C 
ENDBRANCH  23  27
ENDBRANCH  18  21
ENDBRANCH  17  18
ENDBRANCH   1  17
TORSDOF 7
ENDMDL
MODEL 2
REMARK VINA RESULT:      -7.6      2.318      3.511
REMARK  Name = 
REMARK  9 active torsions:
REMARK  status: ('A' for Active; 'I' for Inactive)
REMARK    1  A    between atoms: C_1  and  O_2
REMARK    2  A    between atoms: O_2  and  C_3
REMARK    3  A    between atoms: C_5  and  C_6
REMARK    4  A    between atoms: C_6  and  O_7
REMARK    5  A    between atoms: O_7  and  C_8
REMARK    6  A    between atoms: N_13  and  C_14
REMARK    7  A    between atoms: C_17  and  C_18
REMARK    8  A    between atoms: C_24  and  O_25
REMARK    9  A    between atoms: O_25  and  C_26
REMARK                            x       y       z     vdW  Elec       q    Type
REMARK                         _______ _______ _______ _____ _____    ______ ____
ROOT
ATOM      1  C   UNL     1       2.160   3.977  19.297  0.00  0.00    +0.000 A 
ATOM      2  C   UNL     1       1.544   2.938  18.651  0.00  0.00    +0.000 A 
ATOM      3  C   UNL     1       2.374   2.163  17.878  0.00  0.00    +0.000 A 
ATOM      4  N   UNL     1       3.698   2.382  17.750  0.00  0.00    +0.000 NA
ATOM      5  C   UNL     1       4.193   3.461  18.375  0.00  0.00    +0.000 A 
ATOM      6  N   UNL     1       5.557   3.713  18.270  0.00  0.00    +0.000 N 
ATOM      7  N   UNL     1       3.456   4.272  19.145  0.00  0.00    +0.000 NA
ATOM      8  H   UNL     1       6.062   2.911  17.924  0.00  0.00    +0.000 HD
ENDROOT
BRANCH   6   9
ATOM      9  C   UNL     1       6.206   4.953  18.214  0.00  0.00    +0.000 A 
ATOM     10  C   UNL     1       5.721   5.942  17.351  0.00  0.00    +0.000 A 
ATOM     11  C   UNL     1       6.367   7.179  17.237  0.00  0.00    +0.000 A 
ATOM     12  C   UNL     1       7.507   7.449  17.999  0.00  0.00    +0.000 A 
ATOM     13  C   UNL     1       8.011   6.469  18.855  0.00  0.00    +0.000 A 
ATOM     14  C   UNL     1       7.370   5.228  18.947  0.00  0.00    +0.000 A 
BRANCH  12  15
ATOM     15  C   UNL     1       8.150   8.731  17.912  0.00  0.00    +0.000 C 
ATOM     16  N   UNL     1       8.663   9.765  17.831  0.00  0.00    +0.000 NA
ENDBRANCH  12  15
ENDBRANCH   6   9
BRANCH   1  17
ATOM     17  O   UNL     1       1.389   4.783  20.111  0.00  0.00    +0.000 OA
BRANCH  17  18
ATOM     18  C   UNL     1       2.178   5.779  20.774  0.00  0.00    +0.000 C 
BRANCH  18  21
ATOM     19  C   UNL     1       0.407   9.136  21.215  0.00  0.00    +0.000 A 
ATOM     20  C   UNL     1       0.829   7.819  21.425  0.00  0.00    +0.000 A 
ATOM     21  C   UNL     1       1.634   7.160  20.487  0.00  0.00    +0.000 A 
ATOM     22  C   UNL     1       1.994   7.845  19.317  0.00  0.00    +0.000 A 
ATOM     23  C   UNL     1       1.575   9.160  19.093  0.00  0.00    +0.000 A 
ATOM     24  C   UNL     1       0.778   9.801  20.043  0.00  0.00    +0.000 A 
BRANCH  19  26
ATOM     25  C   UNL     1      -0.624  11.057  22.177  0.00  0.00    +0.000 C 
ATOM     26  O   UNL     1      -0.331   9.667  22.239  0.00  0.00    +0.000 OA
ENDBRANCH  19  26
BRANCH  23  27
ATOM     27  O   UNL     1       2.030   9.717  17.926  0.00  0.00    +0.000 OA
ATOM     28  C   UNL     1       2.194  11.130  17.907  0.00  0.00    +0.000 C 
ENDBRANCH  23  27
ENDBRANCH  18  21
ENDBRANCH  17  18
ENDBRANCH   1  17
TORSDOF 7
ENDMDL
MODEL 3
REMARK VINA RESULT:      -7.6      0.784      1.214
REMARK  Name = 
REMARK  9 active torsions:
REMARK  status: ('A' for Active; 'I' for Inactive)
REMARK    1  A    between atoms: C_1  and  O_2
REMARK    2  A    between atoms: O_2  and  C_3
REMARK    3  A    between atoms: C_5  and  C_6
REMARK    4  A    between atoms: C_6  and  O_7
REMARK    5  A    between atoms: O_7  and  C_8
REMARK    6  A    between atoms: N_13  and  C_14
REMARK    7  A    between atoms: C_17  and  C_18
REMARK    8  A    between atoms: C_24  and  O_25
REMARK    9  A    between atoms: O_25  and  C_26
REMARK                            x       y       z     vdW  Elec       q    Type
REMARK                         _______ _______ _______ _____ _____    ______ ____
ROOT
ATOM      1  C   UNL     1       2.542   5.580  20.134  0.00  0.00    +0.000 A 
ATOM      2  C   UNL     1       1.740   4.735  20.853  0.00  0.00    +0.000 A 
ATOM      3  C   UNL     1       2.176   3.434  20.916  0.00  0.00    +0.000 A 
ATOM      4  N   UNL     1       3.308   2.996  20.329  0.00  0.00    +0.000 NA
ATOM      5  C   UNL     1       3.992   3.888  19.598  0.00  0.00    +0.000 A 
ATOM      6  N   UNL     1       5.168   3.471  18.984  0.00  0.00    +0.000 N 
ATOM      7  N   UNL     1       3.636   5.174  19.478  0.00  0.00    +0.000 NA
ATOM      8  H   UNL     1       5.498   2.595  19.359  0.00  0.00    +0.000 HD
ENDROOT
BRANCH   6   9
ATOM      9  C   UNL     1       5.692   3.879  17.750  0.00  0.00    +0.000 A 
ATOM     10  C   UNL     1       6.939   4.513  17.710  0.00  0.00    +0.000 A 
ATOM     11  C   UNL     1       7.476   4.972  16.501  0.00  0.00    +0.000 A 
ATOM     12  C   UNL     1       6.773   4.791  15.307  0.00  0.00    +0.000 A 
ATOM     13  C   UNL     1       5.523   4.173  15.331  0.00  0.00    +0.000 A 
ATOM     14  C   UNL     1       4.985   3.736  16.547  0.00  0.00    +0.000 A 
BRANCH  12  15
ATOM     15  C   UNL     1       7.339   5.228  14.060  0.00  0.00    +0.000 C 
ATOM     16  N   UNL     1       7.795   5.568  13.053  0.00  0.00    +0.000 NA
ENDBRANCH  12  15
ENDBRANCH   6   9
BRANCH   1  17
ATOM     17  O   UNL     1       2.175   6.908  20.049  0.00  0.00    +0.000 OA
BRANCH  17  18
ATOM     18  C   UNL     1       1.110   7.225  20.955  0.00  0.00    +0.000 C 
BRANCH  18  21
ATOM     19  C   UNL     1       0.817  10.867  19.837  0.00  0.00    +0.000 A 
ATOM     20  C   UNL     1       1.135   9.505  19.857  0.00  0.00    +0.000 A 
ATOM     21  C   UNL     1       0.868   8.717  20.984  0.00  0.00    +0.000 A 
ATOM     22  C   UNL     1       0.291   9.329  22.106  0.00  0.00    +0.000 A 
ATOM     23  C   UNL     1      -0.028  10.691  22.101  0.00  0.00    +0.000 A 
ATOM     24  C   UNL     1       0.241  11.458  20.965  0.00  0.00    +0.000 A 
BRANCH  19  26
ATOM     25  C   UNL     1       0.706  12.863  18.540  0.00  0.00    +0.000 C 
ATOM     26  O   UNL     1       1.086  11.497  18.652  0.00  0.00    +0.000 OA
ENDBRANCH  19  26
BRANCH  23  27
ATOM     27  O   UNL     1      -0.618  11.147  23.250  0.00  0.00    +0.000 OA
ATOM     28  C   UNL     1      -1.831  11.878  23.107  0.00  0.00    +0.000 C 
ENDBRANCH  23  27
ENDBRANCH  18  21
ENDBRANCH  17  18
ENDBRANCH   1  17
TORSDOF 7
ENDMDL
MODEL 4
REMARK VINA RESULT:      -7.6      3.332      6.191
REMARK  Name = 
REMARK  9 active torsions:
REMARK  status: ('A' for Active; 'I' for Inactive)
REMARK    1  A    between atoms: C_1  and  O_2
REMARK    2  A    between atoms: O_2  and  C_3
REMARK    3  A    between atoms: C_5  and  C_6
REMARK    4  A    between atoms: C_6  and  O_7
REMARK    5  A    between atoms: O_7  and  C_8
REMARK    6  A    between atoms: N_13  and  C_14
REMARK    7  A    between atoms: C_17  and  C_18
REMARK    8  A    between atoms: C_24  and  O_25
REMARK    9  A    between atoms: O_25  and  C_26
REMARK                            x       y       z     vdW  Elec       q    Type
REMARK                         _______ _______ _______ _____ _____    ______ ____
ROOT
ATOM      1  C   UNL     1      -0.436  10.643  20.645  0.00  0.00    +0.000 A 
ATOM      2  C   UNL     1      -0.915  11.074  21.853  0.00  0.00    +0.000 A 
ATOM      3  C   UNL     1      -0.394  10.428  22.947  0.00  0.00    +0.000 A 
ATOM      4  N   UNL     1       0.525   9.444  22.868  0.00  0.00    +0.000 NA
ATOM      5  C   UNL     1       0.885   9.055  21.636  0.00  0.00    +0.000 A 
ATOM      6  N   UNL     1       1.837   8.047  21.517  0.00  0.00    +0.000 N 
ATOM      7  N   UNL     1       0.424   9.626  20.515  0.00  0.00    +0.000 NA
ATOM      8  H   UNL     1       2.325   7.888  22.385  0.00  0.00    +0.000 HD
ENDROOT
BRANCH   6   9
ATOM      9  C   UNL     1       1.921   7.047  20.539  0.00  0.00    +0.000 A 
ATOM     10  C   UNL     1       1.573   5.733  20.871  0.00  0.00    +0.000 A 
ATOM     11  C   UNL     1       1.684   4.700  19.933  0.00  0.00    +0.000 A 
ATOM     12  C   UNL     1       2.136   4.971  18.639  0.00  0.00    +0.000 A 
ATOM     13  C   UNL     1       2.500   6.273  18.297  0.00  0.00    +0.000 A 
ATOM     14  C   UNL     1       2.405   7.296  19.247  0.00  0.00    +0.000 A 
BRANCH  12  15
ATOM     15  C   UNL     1       2.215   3.919  17.663  0.00  0.00    +0.000 C 
ATOM     16  N   UNL     1       2.268   3.075  16.874  0.00  0.00    +0.000 NA
ENDBRANCH  12  15
ENDBRANCH   6   9
BRANCH   1  17
ATOM     17  O   UNL     1      -0.899  11.266  19.503  0.00  0.00    +0.000 OA
BRANCH  17  18
ATOM     18  C   UNL     1      -0.842  10.399  18.363  0.00  0.00    +0.000 C 
BRANCH  18  21
ATOM     19  C   UNL     1      -4.302  11.506  17.180  0.00  0.00    +0.000 A 
ATOM     20  C   UNL     1      -3.197  11.249  17.999  0.00  0.00    +0.000 A 
ATOM     21  C   UNL     1      -2.075  10.571  17.506  0.00  0.00    +0.000 A 
ATOM     22  C   UNL     1      -2.090  10.134  16.173  0.00  0.00    +0.000 A 
ATOM     23  C   UNL     1      -3.191  10.380  15.346  0.00  0.00    +0.000 A 
ATOM     24  C   UNL     1      -4.297  11.063  15.855  0.00  0.00    +0.000 A 
BRANCH  19  26
ATOM     25  C   UNL     1      -5.212  12.412  19.188  0.00  0.00    +0.000 C 
ATOM     26  O   UNL     1      -5.302  12.221  17.782  0.00  0.00    +0.000 OA
ENDBRANCH  19  26
BRANCH  23  27
ATOM     27  O   UNL     1      -3.054   9.928  14.059  0.00  0.00    +0.000 OA
ATOM     28  C   UNL     1      -4.225   9.920  13.250  0.00  0.00    +0.000 C 
ENDBRANCH  23  27
ENDBRANCH  18  21
ENDBRANCH  17  18
ENDBRANCH   1  17
TORSDOF 7
ENDMDL
MODEL 5
REMARK VINA RESULT:      -7.5      0.934      1.416
REMARK  Name = 
REMARK  9 active torsions:
REMARK  status: ('A' for Active; 'I' for Inactive)
REMARK    1  A    between atoms: C_1  and  O_2
REMARK    2  A    between atoms: O_2  and  C_3
REMARK    3  A    between atoms: C_5  and  C_6
REMARK    4  A    between atoms: C_6  and  O_7
REMARK    5  A    between atoms: O_7  and  C_8
REMARK    6  A    between atoms: N_13  and  C_14
REMARK    7  A    between atoms: C_17  and  C_18
REMARK    8  A    between atoms: C_24  and  O_25
REMARK    9  A    between atoms: O_25  and  C_26
REMARK                            x       y       z     vdW  Elec       q    Type
REMARK                         _______ _______ _______ _____ _____    ______ ____
ROOT
ATOM      1  C   UNL     1       2.352   6.324  20.049  0.00  0.00    +0.000 A 
ATOM      2  C   UNL     1       1.293   5.673  20.622  0.00  0.00    +0.000 A 
ATOM      3  C   UNL     1       1.363   4.302  20.578  0.00  0.00    +0.000 A 
ATOM      4  N   UNL     1       2.388   3.622  20.024  0.00  0.00    +0.000 NA
ATOM      5  C   UNL     1       3.347   4.353  19.437  0.00  0.00    +0.000 A 
ATOM      6  N   UNL     1       4.423   3.684  18.862  0.00  0.00    +0.000 N 
ATOM      7  N   UNL     1       3.355   5.692  19.429  0.00  0.00    +0.000 NA
ATOM      8  H   UNL     1       4.474   2.724  19.164  0.00  0.00    +0.000 HD
ENDROOT
BRANCH   6   9
ATOM      9  C   UNL     1       5.146   4.036  17.715  0.00  0.00    +0.000 A 
ATOM     10  C   UNL     1       6.449   4.529  17.851  0.00  0.00    +0.000 A 
ATOM     11  C   UNL     1       7.188   4.929  16.731  0.00  0.00    +0.000 A 
ATOM     12  C   UNL     1       6.635   4.829  15.451  0.00  0.00    +0.000 A 
ATOM     13  C   UNL     1       5.333   4.353  15.300  0.00  0.00    +0.000 A 
ATOM     14  C   UNL     1       4.594   3.974  16.427  0.00  0.00    +0.000 A 
BRANCH  12  15
ATOM     15  C   UNL     1       7.405   5.205  14.297  0.00  0.00    +0.000 C 
ATOM     16  N   UNL     1       8.028   5.517  13.375  0.00  0.00    +0.000 NA
ENDBRANCH  12  15
ENDBRANCH   6   9
BRANCH   1  17
ATOM     17  O   UNL     1       2.358   7.704  20.079  0.00  0.00    +0.000 OA
BRANCH  17  18
ATOM     18  C   UNL     1       1.712   8.265  18.928  0.00  0.00    +0.000 C 
BRANCH  18  21
ATOM     19  C   UNL     1      -0.884  11.063  18.764  0.00  0.00    +0.000 A 
ATOM     20  C   UNL     1       0.020  10.066  18.383  0.00  0.00    +0.000 A 
ATOM     21  C   UNL     1       0.821   9.417  19.331  0.00  0.00    +0.000 A 
ATOM     22  C   UNL     1       0.713   9.804  20.675  0.00  0.00    +0.000 A 
ATOM     23  C   UNL     1      -0.184  10.803  21.068  0.00  0.00    +0.000 A 
ATOM     24  C   UNL     1      -0.978  11.433  20.108  0.00  0.00    +0.000 A 
BRANCH  19  26
ATOM     25  C   UNL     1      -2.223  10.641  16.838  0.00  0.00    +0.000 C 
ATOM     26  O   UNL     1      -1.636  11.571  17.739  0.00  0.00    +0.000 OA
ENDBRANCH  19  26
BRANCH  23  27
ATOM     27  O   UNL     1      -0.210  11.054  22.415  0.00  0.00    +0.000 OA
ATOM     28  C   UNL     1      -0.384   9.934  23.277  0.00  0.00    +0.000 C 
ENDBRANCH  23  27
ENDBRANCH  18  21
ENDBRANCH  17  18
ENDBRANCH   1  17
TORSDOF 7
ENDMDL
MODEL 6
REMARK VINA RESULT:      -7.5      0.329      2.174
REMARK  Name = 
REMARK  9 active torsions:
REMARK  status: ('A' for Active; 'I' for Inactive)
REMARK    1  A    between atoms: C_1  and  O_2
REMARK    2  A    between atoms: O_2  and  C_3
REMARK    3  A    between atoms: C_5  and  C_6
REMARK    4  A    between atoms: C_6  and  O_7
REMARK    5  A    between atoms: O_7  and  C_8
REMARK    6  A    between atoms: N_13  and  C_14
REMARK    7  A    between atoms: C_17  and  C_18
REMARK    8  A    between atoms: C_24  and  O_25
REMARK    9  A    between atoms: O_25  and  C_26
REMARK                            x       y       z     vdW  Elec       q    Type
REMARK                         _______ _______ _______ _____ _____    ______ ____
ROOT
ATOM      1  C   UNL     1       2.212   5.667  19.951  0.00  0.00    +0.000 A 
ATOM      2  C   UNL     1       1.417   4.813  20.669  0.00  0.00    +0.000 A 
ATOM      3  C   UNL     1       1.925   3.547  20.831  0.00  0.00    +0.000 A 
ATOM      4  N   UNL     1       3.116   3.149  20.338  0.00  0.00    +0.000 NA
ATOM      5  C   UNL     1       3.790   4.043  19.598  0.00  0.00    +0.000 A 
ATOM      6  N   UNL     1       5.025   3.668  19.080  0.00  0.00    +0.000 N 
ATOM      7  N   UNL     1       3.367   5.296  19.385  0.00  0.00    +0.000 NA
ATOM      8  H   UNL     1       5.381   2.836  19.522  0.00  0.00    +0.000 HD
ENDROOT
BRANCH   6   9
ATOM      9  C   UNL     1       5.599   4.042  17.858  0.00  0.00    +0.000 A 
ATOM     10  C   UNL     1       4.892   3.818  16.671  0.00  0.00    +0.000 A 
ATOM     11  C   UNL     1       5.451   4.140  15.428  0.00  0.00    +0.000 A 
ATOM     12  C   UNL     1       6.727   4.705  15.356  0.00  0.00    +0.000 A 
ATOM     13  C   UNL     1       7.450   4.922  16.529  0.00  0.00    +0.000 A 
ATOM     14  C   UNL     1       6.892   4.578  17.765  0.00  0.00    +0.000 A 
BRANCH  12  15
ATOM     15  C   UNL     1       7.287   5.071  14.084  0.00  0.00    +0.000 C 
ATOM     16  N   UNL     1       7.729   5.373  13.059  0.00  0.00    +0.000 NA
ENDBRANCH  12  15
ENDBRANCH   6   9
BRANCH   1  17
ATOM     17  O   UNL     1       1.773   6.963  19.770  0.00  0.00    +0.000 OA
BRANCH  17  18
ATOM     18  C   UNL     1       1.819   7.716  20.989  0.00  0.00    +0.000 C 
BRANCH  18  21
ATOM     19  C   UNL     1      -0.386  10.654  22.041  0.00  0.00    +0.000 A 
ATOM     20  C   UNL     1       0.414   9.508  22.094  0.00  0.00    +0.000 A 
ATOM     21  C   UNL     1       0.864   8.886  20.923  0.00  0.00    +0.000 A 
ATOM     22  C   UNL     1       0.477   9.427  19.688  0.00  0.00    +0.000 A 
ATOM     23  C   UNL     1      -0.326  10.571  19.621  0.00  0.00    +0.000 A 
ATOM     24  C   UNL     1      -0.759  11.179  20.801  0.00  0.00    +0.000 A 
BRANCH  19  26
ATOM     25  C   UNL     1      -1.368  12.440  23.276  0.00  0.00    +0.000 C 
ATOM     26  O   UNL     1      -0.706  11.182  23.263  0.00  0.00    +0.000 OA
ENDBRANCH  19  26
BRANCH  23  27
ATOM     27  O   UNL     1      -0.596  11.009  18.351  0.00  0.00    +0.000 OA
ATOM     28  C   UNL     1      -0.978  12.372  18.207  0.00  0.00    +0.000 C 
ENDBRANCH  23  27
ENDBRANCH  18  21
ENDBRANCH  17  18
ENDBRANCH   1  17
TORSDOF 7
ENDMDL
MODEL 7
REMARK VINA RESULT:      -7.4      0.983      1.145
REMARK  Name = 
REMARK  9 active torsions:
REMARK  status: ('A' for Active; 'I' for Inactive)
REMARK    1  A    between atoms: C_1  and  O_2
REMARK    2  A    between atoms: O_2  and  C_3
REMARK    3  A    between atoms: C_5  and  C_6
REMARK    4  A    between atoms: C_6  and  O_7
REMARK    5  A    between atoms: O_7  and  C_8
REMARK    6  A    between atoms: N_13  and  C_14
REMARK    7  A    between atoms: C_17  and  C_18
REMARK    8  A    between atoms: C_24  and  O_25
REMARK    9  A    between atoms: O_25  and  C_26
REMARK                            x       y       z     vdW  Elec       q    Type
REMARK                         _______ _______ _______ _____ _____    ______ ____
ROOT
ATOM      1  C   UNL     1       2.584   6.115  19.997  0.00  0.00    +0.000 A 
ATOM      2  C   UNL     1       1.568   5.399  20.571  0.00  0.00    +0.000 A 
ATOM      3  C   UNL     1       1.694   4.035  20.477  0.00  0.00    +0.000 A 
ATOM      4  N   UNL     1       2.733   3.420  19.876  0.00  0.00    +0.000 NA
ATOM      5  C   UNL     1       3.646   4.211  19.293  0.00  0.00    +0.000 A 
ATOM      6  N   UNL     1       4.735   3.609  18.670  0.00  0.00    +0.000 N 
ATOM      7  N   UNL     1       3.598   5.549  19.331  0.00  0.00    +0.000 NA
ATOM      8  H   UNL     1       4.834   2.642  18.937  0.00  0.00    +0.000 HD
ENDROOT
BRANCH   6   9
ATOM      9  C   UNL     1       5.414   4.030  17.519  0.00  0.00    +0.000 A 
ATOM     10  C   UNL     1       4.781   3.931  16.275  0.00  0.00    +0.000 A 
ATOM     11  C   UNL     1       5.443   4.302  15.098  0.00  0.00    +0.000 A 
ATOM     12  C   UNL     1       6.750   4.792  15.152  0.00  0.00    +0.000 A 
ATOM     13  C   UNL     1       7.400   4.884  16.383  0.00  0.00    +0.000 A 
ATOM     14  C   UNL     1       6.738   4.491  17.551  0.00  0.00    +0.000 A 
BRANCH  12  15
ATOM     15  C   UNL     1       7.419   5.209  13.950  0.00  0.00    +0.000 C 
ATOM     16  N   UNL     1       7.947   5.541  12.976  0.00  0.00    +0.000 NA
ENDBRANCH  12  15
ENDBRANCH   6   9
BRANCH   1  17
ATOM     17  O   UNL     1       2.532   7.493  20.075  0.00  0.00    +0.000 OA
BRANCH  17  18
ATOM     18  C   UNL     1       2.051   8.077  18.856  0.00  0.00    +0.000 C 
BRANCH  18  21
ATOM     19  C   UNL     1      -0.846  10.526  18.407  0.00  0.00    +0.000 A 
ATOM     20  C   UNL     1       0.195   9.635  18.128  0.00  0.00    +0.000 A 
ATOM     21  C   UNL     1       1.003   9.125  19.152  0.00  0.00    +0.000 A 
ATOM     22  C   UNL     1       0.760   9.546  20.468  0.00  0.00    +0.000 A 
ATOM     23  C   UNL     1      -0.275  10.440  20.760  0.00  0.00    +0.000 A 
ATOM     24  C   UNL     1      -1.074  10.932  19.726  0.00  0.00    +0.000 A 
BRANCH  19  26
ATOM     25  C   UNL     1      -2.859  11.481  17.560  0.00  0.00    +0.000 C 
ATOM     26  O   UNL     1      -1.584  10.900  17.316  0.00  0.00    +0.000 OA
ENDBRANCH  19  26
BRANCH  23  27
ATOM     27  O   UNL     1      -0.420  10.736  22.090  0.00  0.00    +0.000 OA
ATOM     28  C   UNL     1      -0.169   9.685  23.016  0.00  0.00    +0.000 C 
ENDBRANCH  23  27
ENDBRANCH  18  21
ENDBRANCH  17  18
ENDBRANCH   1  17
TORSDOF 7
ENDMDL
MODEL 8
REMARK VINA RESULT:      -7.4      0.868      2.196
REMARK  Name = 
REMARK  9 active torsions:
REMARK  status: ('A' for Active; 'I' for Inactive)
REMARK    1  A    between atoms: C_1  and  O_2
REMARK    2  A    between atoms: O_2  and  C_3
REMARK    3  A    between atoms: C_5  and  C_6
REMARK    4  A    between atoms: C_6  and  O_7
REMARK    5  A    between atoms: O_7  and  C_8
REMARK    6  A    between atoms: N_13  and  C_14
REMARK    7  A    between atoms: C_17  and  C_18
REMARK    8  A    between atoms: C_24  and  O_25
REMARK    9  A    between atoms: O_25  and  C_26
REMARK                            x       y       z     vdW  Elec       q    Type
REMARK                         _______ _______ _______ _____ _____    ______ ____
ROOT
ATOM      1  C   UNL     1       2.410   6.177  20.044  0.00  0.00    +0.000 A 
ATOM      2  C   UNL     1       1.494   5.420  20.725  0.00  0.00    +0.000 A 
ATOM      3  C   UNL     1       1.793   4.082  20.806  0.00  0.00    +0.000 A 
ATOM      4  N   UNL     1       2.900   3.529  20.270  0.00  0.00    +0.000 NA
ATOM      5  C   UNL     1       3.703   4.345  19.572  0.00  0.00    +0.000 A 
ATOM      6  N   UNL     1       4.858   3.809  19.012  0.00  0.00    +0.000 N 
ATOM      7  N   UNL     1       3.486   5.660  19.438  0.00  0.00    +0.000 NA
ATOM      8  H   UNL     1       5.079   2.905  19.400  0.00  0.00    +0.000 HD
ENDROOT
BRANCH   6   9
ATOM      9  C   UNL     1       5.476   4.157  17.803  0.00  0.00    +0.000 A 
ATOM     10  C   UNL     1       4.773   3.998  16.604  0.00  0.00    +0.000 A 
ATOM     11  C   UNL     1       5.372   4.296  15.373  0.00  0.00    +0.000 A 
ATOM     12  C   UNL     1       6.685   4.773  15.327  0.00  0.00    +0.000 A 
ATOM     13  C   UNL     1       7.403   4.924  16.513  0.00  0.00    +0.000 A 
ATOM     14  C   UNL     1       6.803   4.604  17.737  0.00  0.00    +0.000 A 
BRANCH  12  15
ATOM     15  C   UNL     1       7.288   5.114  14.069  0.00  0.00    +0.000 C 
ATOM     16  N   UNL     1       7.773   5.378  13.053  0.00  0.00    +0.000 NA
ENDBRANCH  12  15
ENDBRANCH   6   9
BRANCH   1  17
ATOM     17  O   UNL     1       2.184   7.535  19.945  0.00  0.00    +0.000 OA
BRANCH  17  18
ATOM     18  C   UNL     1       1.452   8.037  21.071  0.00  0.00    +0.000 C 
BRANCH  18  21
ATOM     19  C   UNL     1       0.054  11.592  21.165  0.00  0.00    +0.000 A 
ATOM     20  C   UNL     1       0.664  10.394  21.551  0.00  0.00    +0.000 A 
ATOM     21  C   UNL     1       0.693   9.288  20.691  0.00  0.00    +0.000 A 
ATOM     22  C   UNL     1       0.076   9.400  19.437  0.00  0.00    +0.000 A 
ATOM     23  C   UNL     1      -0.542  10.591  19.040  0.00  0.00    +0.000 A 
ATOM     24  C   UNL     1      -0.554  11.683  19.909  0.00  0.00    +0.000 A 
BRANCH  19  26
ATOM     25  C   UNL     1       0.336  13.920  21.588  0.00  0.00    +0.000 C 
ATOM     26  O   UNL     1       0.148  12.601  22.085  0.00  0.00    +0.000 OA
ENDBRANCH  19  26
BRANCH  23  27
ATOM     27  O   UNL     1      -1.072  10.570  17.777  0.00  0.00    +0.000 OA
ATOM     28  C   UNL     1      -2.363   9.989  17.628  0.00  0.00    +0.000 C 
ENDBRANCH  23  27
ENDBRANCH  18  21
ENDBRANCH  17  18
ENDBRANCH   1  17
TORSDOF 7
ENDMDL
MODEL 9
REMARK VINA RESULT:      -7.4      0.534      2.429
REMARK  Name = 
REMARK  9 active torsions:
REMARK  status: ('A' for Active; 'I' for Inactive)
REMARK    1  A    between atoms: C_1  and  O_2
REMARK    2  A    between atoms: O_2  and  C_3
REMARK    3  A    between atoms: C_5  and  C_6
REMARK    4  A    between atoms: C_6  and  O_7
REMARK    5  A    between atoms: O_7  and  C_8
REMARK    6  A    between atoms: N_13  and  C_14
REMARK    7  A    between atoms: C_17  and  C_18
REMARK    8  A    between atoms: C_24  and  O_25
REMARK    9  A    between atoms: O_25  and  C_26
REMARK                            x       y       z     vdW  Elec       q    Type
REMARK                         _______ _______ _______ _____ _____    ______ ____
ROOT
ATOM      1  C   UNL     1       2.084   5.304  20.003  0.00  0.00    +0.000 A 
ATOM      2  C   UNL     1       1.378   4.411  20.764  0.00  0.00    +0.000 A 
ATOM      3  C   UNL     1       2.007   3.209  20.981  0.00  0.00    +0.000 A 
ATOM      4  N   UNL     1       3.229   2.907  20.498  0.00  0.00    +0.000 NA
ATOM      5  C   UNL     1       3.812   3.826  19.714  0.00  0.00    +0.000 A 
ATOM      6  N   UNL     1       5.076   3.550  19.205  0.00  0.00    +0.000 N 
ATOM      7  N   UNL     1       3.268   5.021  19.447  0.00  0.00    +0.000 NA
ATOM      8  H   UNL     1       5.513   2.777  19.683  0.00  0.00    +0.000 HD
ENDROOT
BRANCH   6   9
ATOM      9  C   UNL     1       5.609   3.921  17.963  0.00  0.00    +0.000 A 
ATOM     10  C   UNL     1       6.858   4.551  17.914  0.00  0.00    +0.000 A 
ATOM     11  C   UNL     1       7.404   4.974  16.696  0.00  0.00    +0.000 A 
ATOM     12  C   UNL     1       6.710   4.759  15.502  0.00  0.00    +0.000 A 
ATOM     13  C   UNL     1       5.458   4.145  15.536  0.00  0.00    +0.000 A 
ATOM     14  C   UNL     1       4.911   3.744  16.760  0.00  0.00    +0.000 A 
BRANCH  12  15
ATOM     15  C   UNL     1       7.284   5.159  14.248  0.00  0.00    +0.000 C 
ATOM     16  N   UNL     1       7.736   5.479  13.232  0.00  0.00    +0.000 NA
ENDBRANCH  12  15
ENDBRANCH   6   9
BRANCH   1  17
ATOM     17  O   UNL     1       1.521   6.542  19.765  0.00  0.00    +0.000 OA
BRANCH  17  18
ATOM     18  C   UNL     1       2.001   7.531  20.686  0.00  0.00    +0.000 C 
BRANCH  18  21
ATOM     19  C   UNL     1      -0.172  10.395  21.979  0.00  0.00    +0.000 A 
ATOM     20  C   UNL     1       0.606   9.233  21.935  0.00  0.00    +0.000 A 
ATOM     21  C   UNL     1       1.069   8.720  20.716  0.00  0.00    +0.000 A 
ATOM     22  C   UNL     1       0.717   9.387  19.533  0.00  0.00    +0.000 A 
ATOM     23  C   UNL     1      -0.064  10.547  19.564  0.00  0.00    +0.000 A 
ATOM     24  C   UNL     1      -0.510  11.046  20.789  0.00  0.00    +0.000 A 
BRANCH  19  26
ATOM     25  C   UNL     1      -1.603  11.707  23.361  0.00  0.00    +0.000 C 
ATOM     26  O   UNL     1      -0.509  10.807  23.240  0.00  0.00    +0.000 OA
ENDBRANCH  19  26
BRANCH  23  27
ATOM     27  O   UNL     1      -0.300  11.112  18.338  0.00  0.00    +0.000 OA
ATOM     28  C   UNL     1      -1.608  10.962  17.799  0.00  0.00    +0.000 C 
ENDBRANCH  23  27
ENDBRANCH  18  21
ENDBRANCH  17  18
ENDBRANCH   1  17
TORSDOF 7
ENDMDL
