MODEL 1
REMARK VINA RESULT:      -7.7      0.000      0.000
REMARK  Name = 
REMARK  7 active torsions:
REMARK  status: ('A' for Active; 'I' for Inactive)
REMARK    1  A    between atoms: C_1  and  O_2
REMARK    2  A    between atoms: O_2  and  C_3
REMARK    3  A    between atoms: C_6  and  N_7
REMARK    4  A    between atoms: C_8  and  C_10
REMARK    5  A    between atoms: N_12  and  C_13
REMARK    6  A    between atoms: C_23  and  O_24
REMARK    7  A    between atoms: O_24  and  C_25
REMARK                            x       y       z     vdW  Elec       q    Type
REMARK                         _______ _______ _______ _____ _____    ______ ____
ROOT
ATOM      1  N   UNL     1       9.355   9.686  18.790  0.00  0.00    +0.000 N 
ATOM      2  C   UNL     1       8.261   9.454  17.994  0.00  0.00    +0.000 C 
ATOM      3  O   UNL     1       7.599  10.254  17.344  0.00  0.00    +0.000 OA
ATOM      4  H   UNL     1       9.552   8.960  19.477  0.00  0.00    +0.000 HD
ENDROOT
BRANCH   1   8
ATOM      5  C   UNL     1      11.322  13.303  19.554  0.00  0.00    +0.000 A 
ATOM      6  C   UNL     1      11.503  12.666  18.323  0.00  0.00    +0.000 A 
ATOM      7  C   UNL     1      10.815  11.487  18.026  0.00  0.00    +0.000 A 
ATOM      8  C   UNL     1       9.990  10.917  18.994  0.00  0.00    +0.000 A 
ATOM      9  C   UNL     1       9.836  11.526  20.252  0.00  0.00    +0.000 A 
ATOM     10  C   UNL     1      10.485  12.734  20.518  0.00  0.00    +0.000 A 
BRANCH   5  12
ATOM     11  C   UNL     1      12.008  15.372  18.627  0.00  0.00    +0.000 C 
ATOM     12  O   UNL     1      12.043  14.456  19.717  0.00  0.00    +0.000 OA
ENDBRANCH   5  12
BRANCH   9  13
ATOM     13  O   UNL     1       8.979  10.877  21.108  0.00  0.00    +0.000 OA
ATOM     14  C   UNL     1       8.421  11.634  22.172  0.00  0.00    +0.000 C 
ENDBRANCH   9  13
ENDBRANCH   1   8
BRANCH   2  15
ATOM     15  C   UNL     1       7.837   7.974  18.050  0.00  0.00    +0.000 C 
ATOM     16  O   UNL     1       8.417   7.247  18.846  0.00  0.00    +0.000 OA
ATOM     17  N   UNL     1       6.802   7.660  17.190  0.00  0.00    +0.000 N 
ATOM     18  H   UNL     1       6.388   8.456  16.715  0.00  0.00    +0.000 HD
BRANCH  17  19
ATOM     19  C   UNL     1       6.323   6.362  16.887  0.00  0.00    +0.000 A 
ATOM     20  C   UNL     1       7.106   5.478  16.126  0.00  0.00    +0.000 A 
ATOM     21  C   UNL     1       6.633   4.226  15.761  0.00  0.00    +0.000 A 
ATOM     22  C   UNL     1       5.354   3.837  16.128  0.00  0.00    +0.000 A 
ATOM     23  C   UNL     1       4.532   4.694  16.870  0.00  0.00    +0.000 A 
ATOM     24  C   UNL     1       3.226   4.288  17.181  0.00  0.00    +0.000 A 
ATOM     25  C   UNL     1       2.381   5.094  17.933  0.00  0.00    +0.000 A 
ATOM     26  C   UNL     1       2.836   6.319  18.392  0.00  0.00    +0.000 A 
ATOM     27  C   UNL     1       4.132   6.748  18.084  0.00  0.00    +0.000 A 
ATOM     28  C   UNL     1       5.010   5.967  17.288  0.00  0.00    +0.000 A 
ENDBRANCH  17  19
ENDBRANCH   2  15
TORSDOF 5
ENDMDL
MODEL 2
REMARK VINA RESULT:      -7.6      6.638      9.021
REMARK  Name = 
REMARK  7 active torsions:
REMARK  status: ('A' for Active; 'I' for Inactive)
REMARK    1  A    between atoms: C_1  and  O_2
REMARK    2  A    between atoms: O_2  and  C_3
REMARK    3  A    between atoms: C_6  and  N_7
REMARK    4  A    between atoms: C_8  and  C_10
REMARK    5  A    between atoms: N_12  and  C_13
REMARK    6  A    between atoms: C_23  and  O_24
REMARK    7  A    between atoms: O_24  and  C_25
REMARK                            x       y       z     vdW  Elec       q    Type
REMARK                         _______ _______ _______ _____ _____    ______ ____
ROOT
ATOM      1  N   UNL     1       0.218   9.853  20.349  0.00  0.00    +0.000 N 
ATOM      2  C   UNL     1       1.158   8.944  20.766  0.00  0.00    +0.000 C 
ATOM      3  O   UNL     1       1.573   8.731  21.899  0.00  0.00    +0.000 OA
ATOM      4  H   UNL     1       0.253  10.089  19.358  0.00  0.00    +0.000 HD
ENDROOT
BRANCH   1   8
ATOM      5  C   UNL     1      -2.126  12.437  22.666  0.00  0.00    +0.000 A 
ATOM      6  C   UNL     1      -1.552  11.308  23.258  0.00  0.00    +0.000 A 
ATOM      7  C   UNL     1      -0.723  10.463  22.518  0.00  0.00    +0.000 A 
ATOM      8  C   UNL     1      -0.521  10.721  21.163  0.00  0.00    +0.000 A 
ATOM      9  C   UNL     1      -1.130  11.827  20.547  0.00  0.00    +0.000 A 
ATOM     10  C   UNL     1      -1.912  12.699  21.309  0.00  0.00    +0.000 A 
BRANCH   5  12
ATOM     11  C   UNL     1      -3.928  12.489  24.201  0.00  0.00    +0.000 C 
ATOM     12  O   UNL     1      -2.907  13.191  23.500  0.00  0.00    +0.000 OA
ENDBRANCH   5  12
BRANCH   9  13
ATOM     13  O   UNL     1      -0.834  11.984  19.213  0.00  0.00    +0.000 OA
ATOM     14  C   UNL     1      -1.909  11.893  18.290  0.00  0.00    +0.000 C 
ENDBRANCH   9  13
ENDBRANCH   1   8
BRANCH   2  15
ATOM     15  C   UNL     1       1.774   8.193  19.571  0.00  0.00    +0.000 C 
ATOM     16  O   UNL     1       1.662   8.702  18.463  0.00  0.00    +0.000 OA
ATOM     17  N   UNL     1       2.420   7.024  19.922  0.00  0.00    +0.000 N 
ATOM     18  H   UNL     1       2.498   6.866  20.923  0.00  0.00    +0.000 HD
BRANCH  17  19
ATOM     19  C   UNL     1       2.919   6.038  19.036  0.00  0.00    +0.000 A 
ATOM     20  C   UNL     1       3.936   6.356  18.122  0.00  0.00    +0.000 A 
ATOM     21  C   UNL     1       4.396   5.427  17.201  0.00  0.00    +0.000 A 
ATOM     22  C   UNL     1       3.830   4.162  17.155  0.00  0.00    +0.000 A 
ATOM     23  C   UNL     1       2.800   3.808  18.034  0.00  0.00    +0.000 A 
ATOM     24  C   UNL     1       2.216   2.537  17.926  0.00  0.00    +0.000 A 
ATOM     25  C   UNL     1       1.207   2.133  18.790  0.00  0.00    +0.000 A 
ATOM     26  C   UNL     1       0.771   2.996  19.781  0.00  0.00    +0.000 A 
ATOM     27  C   UNL     1       1.331   4.272  19.899  0.00  0.00    +0.000 A 
ATOM     28  C   UNL     1       2.339   4.732  19.012  0.00  0.00    +0.000 A 
ENDBRANCH  17  19
ENDBRANCH   2  15
TORSDOF 5
ENDMDL
MODEL 3
REMARK VINA RESULT:      -7.6      6.141      9.590
REMARK  Name = 
REMARK  7 active torsions:
REMARK  status: ('A' for Active; 'I' for Inactive)
REMARK    1  A    between atoms: C_1  and  O_2
REMARK    2  A    between atoms: O_2  and  C_3
REMARK    3  A    between atoms: C_6  and  N_7
REMARK    4  A    between atoms: C_8  and  C_10
REMARK    5  A    between atoms: N_12  and  C_13
REMARK    6  A    between atoms: C_23  and  O_24
REMARK    7  A    between atoms: O_24  and  C_25
REMARK                            x       y       z     vdW  Elec       q    Type
REMARK                         _______ _______ _______ _____ _____    ______ ____
ROOT
ATOM      1  N   UNL     1       2.468   7.260  18.502  0.00  0.00    +0.000 N 
ATOM      2  C   UNL     1       2.180   8.510  18.014  0.00  0.00    +0.000 C 
ATOM      3  O   UNL     1       2.637   9.075  17.028  0.00  0.00    +0.000 OA
ATOM      4  H   UNL     1       2.231   7.113  19.482  0.00  0.00    +0.000 HD
ENDROOT
BRANCH   1   8
ATOM      5  C   UNL     1       4.929   4.405  16.679  0.00  0.00    +0.000 A 
ATOM      6  C   UNL     1       5.365   5.729  16.778  0.00  0.00    +0.000 A 
ATOM      7  C   UNL     1       4.584   6.686  17.430  0.00  0.00    +0.000 A 
ATOM      8  C   UNL     1       3.335   6.322  17.929  0.00  0.00    +0.000 A 
ATOM      9  C   UNL     1       2.867   5.003  17.794  0.00  0.00    +0.000 A 
ATOM     10  C   UNL     1       3.680   4.040  17.191  0.00  0.00    +0.000 A 
BRANCH   5  12
ATOM     11  C   UNL     1       6.189   3.964  14.723  0.00  0.00    +0.000 C 
ATOM     12  O   UNL     1       5.790   3.562  16.029  0.00  0.00    +0.000 OA
ENDBRANCH   5  12
BRANCH   9  13
ATOM     13  O   UNL     1       1.631   4.768  18.348  0.00  0.00    +0.000 OA
ATOM     14  C   UNL     1       1.511   3.666  19.235  0.00  0.00    +0.000 C 
ENDBRANCH   9  13
ENDBRANCH   1   8
BRANCH   2  15
ATOM     15  C   UNL     1       1.202   9.257  18.940  0.00  0.00    +0.000 C 
ATOM     16  O   UNL     1       1.097   8.860  20.093  0.00  0.00    +0.000 OA
ATOM     17  N   UNL     1       0.576  10.331  18.337  0.00  0.00    +0.000 N 
ATOM     18  H   UNL     1       0.916  10.553  17.406  0.00  0.00    +0.000 HD
BRANCH  17  19
ATOM     19  C   UNL     1      -0.498  11.088  18.868  0.00  0.00    +0.000 A 
ATOM     20  C   UNL     1      -0.324  11.832  20.047  0.00  0.00    +0.000 A 
ATOM     21  C   UNL     1      -1.376  12.529  20.623  0.00  0.00    +0.000 A 
ATOM     22  C   UNL     1      -2.636  12.477  20.045  0.00  0.00    +0.000 A 
ATOM     23  C   UNL     1      -2.858  11.730  18.882  0.00  0.00    +0.000 A 
ATOM     24  C   UNL     1      -4.157  11.659  18.355  0.00  0.00    +0.000 A 
ATOM     25  C   UNL     1      -4.423  10.950  17.191  0.00  0.00    +0.000 A 
ATOM     26  C   UNL     1      -3.389  10.305  16.533  0.00  0.00    +0.000 A 
ATOM     27  C   UNL     1      -2.089  10.355  17.048  0.00  0.00    +0.000 A 
ATOM     28  C   UNL     1      -1.786  11.040  18.254  0.00  0.00    +0.000 A 
ENDBRANCH  17  19
ENDBRANCH   2  15
TORSDOF 5
ENDMDL
MODEL 4
REMARK VINA RESULT:      -7.6      6.516      8.351
REMARK  Name = 
REMARK  7 active torsions:
REMARK  status: ('A' for Active; 'I' for Inactive)
REMARK    1  A    between atoms: C_1  and  O_2
REMARK    2  A    between atoms: O_2  and  C_3
REMARK    3  A    between atoms: C_6  and  N_7
REMARK    4  A    between atoms: C_8  and  C_10
REMARK    5  A    between atoms: N_12  and  C_13
REMARK    6  A    between atoms: C_23  and  O_24
REMARK    7  A    between atoms: O_24  and  C_25
REMARK                            x       y       z     vdW  Elec       q    Type
REMARK                         _______ _______ _______ _____ _____    ______ ____
ROOT
ATOM      1  N   UNL     1       0.630  10.115  20.557  0.00  0.00    +0.000 N 
ATOM      2  C   UNL     1       1.262   8.955  20.928  0.00  0.00    +0.000 C 
ATOM      3  O   UNL     1       1.469   8.518  22.054  0.00  0.00    +0.000 OA
ATOM      4  H   UNL     1       0.844  10.442  19.615  0.00  0.00    +0.000 HD
ENDROOT
BRANCH   1   8
ATOM      5  C   UNL     1      -1.220  12.994  22.969  0.00  0.00    +0.000 A 
ATOM      6  C   UNL     1      -1.508  11.640  23.166  0.00  0.00    +0.000 A 
ATOM      7  C   UNL     1      -0.862  10.661  22.410  0.00  0.00    +0.000 A 
ATOM      8  C   UNL     1       0.030  11.047  21.412  0.00  0.00    +0.000 A 
ATOM      9  C   UNL     1       0.293  12.408  21.175  0.00  0.00    +0.000 A 
ATOM     10  C   UNL     1      -0.316  13.378  21.975  0.00  0.00    +0.000 A 
BRANCH   5  12
ATOM     11  C   UNL     1      -1.151  14.913  24.355  0.00  0.00    +0.000 C 
ATOM     12  O   UNL     1      -1.910  13.853  23.782  0.00  0.00    +0.000 OA
ENDBRANCH   5  12
BRANCH   9  13
ATOM     13  O   UNL     1       1.207  12.657  20.179  0.00  0.00    +0.000 OA
ATOM     14  C   UNL     1       0.844  13.596  19.178  0.00  0.00    +0.000 C 
ENDBRANCH   9  13
ENDBRANCH   1   8
BRANCH   2  15
ATOM     15  C   UNL     1       1.820   8.208  19.702  0.00  0.00    +0.000 C 
ATOM     16  O   UNL     1       1.650   8.717  18.602  0.00  0.00    +0.000 OA
ATOM     17  N   UNL     1       2.488   7.041  20.019  0.00  0.00    +0.000 N 
ATOM     18  H   UNL     1       2.617   6.882  21.013  0.00  0.00    +0.000 HD
BRANCH  17  19
ATOM     19  C   UNL     1       2.945   6.058  19.107  0.00  0.00    +0.000 A 
ATOM     20  C   UNL     1       3.951   6.367  18.177  0.00  0.00    +0.000 A 
ATOM     21  C   UNL     1       4.371   5.443  17.232  0.00  0.00    +0.000 A 
ATOM     22  C   UNL     1       3.774   4.192  17.178  0.00  0.00    +0.000 A 
ATOM     23  C   UNL     1       2.754   3.849  18.072  0.00  0.00    +0.000 A 
ATOM     24  C   UNL     1       2.138   2.593  17.956  0.00  0.00    +0.000 A 
ATOM     25  C   UNL     1       1.137   2.198  18.834  0.00  0.00    +0.000 A 
ATOM     26  C   UNL     1       0.741   3.055  19.847  0.00  0.00    +0.000 A 
ATOM     27  C   UNL     1       1.334   4.315  19.974  0.00  0.00    +0.000 A 
ATOM     28  C   UNL     1       2.335   4.766  19.074  0.00  0.00    +0.000 A 
ENDBRANCH  17  19
ENDBRANCH   2  15
TORSDOF 5
ENDMDL
MODEL 5
REMARK VINA RESULT:      -7.5      6.202      8.587
REMARK  Name = 
REMARK  7 active torsions:
REMARK  status: ('A' for Active; 'I' for Inactive)
REMARK    1  A    between atoms: C_1  and  O_2
REMARK    2  A    between atoms: O_2  and  C_3
REMARK    3  A    between atoms: C_6  and  N_7
REMARK    4  A    between atoms: C_8  and  C_10
REMARK    5  A    between atoms: N_12  and  C_13
REMARK    6  A    between atoms: C_23  and  O_24
REMARK    7  A    between atoms: O_24  and  C_25
REMARK                            x       y       z     vdW  Elec       q    Type
REMARK                         _______ _______ _______ _____ _____    ______ ____
ROOT
ATOM      1  N   UNL     1       3.881   6.345  18.701  0.00  0.00    +0.000 N 
ATOM      2  C   UNL     1       2.569   5.952  18.785  0.00  0.00    +0.000 C 
ATOM      3  O   UNL     1       1.934   5.224  18.030  0.00  0.00    +0.000 OA
ATOM      4  H   UNL     1       4.115   7.184  19.231  0.00  0.00    +0.000 HD
ENDROOT
BRANCH   1   8
ATOM      5  C   UNL     1       6.599   4.986  15.821  0.00  0.00    +0.000 A 
ATOM      6  C   UNL     1       5.751   6.056  15.519  0.00  0.00    +0.000 A 
ATOM      7  C   UNL     1       4.875   6.560  16.482  0.00  0.00    +0.000 A 
ATOM      8  C   UNL     1       4.810   5.948  17.732  0.00  0.00    +0.000 A 
ATOM      9  C   UNL     1       5.626   4.843  18.031  0.00  0.00    +0.000 A 
ATOM     10  C   UNL     1       6.540   4.381  17.080  0.00  0.00    +0.000 A 
BRANCH   5  12
ATOM     11  C   UNL     1       6.774   4.293  13.564  0.00  0.00    +0.000 C 
ATOM     12  O   UNL     1       7.419   4.594  14.797  0.00  0.00    +0.000 OA
ENDBRANCH   5  12
BRANCH   9  13
ATOM     13  O   UNL     1       5.482   4.344  19.304  0.00  0.00    +0.000 OA
ATOM     14  C   UNL     1       4.759   3.132  19.453  0.00  0.00    +0.000 C 
ENDBRANCH   9  13
ENDBRANCH   1   8
BRANCH   2  15
ATOM     15  C   UNL     1       1.860   6.627  19.974  0.00  0.00    +0.000 C 
ATOM     16  O   UNL     1       1.429   5.904  20.863  0.00  0.00    +0.000 OA
ATOM     17  N   UNL     1       1.830   8.006  19.893  0.00  0.00    +0.000 N 
ATOM     18  H   UNL     1       2.367   8.398  19.125  0.00  0.00    +0.000 HD
BRANCH  17  19
ATOM     19  C   UNL     1       1.099   8.884  20.730  0.00  0.00    +0.000 A 
ATOM     20  C   UNL     1       1.156   8.742  22.127  0.00  0.00    +0.000 A 
ATOM     21  C   UNL     1       0.399   9.546  22.966  0.00  0.00    +0.000 A 
ATOM     22  C   UNL     1      -0.454  10.497  22.425  0.00  0.00    +0.000 A 
ATOM     23  C   UNL     1      -0.557  10.658  21.039  0.00  0.00    +0.000 A 
ATOM     24  C   UNL     1      -1.468  11.595  20.527  0.00  0.00    +0.000 A 
ATOM     25  C   UNL     1      -1.590  11.806  19.160  0.00  0.00    +0.000 A 
ATOM     26  C   UNL     1      -0.795  11.086  18.284  0.00  0.00    +0.000 A 
ATOM     27  C   UNL     1       0.111  10.139  18.773  0.00  0.00    +0.000 A 
ATOM     28  C   UNL     1       0.238   9.871  20.161  0.00  0.00    +0.000 A 
ENDBRANCH  17  19
ENDBRANCH   2  15
TORSDOF 5
ENDMDL
MODEL 6
REMARK VINA RESULT:      -7.5      6.454      8.439
REMARK  Name = 
REMARK  7 active torsions:
REMARK  status: ('A' for Active; 'I' for Inactive)
REMARK    1  A    between atoms: C_1  and  O_2
REMARK    2  A    between atoms: O_2  and  C_3
REMARK    3  A    between atoms: C_6  and  N_7
REMARK    4  A    between atoms: C_8  and  C_10
REMARK    5  A    between atoms: N_12  and  C_13
REMARK    6  A    between atoms: C_23  and  O_24
REMARK    7  A    between atoms: O_24  and  C_25
REMARK                            x       y       z     vdW  Elec       q    Type
REMARK                         _______ _______ _______ _____ _____    ______ ____
ROOT
ATOM      1  N   UNL     1       0.751  10.366  18.456  0.00  0.00    +0.000 N 
ATOM      2  C   UNL     1       1.268   9.298  19.146  0.00  0.00    +0.000 C 
ATOM      3  O   UNL     1       1.186   9.042  20.341  0.00  0.00    +0.000 OA
ATOM      4  H   UNL     1       1.194  10.556  17.558  0.00  0.00    +0.000 HD
ENDROOT
BRANCH   1   8
ATOM      5  C   UNL     1      -1.715  13.314  20.116  0.00  0.00    +0.000 A 
ATOM      6  C   UNL     1      -0.329  13.412  20.262  0.00  0.00    +0.000 A 
ATOM      7  C   UNL     1       0.515  12.470  19.671  0.00  0.00    +0.000 A 
ATOM      8  C   UNL     1      -0.041  11.394  18.983  0.00  0.00    +0.000 A 
ATOM      9  C   UNL     1      -1.435  11.261  18.868  0.00  0.00    +0.000 A 
ATOM     10  C   UNL     1      -2.270  12.239  19.415  0.00  0.00    +0.000 A 
BRANCH   5  12
ATOM     11  C   UNL     1      -1.909  15.624  20.601  0.00  0.00    +0.000 C 
ATOM     12  O   UNL     1      -2.431  14.306  20.732  0.00  0.00    +0.000 OA
ENDBRANCH   5  12
BRANCH   9  13
ATOM     13  O   UNL     1      -1.856  10.169  18.147  0.00  0.00    +0.000 OA
ATOM     14  C   UNL     1      -2.402  10.408  16.858  0.00  0.00    +0.000 C 
ENDBRANCH   9  13
ENDBRANCH   1   8
BRANCH   2  15
ATOM     15  C   UNL     1       2.112   8.396  18.226  0.00  0.00    +0.000 C 
ATOM     16  O   UNL     1       2.318   8.786  17.083  0.00  0.00    +0.000 OA
ATOM     17  N   UNL     1       2.566   7.245  18.840  0.00  0.00    +0.000 N 
ATOM     18  H   UNL     1       2.378   7.193  19.836  0.00  0.00    +0.000 HD
BRANCH  17  19
ATOM     19  C   UNL     1       3.203   6.149  18.208  0.00  0.00    +0.000 A 
ATOM     20  C   UNL     1       4.314   6.358  17.375  0.00  0.00    +0.000 A 
ATOM     21  C   UNL     1       4.915   5.310  16.694  0.00  0.00    +0.000 A 
ATOM     22  C   UNL     1       4.401   4.027  16.812  0.00  0.00    +0.000 A 
ATOM     23  C   UNL     1       3.283   3.776  17.616  0.00  0.00    +0.000 A 
ATOM     24  C   UNL     1       2.760   2.475  17.671  0.00  0.00    +0.000 A 
ATOM     25  C   UNL     1       1.666   2.173  18.471  0.00  0.00    +0.000 A 
ATOM     26  C   UNL     1       1.082   3.170  19.234  0.00  0.00    +0.000 A 
ATOM     27  C   UNL     1       1.581   4.476  19.185  0.00  0.00    +0.000 A 
ATOM     28  C   UNL     1       2.675   4.829  18.352  0.00  0.00    +0.000 A 
ENDBRANCH  17  19
ENDBRANCH   2  15
TORSDOF 5
ENDMDL
MODEL 7
REMARK VINA RESULT:      -7.4      6.093      8.505
REMARK  Name = 
REMARK  7 active torsions:
REMARK  status: ('A' for Active; 'I' for Inactive)
REMARK    1  A    between atoms: C_1  and  O_2
REMARK    2  A    between atoms: O_2  and  C_3
REMARK    3  A    between atoms: C_6  and  N_7
REMARK    4  A    between atoms: C_8  and  C_10
REMARK    5  A    between atoms: N_12  and  C_13
REMARK    6  A    between atoms: C_23  and  O_24
REMARK    7  A    between atoms: O_24  and  C_25
REMARK                            x       y       z     vdW  Elec       q    Type
REMARK                         _______ _______ _______ _____ _____    ______ ____
ROOT
ATOM      1  N   UNL     1       0.355   9.375  19.860  0.00  0.00    +0.000 N 
ATOM      2  C   UNL     1       1.374   9.326  18.942  0.00  0.00    +0.000 C 
ATOM      3  O   UNL     1       1.656  10.131  18.062  0.00  0.00    +0.000 OA
ATOM      4  H   UNL     1       0.106   8.478  20.278  0.00  0.00    +0.000 HD
ENDROOT
BRANCH   1   8
ATOM      5  C   UNL     1      -2.296  12.572  20.389  0.00  0.00    +0.000 A 
ATOM      6  C   UNL     1      -2.252  11.908  19.160  0.00  0.00    +0.000 A 
ATOM      7  C   UNL     1      -1.415  10.806  18.979  0.00  0.00    +0.000 A 
ATOM      8  C   UNL     1      -0.576  10.408  20.018  0.00  0.00    +0.000 A 
ATOM      9  C   UNL     1      -0.579  11.097  21.243  0.00  0.00    +0.000 A 
ATOM     10  C   UNL     1      -1.460  12.164  21.434  0.00  0.00    +0.000 A 
BRANCH   5  12
ATOM     11  C   UNL     1      -4.532  13.299  20.668  0.00  0.00    +0.000 C 
ATOM     12  O   UNL     1      -3.165  13.628  20.443  0.00  0.00    +0.000 OA
ENDBRANCH   5  12
BRANCH   9  13
ATOM     13  O   UNL     1       0.278  10.594  22.193  0.00  0.00    +0.000 OA
ATOM     14  C   UNL     1      -0.288   9.816  23.237  0.00  0.00    +0.000 C 
ENDBRANCH   9  13
ENDBRANCH   1   8
BRANCH   2  15
ATOM     15  C   UNL     1       2.168   8.012  19.060  0.00  0.00    +0.000 C 
ATOM     16  O   UNL     1       2.263   7.504  20.170  0.00  0.00    +0.000 OA
ATOM     17  N   UNL     1       2.658   7.548  17.855  0.00  0.00    +0.000 N 
ATOM     18  H   UNL     1       2.345   8.069  17.041  0.00  0.00    +0.000 HD
BRANCH  17  19
ATOM     19  C   UNL     1       3.568   6.478  17.670  0.00  0.00    +0.000 A 
ATOM     20  C   UNL     1       4.903   6.737  17.318  0.00  0.00    +0.000 A 
ATOM     21  C   UNL     1       5.797   5.706  17.069  0.00  0.00    +0.000 A 
ATOM     22  C   UNL     1       5.368   4.388  17.142  0.00  0.00    +0.000 A 
ATOM     23  C   UNL     1       4.042   4.086  17.470  0.00  0.00    +0.000 A 
ATOM     24  C   UNL     1       3.631   2.744  17.484  0.00  0.00    +0.000 A 
ATOM     25  C   UNL     1       2.331   2.393  17.825  0.00  0.00    +0.000 A 
ATOM     26  C   UNL     1       1.424   3.383  18.163  0.00  0.00    +0.000 A 
ATOM     27  C   UNL     1       1.809   4.727  18.144  0.00  0.00    +0.000 A 
ATOM     28  C   UNL     1       3.118   5.125  17.767  0.00  0.00    +0.000 A 
ENDBRANCH  17  19
ENDBRANCH   2  15
TORSDOF 5
ENDMDL
MODEL 8
REMARK VINA RESULT:      -7.4      6.365      8.140
REMARK  Name = 
REMARK  7 active torsions:
REMARK  status: ('A' for Active; 'I' for Inactive)
REMARK    1  A    between atoms: C_1  and  O_2
REMARK    2  A    between atoms: O_2  and  C_3
REMARK    3  A    between atoms: C_6  and  N_7
REMARK    4  A    between atoms: C_8  and  C_10
REMARK    5  A    between atoms: N_12  and  C_13
REMARK    6  A    between atoms: C_23  and  O_24
REMARK    7  A    between atoms: O_24  and  C_25
REMARK                            x       y       z     vdW  Elec       q    Type
REMARK                         _______ _______ _______ _____ _____    ______ ____
ROOT
ATOM      1  N   UNL     1       1.368   9.592  20.052  0.00  0.00    +0.000 N 
ATOM      2  C   UNL     1       1.027   9.348  18.745  0.00  0.00    +0.000 C 
ATOM      3  O   UNL     1       0.019   9.688  18.138  0.00  0.00    +0.000 OA
ATOM      4  H   UNL     1       2.073   8.964  20.439  0.00  0.00    +0.000 HD
ENDROOT
BRANCH   1   8
ATOM      5  C   UNL     1      -0.897  11.930  22.685  0.00  0.00    +0.000 A 
ATOM      6  C   UNL     1      -0.938  10.537  22.789  0.00  0.00    +0.000 A 
ATOM      7  C   UNL     1      -0.150   9.740  21.958  0.00  0.00    +0.000 A 
ATOM      8  C   UNL     1       0.636  10.344  20.978  0.00  0.00    +0.000 A 
ATOM      9  C   UNL     1       0.650  11.742  20.834  0.00  0.00    +0.000 A 
ATOM     10  C   UNL     1      -0.099  12.534  21.708  0.00  0.00    +0.000 A 
BRANCH   5  12
ATOM     11  C   UNL     1      -3.085  12.245  23.534  0.00  0.00    +0.000 C 
ATOM     12  O   UNL     1      -1.706  12.598  23.565  0.00  0.00    +0.000 OA
ENDBRANCH   5  12
BRANCH   9  13
ATOM     13  O   UNL     1       1.482  12.215  19.847  0.00  0.00    +0.000 OA
ATOM     14  C   UNL     1       0.987  13.256  19.019  0.00  0.00    +0.000 C 
ENDBRANCH   9  13
ENDBRANCH   1   8
BRANCH   2  15
ATOM     15  C   UNL     1       2.073   8.454  18.054  0.00  0.00    +0.000 C 
ATOM     16  O   UNL     1       2.640   8.905  17.067  0.00  0.00    +0.000 OA
ATOM     17  N   UNL     1       2.262   7.236  18.677  0.00  0.00    +0.000 N 
ATOM     18  H   UNL     1       1.772   7.130  19.560  0.00  0.00    +0.000 HD
BRANCH  17  19
ATOM     19  C   UNL     1       3.013   6.142  18.179  0.00  0.00    +0.000 A 
ATOM     20  C   UNL     1       4.172   6.367  17.419  0.00  0.00    +0.000 A 
ATOM     21  C   UNL     1       4.889   5.316  16.866  0.00  0.00    +0.000 A 
ATOM     22  C   UNL     1       4.446   4.013  17.040  0.00  0.00    +0.000 A 
ATOM     23  C   UNL     1       3.284   3.745  17.772  0.00  0.00    +0.000 A 
ATOM     24  C   UNL     1       2.838   2.419  17.884  0.00  0.00    +0.000 A 
ATOM     25  C   UNL     1       1.704   2.101  18.619  0.00  0.00    +0.000 A 
ATOM     26  C   UNL     1       1.001   3.108  19.260  0.00  0.00    +0.000 A 
ATOM     27  C   UNL     1       1.422   4.438  19.152  0.00  0.00    +0.000 A 
ATOM     28  C   UNL     1       2.556   4.804  18.380  0.00  0.00    +0.000 A 
ENDBRANCH  17  19
ENDBRANCH   2  15
TORSDOF 5
ENDMDL
MODEL 9
REMARK VINA RESULT:      -7.4      6.448      8.197
REMARK  Name = 
REMARK  7 active torsions:
REMARK  status: ('A' for Active; 'I' for Inactive)
REMARK    1  A    between atoms: C_1  and  O_2
REMARK    2  A    between atoms: O_2  and  C_3
REMARK    3  A    between atoms: C_6  and  N_7
REMARK    4  A    between atoms: C_8  and  C_10
REMARK    5  A    between atoms: N_12  and  C_13
REMARK    6  A    between atoms: C_23  and  O_24
REMARK    7  A    between atoms: O_24  and  C_25
REMARK                            x       y       z     vdW  Elec       q    Type
REMARK                         _______ _______ _______ _____ _____    ______ ____
ROOT
ATOM      1  N   UNL     1       1.109  10.016  20.323  0.00  0.00    +0.000 N 
ATOM      2  C   UNL     1       0.762   9.727  19.027  0.00  0.00    +0.000 C 
ATOM      3  O   UNL     1      -0.226  10.086  18.397  0.00  0.00    +0.000 OA
ATOM      4  H   UNL     1       1.781   9.375  20.744  0.00  0.00    +0.000 HD
ENDROOT
BRANCH   1   8
ATOM      5  C   UNL     1      -1.043  12.592  22.826  0.00  0.00    +0.000 A 
ATOM      6  C   UNL     1      -1.215  11.210  22.946  0.00  0.00    +0.000 A 
ATOM      7  C   UNL     1      -0.468  10.331  22.159  0.00  0.00    +0.000 A 
ATOM      8  C   UNL     1       0.410  10.846  21.207  0.00  0.00    +0.000 A 
ATOM      9  C   UNL     1       0.558  12.235  21.047  0.00  0.00    +0.000 A 
ATOM     10  C   UNL     1      -0.152  13.105  21.878  0.00  0.00    +0.000 A 
BRANCH   5  12
ATOM     11  C   UNL     1      -1.336  14.646  23.967  0.00  0.00    +0.000 C 
ATOM     12  O   UNL     1      -1.824  13.344  23.662  0.00  0.00    +0.000 OA
ENDBRANCH   5  12
BRANCH   9  13
ATOM     13  O   UNL     1       1.470  12.615  20.091  0.00  0.00    +0.000 OA
ATOM     14  C   UNL     1       1.015  13.478  19.060  0.00  0.00    +0.000 C 
ENDBRANCH   9  13
ENDBRANCH   1   8
BRANCH   2  15
ATOM     15  C   UNL     1       1.767   8.752  18.385  0.00  0.00    +0.000 C 
ATOM     16  O   UNL     1       2.205   9.036  17.278  0.00  0.00    +0.000 OA
ATOM     17  N   UNL     1       2.075   7.667  19.183  0.00  0.00    +0.000 N 
ATOM     18  H   UNL     1       1.688   7.706  20.121  0.00  0.00    +0.000 HD
BRANCH  17  19
ATOM     19  C   UNL     1       2.816   6.522  18.799  0.00  0.00    +0.000 A 
ATOM     20  C   UNL     1       3.840   6.629  17.844  0.00  0.00    +0.000 A 
ATOM     21  C   UNL     1       4.536   5.513  17.404  0.00  0.00    +0.000 A 
ATOM     22  C   UNL     1       4.206   4.257  17.891  0.00  0.00    +0.000 A 
ATOM     23  C   UNL     1       3.178   4.102  18.828  0.00  0.00    +0.000 A 
ATOM     24  C   UNL     1       2.837   2.812  19.260  0.00  0.00    +0.000 A 
ATOM     25  C   UNL     1       1.840   2.609  20.205  0.00  0.00    +0.000 A 
ATOM     26  C   UNL     1       1.172   3.700  20.737  0.00  0.00    +0.000 A 
ATOM     27  C   UNL     1       1.489   4.994  20.311  0.00  0.00    +0.000 A 
ATOM     28  C   UNL     1       2.477   5.237  19.322  0.00  0.00    +0.000 A 
ENDBRANCH  17  19
ENDBRANCH   2  15
TORSDOF 5
ENDMDL
