MODEL 1
REMARK VINA RESULT:      -7.1      0.000      0.000
REMARK  Name = 
REMARK  8 active torsions:
REMARK  status: ('A' for Active; 'I' for Inactive)
REMARK    1  A    between atoms: C_1  and  C_2
REMARK    2  A    between atoms: C_2  and  O_3
REMARK    3  A    between atoms: O_3  and  C_4
REMARK    4  A    between atoms: C_4  and  C_5
REMARK    5  A    between atoms: C_5  and  S_6
REMARK    6  A    between atoms: S_6  and  C_9
REMARK    7  A    between atoms: C_9  and  C_10
REMARK    8  A    between atoms: N_13  and  C_14
REMARK                            x       y       z     vdW  Elec       q    Type
REMARK                         _______ _______ _______ _____ _____    ______ ____
ROOT
ATOM      1  C   UNL     1       6.369   4.549  17.505  0.00  0.00    +0.000 A 
ATOM      2  C   UNL     1       6.649   5.369  18.619  0.00  0.00    +0.000 A 
ATOM      3  C   UNL     1       5.537   5.298  19.412  0.00  0.00    +0.000 A 
ATOM      4  N   UNL     1       4.631   4.486  18.774  0.00  0.00    +0.000 N 
ATOM      5  N   UNL     1       5.145   4.001  17.605  0.00  0.00    +0.000 NA
ENDROOT
BRANCH   4   6
ATOM      6  C   UNL     1       3.310   4.178  19.205  0.00  0.00    +0.000 A 
ATOM      7  C   UNL     1       2.723   4.900  20.254  0.00  0.00    +0.000 A 
ATOM      8  C   UNL     1       1.426   4.589  20.683  0.00  0.00    +0.000 A 
ATOM      9  C   UNL     1       0.718   3.554  20.077  0.00  0.00    +0.000 A 
ATOM     10  C   UNL     1       1.306   2.838  19.043  0.00  0.00    +0.000 A 
ATOM     11  F   UNL     1       0.633   1.835  18.465  0.00  0.00    +0.000 F 
ATOM     12  C   UNL     1       2.589   3.140  18.598  0.00  0.00    +0.000 A 
ENDBRANCH   4   6
BRANCH   1  13
ATOM     13  C   UNL     1       7.221   4.301  16.297  0.00  0.00    +0.000 C 
BRANCH  13  14
ATOM     14  S   UNL     1       6.607   5.154  14.845  0.00  0.00    +0.000 S 
ATOM     15  O   UNL     1       7.737   5.474  13.989  0.00  0.00    +0.000 OA
ATOM     16  O   UNL     1       5.685   6.195  15.266  0.00  0.00    +0.000 OA
BRANCH  14  17
ATOM     17  C   UNL     1       5.621   3.950  13.979  0.00  0.00    +0.000 C 
BRANCH  17  18
ATOM     18  C   UNL     1       6.477   3.346  12.881  0.00  0.00    +0.000 C 
BRANCH  18  19
ATOM     19  O   UNL     1       5.751   3.299  11.653  0.00  0.00    +0.000 OA
BRANCH  19  21
ATOM     20  C   UNL     1       3.540   3.120  10.733  0.00  0.00    +0.000 C 
ATOM     21  C   UNL     1       4.379   3.643  11.878  0.00  0.00    +0.000 C 
ENDBRANCH  19  21
ENDBRANCH  18  19
ENDBRANCH  17  18
ENDBRANCH  14  17
ENDBRANCH  13  14
ENDBRANCH   1  13
TORSDOF 7
ENDMDL
MODEL 2
REMARK VINA RESULT:      -6.9      1.640      1.958
REMARK  Name = 
REMARK  8 active torsions:
REMARK  status: ('A' for Active; 'I' for Inactive)
REMARK    1  A    between atoms: C_1  and  C_2
REMARK    2  A    between atoms: C_2  and  O_3
REMARK    3  A    between atoms: O_3  and  C_4
REMARK    4  A    between atoms: C_4  and  C_5
REMARK    5  A    between atoms: C_5  and  S_6
REMARK    6  A    between atoms: S_6  and  C_9
REMARK    7  A    between atoms: C_9  and  C_10
REMARK    8  A    between atoms: N_13  and  C_14
REMARK                            x       y       z     vdW  Elec       q    Type
REMARK                         _______ _______ _______ _____ _____    ______ ____
ROOT
ATOM      1  C   UNL     1       5.295   6.247  17.859  0.00  0.00    +0.000 A 
ATOM      2  C   UNL     1       4.246   7.024  17.320  0.00  0.00    +0.000 A 
ATOM      3  C   UNL     1       3.099   6.506  17.855  0.00  0.00    +0.000 A 
ATOM      4  N   UNL     1       3.462   5.452  18.659  0.00  0.00    +0.000 N 
ATOM      5  N   UNL     1       4.818   5.299  18.685  0.00  0.00    +0.000 NA
ENDROOT
BRANCH   4   6
ATOM      6  C   UNL     1       2.588   4.582  19.370  0.00  0.00    +0.000 A 
ATOM      7  C   UNL     1       2.567   4.591  20.772  0.00  0.00    +0.000 A 
ATOM      8  C   UNL     1       1.714   3.726  21.469  0.00  0.00    +0.000 A 
ATOM      9  C   UNL     1       0.889   2.845  20.772  0.00  0.00    +0.000 A 
ATOM     10  C   UNL     1       0.918   2.836  19.384  0.00  0.00    +0.000 A 
ATOM     11  F   UNL     1       0.136   1.982  18.711  0.00  0.00    +0.000 F 
ATOM     12  C   UNL     1       1.753   3.694  18.676  0.00  0.00    +0.000 A 
ENDBRANCH   4   6
BRANCH   1  13
ATOM     13  C   UNL     1       6.763   6.345  17.574  0.00  0.00    +0.000 C 
BRANCH  13  14
ATOM     14  S   UNL     1       7.308   5.117  16.387  0.00  0.00    +0.000 S 
ATOM     15  O   UNL     1       8.193   4.185  17.065  0.00  0.00    +0.000 OA
ATOM     16  O   UNL     1       7.738   5.792  15.176  0.00  0.00    +0.000 OA
BRANCH  14  17
ATOM     17  C   UNL     1       5.838   4.213  15.945  0.00  0.00    +0.000 C 
BRANCH  17  18
ATOM     18  C   UNL     1       5.513   4.527  14.496  0.00  0.00    +0.000 C 
BRANCH  18  19
ATOM     19  O   UNL     1       6.097   3.551  13.632  0.00  0.00    +0.000 OA
BRANCH  19  21
ATOM     20  C   UNL     1       5.945   2.373  11.546  0.00  0.00    +0.000 C 
ATOM     21  C   UNL     1       5.282   3.371  12.470  0.00  0.00    +0.000 C 
ENDBRANCH  19  21
ENDBRANCH  18  19
ENDBRANCH  17  18
ENDBRANCH  14  17
ENDBRANCH  13  14
ENDBRANCH   1  13
TORSDOF 7
ENDMDL
MODEL 3
REMARK VINA RESULT:      -6.9      0.785      1.037
REMARK  Name = 
REMARK  8 active torsions:
REMARK  status: ('A' for Active; 'I' for Inactive)
REMARK    1  A    between atoms: C_1  and  C_2
REMARK    2  A    between atoms: C_2  and  O_3
REMARK    3  A    between atoms: O_3  and  C_4
REMARK    4  A    between atoms: C_4  and  C_5
REMARK    5  A    between atoms: C_5  and  S_6
REMARK    6  A    between atoms: S_6  and  C_9
REMARK    7  A    between atoms: C_9  and  C_10
REMARK    8  A    between atoms: N_13  and  C_14
REMARK                            x       y       z     vdW  Elec       q    Type
REMARK                         _______ _______ _______ _____ _____    ______ ____
ROOT
ATOM      1  C   UNL     1       6.215   4.649  17.581  0.00  0.00    +0.000 A 
ATOM      2  C   UNL     1       6.289   5.723  18.495  0.00  0.00    +0.000 A 
ATOM      3  C   UNL     1       5.187   5.596  19.295  0.00  0.00    +0.000 A 
ATOM      4  N   UNL     1       4.483   4.502  18.851  0.00  0.00    +0.000 N 
ATOM      5  N   UNL     1       5.122   3.898  17.806  0.00  0.00    +0.000 NA
ENDROOT
BRANCH   4   6
ATOM      6  C   UNL     1       3.236   4.031  19.350  0.00  0.00    +0.000 A 
ATOM      7  C   UNL     1       2.790   4.423  20.621  0.00  0.00    +0.000 A 
ATOM      8  C   UNL     1       1.566   3.950  21.114  0.00  0.00    +0.000 A 
ATOM      9  C   UNL     1       0.793   3.080  20.348  0.00  0.00    +0.000 A 
ATOM     10  C   UNL     1       1.242   2.691  19.093  0.00  0.00    +0.000 A 
ATOM     11  F   UNL     1       0.507   1.845  18.360  0.00  0.00    +0.000 F 
ATOM     12  C   UNL     1       2.450   3.158  18.585  0.00  0.00    +0.000 A 
ENDBRANCH   4   6
BRANCH   1  13
ATOM     13  C   UNL     1       7.139   4.331  16.445  0.00  0.00    +0.000 C 
BRANCH  13  14
ATOM     14  S   UNL     1       6.631   5.115  14.916  0.00  0.00    +0.000 S 
ATOM     15  O   UNL     1       7.809   5.314  14.088  0.00  0.00    +0.000 OA
ATOM     16  O   UNL     1       5.755   6.231  15.228  0.00  0.00    +0.000 OA
BRANCH  14  17
ATOM     17  C   UNL     1       5.611   3.910  14.091  0.00  0.00    +0.000 C 
BRANCH  17  18
ATOM     18  C   UNL     1       6.178   3.690  12.700  0.00  0.00    +0.000 C 
BRANCH  18  19
ATOM     19  O   UNL     1       5.184   3.135  11.840  0.00  0.00    +0.000 OA
BRANCH  19  21
ATOM     20  C   UNL     1       7.154   1.892  11.258  0.00  0.00    +0.000 C 
ATOM     21  C   UNL     1       5.641   1.892  11.295  0.00  0.00    +0.000 C 
ENDBRANCH  19  21
ENDBRANCH  18  19
ENDBRANCH  17  18
ENDBRANCH  14  17
ENDBRANCH  13  14
ENDBRANCH   1  13
TORSDOF 7
ENDMDL
MODEL 4
REMARK VINA RESULT:      -6.8      2.140      3.771
REMARK  Name = 
REMARK  8 active torsions:
REMARK  status: ('A' for Active; 'I' for Inactive)
REMARK    1  A    between atoms: C_1  and  C_2
REMARK    2  A    between atoms: C_2  and  O_3
REMARK    3  A    between atoms: O_3  and  C_4
REMARK    4  A    between atoms: C_4  and  C_5
REMARK    5  A    between atoms: C_5  and  S_6
REMARK    6  A    between atoms: S_6  and  C_9
REMARK    7  A    between atoms: C_9  and  C_10
REMARK    8  A    between atoms: N_13  and  C_14
REMARK                            x       y       z     vdW  Elec       q    Type
REMARK                         _______ _______ _______ _____ _____    ______ ____
ROOT
ATOM      1  C   UNL     1       4.588   6.011  16.469  0.00  0.00    +0.000 A 
ATOM      2  C   UNL     1       4.570   7.092  17.378  0.00  0.00    +0.000 A 
ATOM      3  C   UNL     1       3.850   6.651  18.454  0.00  0.00    +0.000 A 
ATOM      4  N   UNL     1       3.442   5.369  18.175  0.00  0.00    +0.000 N 
ATOM      5  N   UNL     1       3.912   4.957  16.960  0.00  0.00    +0.000 NA
ENDROOT
BRANCH   4   6
ATOM      6  C   UNL     1       2.616   4.541  18.986  0.00  0.00    +0.000 A 
ATOM      7  C   UNL     1       2.661   4.650  20.384  0.00  0.00    +0.000 A 
ATOM      8  C   UNL     1       1.854   3.828  21.180  0.00  0.00    +0.000 A 
ATOM      9  C   UNL     1       1.010   2.891  20.588  0.00  0.00    +0.000 A 
ATOM     10  C   UNL     1       0.973   2.783  19.204  0.00  0.00    +0.000 A 
ATOM     11  F   UNL     1       0.172   1.876  18.632  0.00  0.00    +0.000 F 
ATOM     12  C   UNL     1       1.761   3.598  18.399  0.00  0.00    +0.000 A 
ENDBRANCH   4   6
BRANCH   1  13
ATOM     13  C   UNL     1       5.195   5.959  15.101  0.00  0.00    +0.000 C 
BRANCH  13  14
ATOM     14  S   UNL     1       6.554   4.794  15.003  0.00  0.00    +0.000 S 
ATOM     15  O   UNL     1       7.797   5.543  14.927  0.00  0.00    +0.000 OA
ATOM     16  O   UNL     1       6.239   3.787  14.005  0.00  0.00    +0.000 OA
BRANCH  14  17
ATOM     17  C   UNL     1       6.552   3.945  16.570  0.00  0.00    +0.000 C 
BRANCH  17  18
ATOM     18  C   UNL     1       7.640   4.556  17.434  0.00  0.00    +0.000 C 
BRANCH  18  19
ATOM     19  O   UNL     1       7.167   4.744  18.769  0.00  0.00    +0.000 OA
BRANCH  19  21
ATOM     20  C   UNL     1       7.963   6.973  18.364  0.00  0.00    +0.000 C 
ATOM     21  C   UNL     1       7.835   5.855  19.376  0.00  0.00    +0.000 C 
ENDBRANCH  19  21
ENDBRANCH  18  19
ENDBRANCH  17  18
ENDBRANCH  14  17
ENDBRANCH  13  14
ENDBRANCH   1  13
TORSDOF 7
ENDMDL
MODEL 5
REMARK VINA RESULT:      -6.7      1.272      1.716
REMARK  Name = 
REMARK  8 active torsions:
REMARK  status: ('A' for Active; 'I' for Inactive)
REMARK    1  A    between atoms: C_1  and  C_2
REMARK    2  A    between atoms: C_2  and  O_3
REMARK    3  A    between atoms: O_3  and  C_4
REMARK    4  A    between atoms: C_4  and  C_5
REMARK    5  A    between atoms: C_5  and  S_6
REMARK    6  A    between atoms: S_6  and  C_9
REMARK    7  A    between atoms: C_9  and  C_10
REMARK    8  A    between atoms: N_13  and  C_14
REMARK                            x       y       z     vdW  Elec       q    Type
REMARK                         _______ _______ _______ _____ _____    ______ ____
ROOT
ATOM      1  C   UNL     1       6.243   4.647  17.452  0.00  0.00    +0.000 A 
ATOM      2  C   UNL     1       6.261   5.611  18.485  0.00  0.00    +0.000 A 
ATOM      3  C   UNL     1       5.146   5.359  19.235  0.00  0.00    +0.000 A 
ATOM      4  N   UNL     1       4.489   4.303  18.651  0.00  0.00    +0.000 N 
ATOM      5  N   UNL     1       5.171   3.843  17.561  0.00  0.00    +0.000 NA
ENDROOT
BRANCH   4   6
ATOM      6  C   UNL     1       3.247   3.740  19.060  0.00  0.00    +0.000 A 
ATOM      7  C   UNL     1       2.302   3.343  18.103  0.00  0.00    +0.000 A 
ATOM      8  C   UNL     1       1.076   2.799  18.508  0.00  0.00    +0.000 A 
ATOM      9  C   UNL     1       0.787   2.659  19.864  0.00  0.00    +0.000 A 
ATOM     10  C   UNL     1       1.723   3.060  20.807  0.00  0.00    +0.000 A 
ATOM     11  F   UNL     1       1.443   2.939  22.111  0.00  0.00    +0.000 F 
ATOM     12  C   UNL     1       2.948   3.594  20.422  0.00  0.00    +0.000 A 
ENDBRANCH   4   6
BRANCH   1  13
ATOM     13  C   UNL     1       7.203   4.491  16.312  0.00  0.00    +0.000 C 
BRANCH  13  14
ATOM     14  S   UNL     1       6.606   5.266  14.810  0.00  0.00    +0.000 S 
ATOM     15  O   UNL     1       7.720   5.396  13.886  0.00  0.00    +0.000 OA
ATOM     16  O   UNL     1       5.806   6.425  15.165  0.00  0.00    +0.000 OA
BRANCH  14  17
ATOM     17  C   UNL     1       5.472   4.090  14.098  0.00  0.00    +0.000 C 
BRANCH  17  18
ATOM     18  C   UNL     1       6.116   3.518  12.848  0.00  0.00    +0.000 C 
BRANCH  18  19
ATOM     19  O   UNL     1       5.178   2.716  12.129  0.00  0.00    +0.000 OA
BRANCH  19  21
ATOM     20  C   UNL     1       7.351   2.130  11.292  0.00  0.00    +0.000 C 
ATOM     21  C   UNL     1       5.860   1.903  11.169  0.00  0.00    +0.000 C 
ENDBRANCH  19  21
ENDBRANCH  18  19
ENDBRANCH  17  18
ENDBRANCH  14  17
ENDBRANCH  13  14
ENDBRANCH   1  13
TORSDOF 7
ENDMDL
MODEL 6
REMARK VINA RESULT:      -6.6      3.628      7.166
REMARK  Name = 
REMARK  8 active torsions:
REMARK  status: ('A' for Active; 'I' for Inactive)
REMARK    1  A    between atoms: C_1  and  C_2
REMARK    2  A    between atoms: C_2  and  O_3
REMARK    3  A    between atoms: O_3  and  C_4
REMARK    4  A    between atoms: C_4  and  C_5
REMARK    5  A    between atoms: C_5  and  S_6
REMARK    6  A    between atoms: S_6  and  C_9
REMARK    7  A    between atoms: C_9  and  C_10
REMARK    8  A    between atoms: N_13  and  C_14
REMARK                            x       y       z     vdW  Elec       q    Type
REMARK                         _______ _______ _______ _____ _____    ______ ____
ROOT
ATOM      1  C   UNL     1       5.081   4.304  17.671  0.00  0.00    +0.000 A 
ATOM      2  C   UNL     1       6.411   4.585  18.053  0.00  0.00    +0.000 A 
ATOM      3  C   UNL     1       7.115   4.671  16.884  0.00  0.00    +0.000 A 
ATOM      4  N   UNL     1       6.234   4.426  15.858  0.00  0.00    +0.000 N 
ATOM      5  N   UNL     1       4.971   4.220  16.333  0.00  0.00    +0.000 NA
ENDROOT
BRANCH   4   6
ATOM      6  C   UNL     1       6.542   4.353  14.470  0.00  0.00    +0.000 A 
ATOM      7  C   UNL     1       7.484   5.227  13.907  0.00  0.00    +0.000 A 
ATOM      8  C   UNL     1       7.777   5.159  12.539  0.00  0.00    +0.000 A 
ATOM      9  C   UNL     1       7.127   4.229  11.729  0.00  0.00    +0.000 A 
ATOM     10  C   UNL     1       6.191   3.371  12.290  0.00  0.00    +0.000 A 
ATOM     11  F   UNL     1       5.556   2.485  11.513  0.00  0.00    +0.000 F 
ATOM     12  C   UNL     1       5.895   3.419  13.648  0.00  0.00    +0.000 A 
ENDBRANCH   4   6
BRANCH   1  13
ATOM     13  C   UNL     1       3.895   4.059  18.552  0.00  0.00    +0.000 C 
BRANCH  13  14
ATOM     14  S   UNL     1       3.886   2.401  19.234  0.00  0.00    +0.000 S 
ATOM     15  O   UNL     1       5.035   2.260  20.114  0.00  0.00    +0.000 OA
ATOM     16  O   UNL     1       3.663   1.451  18.159  0.00  0.00    +0.000 OA
BRANCH  14  17
ATOM     17  C   UNL     1       2.432   2.327  20.261  0.00  0.00    +0.000 C 
BRANCH  17  18
ATOM     18  C   UNL     1       1.242   2.745  19.416  0.00  0.00    +0.000 C 
BRANCH  18  19
ATOM     19  O   UNL     1       0.602   3.886  19.989  0.00  0.00    +0.000 OA
BRANCH  19  21
ATOM     20  C   UNL     1       1.667   5.940  20.630  0.00  0.00    +0.000 C 
ATOM     21  C   UNL     1       1.451   4.483  20.975  0.00  0.00    +0.000 C 
ENDBRANCH  19  21
ENDBRANCH  18  19
ENDBRANCH  17  18
ENDBRANCH  14  17
ENDBRANCH  13  14
ENDBRANCH   1  13
TORSDOF 7
ENDMDL
MODEL 7
REMARK VINA RESULT:      -6.6      3.525      4.564
REMARK  Name = 
REMARK  8 active torsions:
REMARK  status: ('A' for Active; 'I' for Inactive)
REMARK    1  A    between atoms: C_1  and  C_2
REMARK    2  A    between atoms: C_2  and  O_3
REMARK    3  A    between atoms: O_3  and  C_4
REMARK    4  A    between atoms: C_4  and  C_5
REMARK    5  A    between atoms: C_5  and  S_6
REMARK    6  A    between atoms: S_6  and  C_9
REMARK    7  A    between atoms: C_9  and  C_10
REMARK    8  A    between atoms: N_13  and  C_14
REMARK                            x       y       z     vdW  Elec       q    Type
REMARK                         _______ _______ _______ _____ _____    ______ ____
ROOT
ATOM      1  C   UNL     1       4.326   4.760  18.788  0.00  0.00    +0.000 A 
ATOM      2  C   UNL     1       3.580   4.188  19.842  0.00  0.00    +0.000 A 
ATOM      3  C   UNL     1       2.655   5.133  20.188  0.00  0.00    +0.000 A 
ATOM      4  N   UNL     1       2.865   6.226  19.382  0.00  0.00    +0.000 N 
ATOM      5  N   UNL     1       3.882   5.997  18.500  0.00  0.00    +0.000 NA
ENDROOT
BRANCH   4   6
ATOM      6  C   UNL     1       2.173   7.468  19.433  0.00  0.00    +0.000 A 
ATOM      7  C   UNL     1       2.052   8.258  18.280  0.00  0.00    +0.000 A 
ATOM      8  C   UNL     1       1.379   9.485  18.335  0.00  0.00    +0.000 A 
ATOM      9  C   UNL     1       0.836   9.932  19.539  0.00  0.00    +0.000 A 
ATOM     10  C   UNL     1       0.964   9.150  20.678  0.00  0.00    +0.000 A 
ATOM     11  F   UNL     1       0.455   9.582  21.839  0.00  0.00    +0.000 F 
ATOM     12  C   UNL     1       1.622   7.925  20.639  0.00  0.00    +0.000 A 
ENDBRANCH   4   6
BRANCH   1  13
ATOM     13  C   UNL     1       5.502   4.182  18.063  0.00  0.00    +0.000 C 
BRANCH  13  14
ATOM     14  S   UNL     1       7.037   5.000  18.495  0.00  0.00    +0.000 S 
ATOM     15  O   UNL     1       8.143   4.164  18.058  0.00  0.00    +0.000 OA
ATOM     16  O   UNL     1       6.957   5.452  19.873  0.00  0.00    +0.000 OA
BRANCH  14  17
ATOM     17  C   UNL     1       7.074   6.477  17.500  0.00  0.00    +0.000 C 
BRANCH  17  18
ATOM     18  C   UNL     1       6.406   6.164  16.173  0.00  0.00    +0.000 C 
BRANCH  18  19
ATOM     19  O   UNL     1       7.380   5.760  15.210  0.00  0.00    +0.000 OA
BRANCH  19  21
ATOM     20  C   UNL     1       5.628   4.402  14.286  0.00  0.00    +0.000 C 
ATOM     21  C   UNL     1       7.076   4.449  14.722  0.00  0.00    +0.000 C 
ENDBRANCH  19  21
ENDBRANCH  18  19
ENDBRANCH  17  18
ENDBRANCH  14  17
ENDBRANCH  13  14
ENDBRANCH   1  13
TORSDOF 7
ENDMDL
MODEL 8
REMARK VINA RESULT:      -6.6      1.029      1.178
REMARK  Name = 
REMARK  8 active torsions:
REMARK  status: ('A' for Active; 'I' for Inactive)
REMARK    1  A    between atoms: C_1  and  C_2
REMARK    2  A    between atoms: C_2  and  O_3
REMARK    3  A    between atoms: O_3  and  C_4
REMARK    4  A    between atoms: C_4  and  C_5
REMARK    5  A    between atoms: C_5  and  S_6
REMARK    6  A    between atoms: S_6  and  C_9
REMARK    7  A    between atoms: C_9  and  C_10
REMARK    8  A    between atoms: N_13  and  C_14
REMARK                            x       y       z     vdW  Elec       q    Type
REMARK                         _______ _______ _______ _____ _____    ______ ____
ROOT
ATOM      1  C   UNL     1       5.631   5.703  17.329  0.00  0.00    +0.000 A 
ATOM      2  C   UNL     1       6.252   5.752  18.597  0.00  0.00    +0.000 A 
ATOM      3  C   UNL     1       5.344   5.216  19.467  0.00  0.00    +0.000 A 
ATOM      4  N   UNL     1       4.226   4.886  18.741  0.00  0.00    +0.000 N 
ATOM      5  N   UNL     1       4.402   5.164  17.415  0.00  0.00    +0.000 NA
ENDROOT
BRANCH   4   6
ATOM      6  C   UNL     1       3.007   4.354  19.247  0.00  0.00    +0.000 A 
ATOM      7  C   UNL     1       2.435   4.884  20.413  0.00  0.00    +0.000 A 
ATOM      8  C   UNL     1       1.240   4.353  20.915  0.00  0.00    +0.000 A 
ATOM      9  C   UNL     1       0.620   3.288  20.264  0.00  0.00    +0.000 A 
ATOM     10  C   UNL     1       1.193   2.763  19.114  0.00  0.00    +0.000 A 
ATOM     11  F   UNL     1       0.606   1.732  18.492  0.00  0.00    +0.000 F 
ATOM     12  C   UNL     1       2.374   3.285  18.597  0.00  0.00    +0.000 A 
ENDBRANCH   4   6
BRANCH   1  13
ATOM     13  C   UNL     1       6.155   6.206  16.019  0.00  0.00    +0.000 C 
BRANCH  13  14
ATOM     14  S   UNL     1       7.147   4.979  15.168  0.00  0.00    +0.000 S 
ATOM     15  O   UNL     1       7.954   4.278  16.153  0.00  0.00    +0.000 OA
ATOM     16  O   UNL     1       7.772   5.598  14.012  0.00  0.00    +0.000 OA
BRANCH  14  17
ATOM     17  C   UNL     1       5.978   3.803  14.518  0.00  0.00    +0.000 C 
BRANCH  17  18
ATOM     18  C   UNL     1       6.066   3.843  13.003  0.00  0.00    +0.000 C 
BRANCH  18  19
ATOM     19  O   UNL     1       6.222   2.525  12.479  0.00  0.00    +0.000 OA
BRANCH  19  21
ATOM     20  C   UNL     1       4.204   3.300  11.435  0.00  0.00    +0.000 C 
ATOM     21  C   UNL     1       5.372   2.343  11.342  0.00  0.00    +0.000 C 
ENDBRANCH  19  21
ENDBRANCH  18  19
ENDBRANCH  17  18
ENDBRANCH  14  17
ENDBRANCH  13  14
ENDBRANCH   1  13
TORSDOF 7
ENDMDL
MODEL 9
REMARK VINA RESULT:      -6.6      3.406      6.801
REMARK  Name = 
REMARK  8 active torsions:
REMARK  status: ('A' for Active; 'I' for Inactive)
REMARK    1  A    between atoms: C_1  and  C_2
REMARK    2  A    between atoms: C_2  and  O_3
REMARK    3  A    between atoms: O_3  and  C_4
REMARK    4  A    between atoms: C_4  and  C_5
REMARK    5  A    between atoms: C_5  and  S_6
REMARK    6  A    between atoms: S_6  and  C_9
REMARK    7  A    between atoms: C_9  and  C_10
REMARK    8  A    between atoms: N_13  and  C_14
REMARK                            x       y       z     vdW  Elec       q    Type
REMARK                         _______ _______ _______ _____ _____    ______ ____
ROOT
ATOM      1  C   UNL     1       5.303   4.806  17.879  0.00  0.00    +0.000 A 
ATOM      2  C   UNL     1       6.574   5.371  18.118  0.00  0.00    +0.000 A 
ATOM      3  C   UNL     1       7.196   5.396  16.900  0.00  0.00    +0.000 A 
ATOM      4  N   UNL     1       6.329   4.844  15.987  0.00  0.00    +0.000 N 
ATOM      5  N   UNL     1       5.148   4.497  16.579  0.00  0.00    +0.000 NA
ENDROOT
BRANCH   4   6
ATOM      6  C   UNL     1       6.581   4.611  14.606  0.00  0.00    +0.000 A 
ATOM      7  C   UNL     1       7.582   5.331  13.938  0.00  0.00    +0.000 A 
ATOM      8  C   UNL     1       7.821   5.106  12.576  0.00  0.00    +0.000 A 
ATOM      9  C   UNL     1       7.058   4.173  11.877  0.00  0.00    +0.000 A 
ATOM     10  C   UNL     1       6.064   3.468  12.541  0.00  0.00    +0.000 A 
ATOM     11  F   UNL     1       5.320   2.580  11.869  0.00  0.00    +0.000 F 
ATOM     12  C   UNL     1       5.819   3.672  13.895  0.00  0.00    +0.000 A 
ENDBRANCH   4   6
BRANCH   1  13
ATOM     13  C   UNL     1       4.223   4.497  18.871  0.00  0.00    +0.000 C 
BRANCH  13  14
ATOM     14  S   UNL     1       2.821   5.603  18.717  0.00  0.00    +0.000 S 
ATOM     15  O   UNL     1       3.220   6.739  17.903  0.00  0.00    +0.000 OA
ATOM     16  O   UNL     1       2.237   5.808  20.030  0.00  0.00    +0.000 OA
BRANCH  14  17
ATOM     17  C   UNL     1       1.610   4.691  17.781  0.00  0.00    +0.000 C 
BRANCH  17  18
ATOM     18  C   UNL     1       1.824   3.213  18.053  0.00  0.00    +0.000 C 
BRANCH  18  19
ATOM     19  O   UNL     1       0.989   2.779  19.128  0.00  0.00    +0.000 OA
BRANCH  19  21
ATOM     20  C   UNL     1       1.346   2.768  21.502  0.00  0.00    +0.000 C 
ATOM     21  C   UNL     1       1.786   2.204  20.169  0.00  0.00    +0.000 C 
ENDBRANCH  19  21
ENDBRANCH  18  19
ENDBRANCH  17  18
ENDBRANCH  14  17
ENDBRANCH  13  14
ENDBRANCH   1  13
TORSDOF 7
ENDMDL
