MODEL 1
REMARK VINA RESULT:      -9.1      0.000      0.000
REMARK  Name = 
REMARK  5 active torsions:
REMARK  status: ('A' for Active; 'I' for Inactive)
REMARK    1  A    between atoms: C_1  and  C_2
REMARK    2  A    between atoms: C_18  and  C_19
REMARK    3  A    between atoms: C_19  and  C_20
REMARK    4  A    between atoms: C_24  and  C_25
REMARK    5  A    between atoms: C_29  and  O_30
REMARK                            x       y       z     vdW  Elec       q    Type
REMARK                         _______ _______ _______ _____ _____    ______ ____
ROOT
ATOM      1  C   UNL     1       1.494   4.388  18.094  0.00  0.00    +0.000 C 
ATOM      2  C   UNL     1       2.843   4.618  18.793  0.00  0.00    +0.000 C 
ATOM      3  C   UNL     1       2.656   4.833  20.311  0.00  0.00    +0.000 C 
ATOM      4  C   UNL     1       1.818   6.077  20.634  0.00  0.00    +0.000 C 
ATOM      5  C   UNL     1       2.351   7.396  20.020  0.00  0.00    +0.000 C 
ATOM      6  C   UNL     1       1.263   8.494  19.970  0.00  0.00    +0.000 A 
ATOM      7  C   UNL     1       0.308   8.597  21.000  0.00  0.00    +0.000 A 
ATOM      8  C   UNL     1      -0.736   9.522  20.928  0.00  0.00    +0.000 A 
ATOM      9  C   UNL     1      -0.832  10.364  19.832  0.00  0.00    +0.000 A 
ATOM     10  F   UNL     1      -1.842  11.240  19.758  0.00  0.00    +0.000 F 
ATOM     11  C   UNL     1       0.106  10.310  18.809  0.00  0.00    +0.000 A 
ATOM     12  C   UNL     1       1.174   9.396  18.874  0.00  0.00    +0.000 A 
ATOM     13  C   UNL     1       2.137   9.353  17.702  0.00  0.00    +0.000 C 
ATOM     14  C   UNL     1       3.367   8.465  17.952  0.00  0.00    +0.000 C 
ATOM     15  C   UNL     1       2.854   7.174  18.589  0.00  0.00    +0.000 C 
ATOM     16  C   UNL     1       3.545   5.869  18.217  0.00  0.00    +0.000 C 
ATOM     17  C   UNL     1       5.027   5.451  18.082  0.00  0.00    +0.000 C 
ATOM     18  C   UNL     1       4.815   4.031  17.413  0.00  0.00    +0.000 C 
ATOM     19  C   UNL     1       3.841   3.467  18.477  0.00  0.00    +0.000 C 
ENDROOT
BRANCH  19  20
ATOM     20  O   UNL     1       3.277   2.208  18.197  0.00  0.00    +0.000 OA
ATOM     21  H   UNL     1       2.373   2.166  18.545  0.00  0.00    +0.000 HD
ENDBRANCH  19  20
BRANCH  18  22
ATOM     22  C   UNL     1       4.419   4.273  15.903  0.00  0.00    +0.000 C 
BRANCH  22  23
ATOM     23  C   UNL     1       5.317   4.315  14.690  0.00  0.00    +0.000 A 
ATOM     24  C   UNL     1       6.428   5.191  14.717  0.00  0.00    +0.000 A 
ATOM     25  C   UNL     1       7.443   5.142  13.743  0.00  0.00    +0.000 A 
ATOM     26  C   UNL     1       7.326   4.198  12.717  0.00  0.00    +0.000 A 
ATOM     27  C   UNL     1       6.218   3.352  12.668  0.00  0.00    +0.000 A 
ATOM     28  C   UNL     1       5.215   3.398  13.654  0.00  0.00    +0.000 A 
BRANCH  27  29
ATOM     29  C   UNL     1       6.091   2.344  11.599  0.00  0.00    +0.000 C 
ATOM     30  N   UNL     1       7.223   1.721  11.184  0.00  0.00    +0.000 N 
ATOM     31  O   UNL     1       4.997   2.100  11.079  0.00  0.00    +0.000 OA
ATOM     32  H   UNL     1       8.146   2.087  11.394  0.00  0.00    +0.000 HD
ATOM     33  H   UNL     1       7.135   1.137  10.363  0.00  0.00    +0.000 HD
ENDBRANCH  27  29
ENDBRANCH  22  23
ENDBRANCH  18  22
TORSDOF 4
ENDMDL
MODEL 2
REMARK VINA RESULT:      -9.1      1.046      1.186
REMARK  Name = 
REMARK  5 active torsions:
REMARK  status: ('A' for Active; 'I' for Inactive)
REMARK    1  A    between atoms: C_1  and  C_2
REMARK    2  A    between atoms: C_18  and  C_19
REMARK    3  A    between atoms: C_19  and  C_20
REMARK    4  A    between atoms: C_24  and  C_25
REMARK    5  A    between atoms: C_29  and  O_30
REMARK                            x       y       z     vdW  Elec       q    Type
REMARK                         _______ _______ _______ _____ _____    ______ ____
ROOT
ATOM      1  C   UNL     1       1.115   4.017  18.479  0.00  0.00    +0.000 C 
ATOM      2  C   UNL     1       2.383   4.119  19.343  0.00  0.00    +0.000 C 
ATOM      3  C   UNL     1       2.038   4.522  20.794  0.00  0.00    +0.000 C 
ATOM      4  C   UNL     1       1.379   5.905  20.883  0.00  0.00    +0.000 C 
ATOM      5  C   UNL     1       2.193   7.056  20.240  0.00  0.00    +0.000 C 
ATOM      6  C   UNL     1       1.312   8.291  19.939  0.00  0.00    +0.000 A 
ATOM      7  C   UNL     1       0.262   8.645  20.808  0.00  0.00    +0.000 A 
ATOM      8  C   UNL     1      -0.600   9.702  20.506  0.00  0.00    +0.000 A 
ATOM      9  C   UNL     1      -0.417  10.425  19.339  0.00  0.00    +0.000 A 
ATOM     10  F   UNL     1      -1.254  11.428  19.045  0.00  0.00    +0.000 F 
ATOM     11  C   UNL     1       0.624  10.122  18.471  0.00  0.00    +0.000 A 
ATOM     12  C   UNL     1       1.513   9.072  18.768  0.00  0.00    +0.000 A 
ATOM     13  C   UNL     1       2.599   8.761  17.755  0.00  0.00    +0.000 C 
ATOM     14  C   UNL     1       3.626   7.732  18.256  0.00  0.00    +0.000 C 
ATOM     15  C   UNL     1       2.833   6.608  18.922  0.00  0.00    +0.000 C 
ATOM     16  C   UNL     1       3.346   5.182  18.768  0.00  0.00    +0.000 C 
ATOM     17  C   UNL     1       4.746   4.537  18.885  0.00  0.00    +0.000 C 
ATOM     18  C   UNL     1       4.395   3.100  18.318  0.00  0.00    +0.000 C 
ATOM     19  C   UNL     1       3.214   2.806  19.275  0.00  0.00    +0.000 C 
ENDROOT
BRANCH  19  20
ATOM     20  O   UNL     1       2.494   1.621  19.027  0.00  0.00    +0.000 OA
ATOM     21  H   UNL     1       2.344   1.146  19.858  0.00  0.00    +0.000 HD
ENDBRANCH  19  20
BRANCH  18  22
ATOM     22  C   UNL     1       4.241   3.234  16.752  0.00  0.00    +0.000 C 
BRANCH  22  23
ATOM     23  C   UNL     1       5.154   3.933  15.773  0.00  0.00    +0.000 A 
ATOM     24  C   UNL     1       6.017   4.938  16.271  0.00  0.00    +0.000 A 
ATOM     25  C   UNL     1       7.055   5.485  15.494  0.00  0.00    +0.000 A 
ATOM     26  C   UNL     1       7.215   5.016  14.185  0.00  0.00    +0.000 A 
ATOM     27  C   UNL     1       6.349   4.047  13.678  0.00  0.00    +0.000 A 
ATOM     28  C   UNL     1       5.322   3.495  14.467  0.00  0.00    +0.000 A 
BRANCH  27  29
ATOM     29  C   UNL     1       6.518   3.535  12.306  0.00  0.00    +0.000 C 
ATOM     30  N   UNL     1       5.867   2.390  11.976  0.00  0.00    +0.000 N 
ATOM     31  O   UNL     1       7.251   4.112  11.496  0.00  0.00    +0.000 OA
ATOM     32  H   UNL     1       5.490   1.765  12.680  0.00  0.00    +0.000 HD
ATOM     33  H   UNL     1       6.103   1.986  11.079  0.00  0.00    +0.000 HD
ENDBRANCH  27  29
ENDBRANCH  22  23
ENDBRANCH  18  22
TORSDOF 4
ENDMDL
MODEL 3
REMARK VINA RESULT:      -8.8      4.244      6.604
REMARK  Name = 
REMARK  5 active torsions:
REMARK  status: ('A' for Active; 'I' for Inactive)
REMARK    1  A    between atoms: C_1  and  C_2
REMARK    2  A    between atoms: C_18  and  C_19
REMARK    3  A    between atoms: C_19  and  C_20
REMARK    4  A    between atoms: C_24  and  C_25
REMARK    5  A    between atoms: C_29  and  O_30
REMARK                            x       y       z     vdW  Elec       q    Type
REMARK                         _______ _______ _______ _____ _____    ______ ____
ROOT
ATOM      1  C   UNL     1      -0.755   8.831  21.511  0.00  0.00    +0.000 C 
ATOM      2  C   UNL     1       0.249   9.722  20.762  0.00  0.00    +0.000 C 
ATOM      3  C   UNL     1       0.062  11.209  21.135  0.00  0.00    +0.000 C 
ATOM      4  C   UNL     1      -1.321  11.747  20.745  0.00  0.00    +0.000 C 
ATOM      5  C   UNL     1      -1.688  11.572  19.250  0.00  0.00    +0.000 C 
ATOM      6  C   UNL     1      -3.212  11.684  19.010  0.00  0.00    +0.000 A 
ATOM      7  C   UNL     1      -3.987  12.583  19.768  0.00  0.00    +0.000 A 
ATOM      8  C   UNL     1      -5.376  12.635  19.629  0.00  0.00    +0.000 A 
ATOM      9  C   UNL     1      -6.006  11.797  18.724  0.00  0.00    +0.000 A 
ATOM     10  F   UNL     1      -7.339  11.837  18.603  0.00  0.00    +0.000 F 
ATOM     11  C   UNL     1      -5.272  10.916  17.940  0.00  0.00    +0.000 A 
ATOM     12  C   UNL     1      -3.871  10.864  18.054  0.00  0.00    +0.000 A 
ATOM     13  C   UNL     1      -3.133   9.846  17.205  0.00  0.00    +0.000 C 
ATOM     14  C   UNL     1      -1.603   9.996  17.259  0.00  0.00    +0.000 C 
ATOM     15  C   UNL     1      -1.234  10.204  18.728  0.00  0.00    +0.000 C 
ATOM     16  C   UNL     1       0.061   9.585  19.234  0.00  0.00    +0.000 C 
ATOM     17  C   UNL     1       1.501   9.522  18.673  0.00  0.00    +0.000 C 
ATOM     18  C   UNL     1       2.111   8.481  19.699  0.00  0.00    +0.000 C 
ATOM     19  C   UNL     1       1.709   9.234  20.991  0.00  0.00    +0.000 C 
ENDROOT
BRANCH  19  20
ATOM     20  O   UNL     1       1.964   8.566  22.204  0.00  0.00    +0.000 OA
ATOM     21  H   UNL     1       2.819   8.846  22.563  0.00  0.00    +0.000 HD
ENDBRANCH  19  20
BRANCH  18  22
ATOM     22  C   UNL     1       1.561   7.053  19.309  0.00  0.00    +0.000 C 
BRANCH  22  23
ATOM     23  C   UNL     1       1.986   5.704  19.837  0.00  0.00    +0.000 A 
ATOM     24  C   UNL     1       1.009   4.903  20.476  0.00  0.00    +0.000 A 
ATOM     25  C   UNL     1       1.242   3.553  20.798  0.00  0.00    +0.000 A 
ATOM     26  C   UNL     1       2.489   3.006  20.478  0.00  0.00    +0.000 A 
ATOM     27  C   UNL     1       3.467   3.797  19.875  0.00  0.00    +0.000 A 
ATOM     28  C   UNL     1       3.221   5.143  19.544  0.00  0.00    +0.000 A 
BRANCH  27  29
ATOM     29  C   UNL     1       4.779   3.227  19.520  0.00  0.00    +0.000 C 
ATOM     30  N   UNL     1       4.990   1.914  19.792  0.00  0.00    +0.000 N 
ATOM     31  O   UNL     1       5.666   3.929  19.023  0.00  0.00    +0.000 OA
ATOM     32  H   UNL     1       4.396   1.396  20.432  0.00  0.00    +0.000 HD
ATOM     33  H   UNL     1       5.936   1.579  19.667  0.00  0.00    +0.000 HD
ENDBRANCH  27  29
ENDBRANCH  22  23
ENDBRANCH  18  22
TORSDOF 4
ENDMDL
MODEL 4
REMARK VINA RESULT:      -8.7      3.688      6.141
REMARK  Name = 
REMARK  5 active torsions:
REMARK  status: ('A' for Active; 'I' for Inactive)
REMARK    1  A    between atoms: C_1  and  C_2
REMARK    2  A    between atoms: C_18  and  C_19
REMARK    3  A    between atoms: C_19  and  C_20
REMARK    4  A    between atoms: C_24  and  C_25
REMARK    5  A    between atoms: C_29  and  O_30
REMARK                            x       y       z     vdW  Elec       q    Type
REMARK                         _______ _______ _______ _____ _____    ______ ____
ROOT
ATOM      1  C   UNL     1      -0.763   8.789  21.348  0.00  0.00    +0.000 C 
ATOM      2  C   UNL     1       0.211   9.738  20.633  0.00  0.00    +0.000 C 
ATOM      3  C   UNL     1      -0.023  11.204  21.061  0.00  0.00    +0.000 C 
ATOM      4  C   UNL     1      -1.422  11.712  20.690  0.00  0.00    +0.000 C 
ATOM      5  C   UNL     1      -1.785  11.580  19.189  0.00  0.00    +0.000 C 
ATOM      6  C   UNL     1      -3.312  11.653  18.953  0.00  0.00    +0.000 A 
ATOM      7  C   UNL     1      -4.114  12.499  19.743  0.00  0.00    +0.000 A 
ATOM      8  C   UNL     1      -5.504  12.512  19.606  0.00  0.00    +0.000 A 
ATOM      9  C   UNL     1      -6.108  11.688  18.670  0.00  0.00    +0.000 A 
ATOM     10  F   UNL     1      -7.442  11.691  18.551  0.00  0.00    +0.000 F 
ATOM     11  C   UNL     1      -5.348  10.860  17.855  0.00  0.00    +0.000 A 
ATOM     12  C   UNL     1      -3.945  10.849  17.967  0.00  0.00    +0.000 A 
ATOM     13  C   UNL     1      -3.176   9.886  17.081  0.00  0.00    +0.000 C 
ATOM     14  C   UNL     1      -1.651  10.083  17.142  0.00  0.00    +0.000 C 
ATOM     15  C   UNL     1      -1.288  10.248  18.618  0.00  0.00    +0.000 C 
ATOM     16  C   UNL     1       0.027   9.651  19.101  0.00  0.00    +0.000 C 
ATOM     17  C   UNL     1       1.467   9.655  18.539  0.00  0.00    +0.000 C 
ATOM     18  C   UNL     1       2.111   8.597  19.525  0.00  0.00    +0.000 C 
ATOM     19  C   UNL     1       1.686   9.289  20.844  0.00  0.00    +0.000 C 
ENDROOT
BRANCH  19  20
ATOM     20  O   UNL     1       1.963   8.585  22.032  0.00  0.00    +0.000 OA
ATOM     21  H   UNL     1       1.858   7.633  21.884  0.00  0.00    +0.000 HD
ENDBRANCH  19  20
BRANCH  18  22
ATOM     22  C   UNL     1       1.605   7.167  19.083  0.00  0.00    +0.000 C 
BRANCH  22  23
ATOM     23  C   UNL     1       2.422   5.940  18.754  0.00  0.00    +0.000 A 
ATOM     24  C   UNL     1       1.818   4.934  17.962  0.00  0.00    +0.000 A 
ATOM     25  C   UNL     1       2.558   3.869  17.415  0.00  0.00    +0.000 A 
ATOM     26  C   UNL     1       3.930   3.813  17.684  0.00  0.00    +0.000 A 
ATOM     27  C   UNL     1       4.525   4.786  18.488  0.00  0.00    +0.000 A 
ATOM     28  C   UNL     1       3.781   5.855  19.019  0.00  0.00    +0.000 A 
BRANCH  27  29
ATOM     29  C   UNL     1       5.973   4.745  18.765  0.00  0.00    +0.000 C 
ATOM     30  N   UNL     1       6.767   4.099  17.874  0.00  0.00    +0.000 N 
ATOM     31  O   UNL     1       6.440   5.255  19.789  0.00  0.00    +0.000 OA
ATOM     32  H   UNL     1       6.389   3.454  17.187  0.00  0.00    +0.000 HD
ATOM     33  H   UNL     1       7.730   3.966  18.150  0.00  0.00    +0.000 HD
ENDBRANCH  27  29
ENDBRANCH  22  23
ENDBRANCH  18  22
TORSDOF 4
ENDMDL
MODEL 5
REMARK VINA RESULT:      -8.6      3.510      6.030
REMARK  Name = 
REMARK  5 active torsions:
REMARK  status: ('A' for Active; 'I' for Inactive)
REMARK    1  A    between atoms: C_1  and  C_2
REMARK    2  A    between atoms: C_18  and  C_19
REMARK    3  A    between atoms: C_19  and  C_20
REMARK    4  A    between atoms: C_24  and  C_25
REMARK    5  A    between atoms: C_29  and  O_30
REMARK                            x       y       z     vdW  Elec       q    Type
REMARK                         _______ _______ _______ _____ _____    ______ ____
ROOT
ATOM      1  C   UNL     1      -0.713   8.726  21.037  0.00  0.00    +0.000 C 
ATOM      2  C   UNL     1       0.234   9.723  20.351  0.00  0.00    +0.000 C 
ATOM      3  C   UNL     1       0.026  11.154  20.893  0.00  0.00    +0.000 C 
ATOM      4  C   UNL     1      -1.386  11.690  20.622  0.00  0.00    +0.000 C 
ATOM      5  C   UNL     1      -1.814  11.668  19.133  0.00  0.00    +0.000 C 
ATOM      6  C   UNL     1      -3.349  11.761  18.969  0.00  0.00    +0.000 A 
ATOM      7  C   UNL     1      -4.113  12.548  19.853  0.00  0.00    +0.000 A 
ATOM      8  C   UNL     1      -5.507  12.573  19.777  0.00  0.00    +0.000 A 
ATOM      9  C   UNL     1      -6.155  11.821  18.811  0.00  0.00    +0.000 A 
ATOM     10  F   UNL     1      -7.493  11.834  18.751  0.00  0.00    +0.000 F 
ATOM     11  C   UNL     1      -5.434  11.053  17.906  0.00  0.00    +0.000 A 
ATOM     12  C   UNL     1      -4.028  11.031  17.956  0.00  0.00    +0.000 A 
ATOM     13  C   UNL     1      -3.303  10.134  16.970  0.00  0.00    +0.000 C 
ATOM     14  C   UNL     1      -1.776  10.324  16.978  0.00  0.00    +0.000 C 
ATOM     15  C   UNL     1      -1.349  10.380  18.445  0.00  0.00    +0.000 C 
ATOM     16  C   UNL     1      -0.017   9.748  18.826  0.00  0.00    +0.000 C 
ATOM     17  C   UNL     1       1.397   9.790  18.203  0.00  0.00    +0.000 C 
ATOM     18  C   UNL     1       2.078   8.662  19.082  0.00  0.00    +0.000 C 
ATOM     19  C   UNL     1       1.714   9.257  20.464  0.00  0.00    +0.000 C 
ENDROOT
BRANCH  19  20
ATOM     20  O   UNL     1       2.039   8.468  21.585  0.00  0.00    +0.000 OA
ATOM     21  H   UNL     1       1.243   8.029  21.921  0.00  0.00    +0.000 HD
ENDBRANCH  19  20
BRANCH  18  22
ATOM     22  C   UNL     1       1.547   7.269  18.559  0.00  0.00    +0.000 C 
BRANCH  22  23
ATOM     23  C   UNL     1       2.343   6.068  18.107  0.00  0.00    +0.000 A 
ATOM     24  C   UNL     1       3.684   6.273  17.706  0.00  0.00    +0.000 A 
ATOM     25  C   UNL     1       4.571   5.202  17.486  0.00  0.00    +0.000 A 
ATOM     26  C   UNL     1       4.089   3.901  17.663  0.00  0.00    +0.000 A 
ATOM     27  C   UNL     1       2.759   3.691  18.029  0.00  0.00    +0.000 A 
ATOM     28  C   UNL     1       1.883   4.768  18.261  0.00  0.00    +0.000 A 
BRANCH  27  29
ATOM     29  C   UNL     1       2.245   2.325  18.233  0.00  0.00    +0.000 C 
ATOM     30  N   UNL     1       3.149   1.316  18.308  0.00  0.00    +0.000 N 
ATOM     31  O   UNL     1       1.030   2.104  18.300  0.00  0.00    +0.000 OA
ATOM     32  H   UNL     1       4.107   1.428  17.991  0.00  0.00    +0.000 HD
ATOM     33  H   UNL     1       2.771   0.378  18.312  0.00  0.00    +0.000 HD
ENDBRANCH  27  29
ENDBRANCH  22  23
ENDBRANCH  18  22
TORSDOF 4
ENDMDL
MODEL 6
REMARK VINA RESULT:      -8.6      1.562      1.937
REMARK  Name = 
REMARK  5 active torsions:
REMARK  status: ('A' for Active; 'I' for Inactive)
REMARK    1  A    between atoms: C_1  and  C_2
REMARK    2  A    between atoms: C_18  and  C_19
REMARK    3  A    between atoms: C_19  and  C_20
REMARK    4  A    between atoms: C_24  and  C_25
REMARK    5  A    between atoms: C_29  and  O_30
REMARK                            x       y       z     vdW  Elec       q    Type
REMARK                         _______ _______ _______ _____ _____    ______ ____
ROOT
ATOM      1  C   UNL     1       1.726   4.145  17.787  0.00  0.00    +0.000 C 
ATOM      2  C   UNL     1       3.067   4.337  18.512  0.00  0.00    +0.000 C 
ATOM      3  C   UNL     1       2.862   4.478  20.036  0.00  0.00    +0.000 C 
ATOM      4  C   UNL     1       2.024   5.707  20.410  0.00  0.00    +0.000 C 
ATOM      5  C   UNL     1       2.566   7.053  19.868  0.00  0.00    +0.000 C 
ATOM      6  C   UNL     1       1.480   8.154  19.859  0.00  0.00    +0.000 A 
ATOM      7  C   UNL     1       0.514   8.209  20.882  0.00  0.00    +0.000 A 
ATOM      8  C   UNL     1      -0.527   9.139  20.844  0.00  0.00    +0.000 A 
ATOM      9  C   UNL     1      -0.609  10.034  19.789  0.00  0.00    +0.000 A 
ATOM     10  F   UNL     1      -1.617  10.915  19.747  0.00  0.00    +0.000 F 
ATOM     11  C   UNL     1       0.340  10.028  18.776  0.00  0.00    +0.000 A 
ATOM     12  C   UNL     1       1.406   9.109  18.808  0.00  0.00    +0.000 A 
ATOM     13  C   UNL     1       2.382   9.122  17.646  0.00  0.00    +0.000 C 
ATOM     14  C   UNL     1       3.608   8.219  17.866  0.00  0.00    +0.000 C 
ATOM     15  C   UNL     1       3.085   6.900  18.434  0.00  0.00    +0.000 C 
ATOM     16  C   UNL     1       3.778   5.613  18.005  0.00  0.00    +0.000 C 
ATOM     17  C   UNL     1       5.261   5.199  17.867  0.00  0.00    +0.000 C 
ATOM     18  C   UNL     1       5.053   3.814  17.127  0.00  0.00    +0.000 C 
ATOM     19  C   UNL     1       4.067   3.201  18.151  0.00  0.00    +0.000 C 
ENDROOT
BRANCH  19  20
ATOM     20  O   UNL     1       3.503   1.958  17.803  0.00  0.00    +0.000 OA
ATOM     21  H   UNL     1       2.930   2.060  17.029  0.00  0.00    +0.000 HD
ENDBRANCH  19  20
BRANCH  18  22
ATOM     22  C   UNL     1       4.676   4.131  15.627  0.00  0.00    +0.000 C 
BRANCH  22  23
ATOM     23  C   UNL     1       5.545   4.031  14.396  0.00  0.00    +0.000 A 
ATOM     24  C   UNL     1       5.140   3.148  13.367  0.00  0.00    +0.000 A 
ATOM     25  C   UNL     1       5.749   3.149  12.098  0.00  0.00    +0.000 A 
ATOM     26  C   UNL     1       6.793   4.051  11.869  0.00  0.00    +0.000 A 
ATOM     27  C   UNL     1       7.217   4.905  12.889  0.00  0.00    +0.000 A 
ATOM     28  C   UNL     1       6.593   4.907  14.150  0.00  0.00    +0.000 A 
BRANCH  27  29
ATOM     29  C   UNL     1       8.306   5.869  12.654  0.00  0.00    +0.000 C 
ATOM     30  N   UNL     1       8.228   6.651  11.547  0.00  0.00    +0.000 N 
ATOM     31  O   UNL     1       9.272   5.940  13.422  0.00  0.00    +0.000 OA
ATOM     32  H   UNL     1       7.605   6.430  10.776  0.00  0.00    +0.000 HD
ATOM     33  H   UNL     1       9.046   7.205  11.334  0.00  0.00    +0.000 HD
ENDBRANCH  27  29
ENDBRANCH  22  23
ENDBRANCH  18  22
TORSDOF 4
ENDMDL
MODEL 7
REMARK VINA RESULT:      -8.6      4.270      6.598
REMARK  Name = 
REMARK  5 active torsions:
REMARK  status: ('A' for Active; 'I' for Inactive)
REMARK    1  A    between atoms: C_1  and  C_2
REMARK    2  A    between atoms: C_18  and  C_19
REMARK    3  A    between atoms: C_19  and  C_20
REMARK    4  A    between atoms: C_24  and  C_25
REMARK    5  A    between atoms: C_29  and  O_30
REMARK                            x       y       z     vdW  Elec       q    Type
REMARK                         _______ _______ _______ _____ _____    ______ ____
ROOT
ATOM      1  C   UNL     1      -0.626   8.574  20.895  0.00  0.00    +0.000 C 
ATOM      2  C   UNL     1       0.326   9.562  20.202  0.00  0.00    +0.000 C 
ATOM      3  C   UNL     1       0.139  10.994  20.748  0.00  0.00    +0.000 C 
ATOM      4  C   UNL     1      -1.270  11.546  20.492  0.00  0.00    +0.000 C 
ATOM      5  C   UNL     1      -1.713  11.531  19.007  0.00  0.00    +0.000 C 
ATOM      6  C   UNL     1      -3.249  11.641  18.860  0.00  0.00    +0.000 A 
ATOM      7  C   UNL     1      -3.995  12.435  19.753  0.00  0.00    +0.000 A 
ATOM      8  C   UNL     1      -5.389  12.476  19.692  0.00  0.00    +0.000 A 
ATOM      9  C   UNL     1      -6.056  11.732  18.732  0.00  0.00    +0.000 A 
ATOM     10  F   UNL     1      -7.394  11.760  18.685  0.00  0.00    +0.000 F 
ATOM     11  C   UNL     1      -5.353  10.958  17.818  0.00  0.00    +0.000 A 
ATOM     12  C   UNL     1      -3.947  10.920  17.853  0.00  0.00    +0.000 A 
ATOM     13  C   UNL     1      -3.242  10.017  16.858  0.00  0.00    +0.000 C 
ATOM     14  C   UNL     1      -1.713  10.190  16.851  0.00  0.00    +0.000 C 
ATOM     15  C   UNL     1      -1.270  10.239  18.313  0.00  0.00    +0.000 C 
ATOM     16  C   UNL     1       0.058   9.592  18.679  0.00  0.00    +0.000 C 
ATOM     17  C   UNL     1       1.467   9.619  18.042  0.00  0.00    +0.000 C 
ATOM     18  C   UNL     1       2.145   8.482  18.911  0.00  0.00    +0.000 C 
ATOM     19  C   UNL     1       1.802   9.079  20.298  0.00  0.00    +0.000 C 
ENDROOT
BRANCH  19  20
ATOM     20  O   UNL     1       2.129   8.285  21.414  0.00  0.00    +0.000 OA
ATOM     21  H   UNL     1       1.365   8.215  22.006  0.00  0.00    +0.000 HD
ENDBRANCH  19  20
BRANCH  18  22
ATOM     22  C   UNL     1       1.593   7.097  18.392  0.00  0.00    +0.000 C 
BRANCH  22  23
ATOM     23  C   UNL     1       2.170   5.716  18.598  0.00  0.00    +0.000 A 
ATOM     24  C   UNL     1       3.239   5.313  17.764  0.00  0.00    +0.000 A 
ATOM     25  C   UNL     1       3.990   4.150  18.020  0.00  0.00    +0.000 A 
ATOM     26  C   UNL     1       3.645   3.375  19.132  0.00  0.00    +0.000 A 
ATOM     27  C   UNL     1       2.572   3.751  19.942  0.00  0.00    +0.000 A 
ATOM     28  C   UNL     1       1.837   4.923  19.687  0.00  0.00    +0.000 A 
BRANCH  27  29
ATOM     29  C   UNL     1       2.210   2.950  21.125  0.00  0.00    +0.000 C 
ATOM     30  N   UNL     1       0.889   2.781  21.390  0.00  0.00    +0.000 N 
ATOM     31  O   UNL     1       3.078   2.478  21.867  0.00  0.00    +0.000 OA
ATOM     32  H   UNL     1       0.177   3.368  20.969  0.00  0.00    +0.000 HD
ATOM     33  H   UNL     1       0.664   2.347  22.275  0.00  0.00    +0.000 HD
ENDBRANCH  27  29
ENDBRANCH  22  23
ENDBRANCH  18  22
TORSDOF 4
ENDMDL
MODEL 8
REMARK VINA RESULT:      -8.3      6.430     11.350
REMARK  Name = 
REMARK  5 active torsions:
REMARK  status: ('A' for Active; 'I' for Inactive)
REMARK    1  A    between atoms: C_1  and  C_2
REMARK    2  A    between atoms: C_18  and  C_19
REMARK    3  A    between atoms: C_19  and  C_20
REMARK    4  A    between atoms: C_24  and  C_25
REMARK    5  A    between atoms: C_29  and  O_30
REMARK                            x       y       z     vdW  Elec       q    Type
REMARK                         _______ _______ _______ _____ _____    ______ ____
ROOT
ATOM      1  C   UNL     1      -0.953  10.039  18.013  0.00  0.00    +0.000 C 
ATOM      2  C   UNL     1       0.243  10.846  18.543  0.00  0.00    +0.000 C 
ATOM      3  C   UNL     1       1.513  10.578  17.705  0.00  0.00    +0.000 C 
ATOM      4  C   UNL     1       1.960   9.111  17.762  0.00  0.00    +0.000 C 
ATOM      5  C   UNL     1       2.196   8.559  19.191  0.00  0.00    +0.000 C 
ATOM      6  C   UNL     1       2.178   7.013  19.225  0.00  0.00    +0.000 A 
ATOM      7  C   UNL     1       2.701   6.271  18.148  0.00  0.00    +0.000 A 
ATOM      8  C   UNL     1       2.613   4.878  18.119  0.00  0.00    +0.000 A 
ATOM      9  C   UNL     1       2.011   4.207  19.172  0.00  0.00    +0.000 A 
ATOM     10  F   UNL     1       1.914   2.872  19.135  0.00  0.00    +0.000 F 
ATOM     11  C   UNL     1       1.508   4.902  20.263  0.00  0.00    +0.000 A 
ATOM     12  C   UNL     1       1.605   6.305  20.317  0.00  0.00    +0.000 A 
ATOM     13  C   UNL     1       0.992   7.009  21.514  0.00  0.00    +0.000 C 
ATOM     14  C   UNL     1       1.316   8.511  21.572  0.00  0.00    +0.000 C 
ATOM     15  C   UNL     1       1.118   9.059  20.159  0.00  0.00    +0.000 C 
ATOM     16  C   UNL     1       0.548  10.462  20.009  0.00  0.00    +0.000 C 
ATOM     17  C   UNL     1       0.842  11.810  20.706  0.00  0.00    +0.000 C 
ATOM     18  C   UNL     1      -0.371  12.648  20.128  0.00  0.00    +0.000 C 
ATOM     19  C   UNL     1      -0.099  12.361  18.631  0.00  0.00    +0.000 C 
ENDROOT
BRANCH  19  20
ATOM     20  O   UNL     1      -1.062  12.840  17.721  0.00  0.00    +0.000 OA
ATOM     21  H   UNL     1      -1.365  13.719  17.993  0.00  0.00    +0.000 HD
ENDBRANCH  19  20
BRANCH  18  22
ATOM     22  C   UNL     1      -1.674  12.181  20.887  0.00  0.00    +0.000 C 
BRANCH  22  23
ATOM     23  C   UNL     1      -2.254  12.710  22.177  0.00  0.00    +0.000 A 
ATOM     24  C   UNL     1      -1.428  13.521  22.992  0.00  0.00    +0.000 A 
ATOM     25  C   UNL     1      -1.936  14.242  24.088  0.00  0.00    +0.000 A 
ATOM     26  C   UNL     1      -3.301  14.133  24.373  0.00  0.00    +0.000 A 
ATOM     27  C   UNL     1      -4.116  13.312  23.591  0.00  0.00    +0.000 A 
ATOM     28  C   UNL     1      -3.602  12.605  22.489  0.00  0.00    +0.000 A 
BRANCH  27  29
ATOM     29  C   UNL     1      -5.558  13.201  23.873  0.00  0.00    +0.000 C 
ATOM     30  N   UNL     1      -6.216  14.328  24.248  0.00  0.00    +0.000 N 
ATOM     31  O   UNL     1      -6.140  12.113  23.802  0.00  0.00    +0.000 OA
ATOM     32  H   UNL     1      -5.724  15.154  24.571  0.00  0.00    +0.000 HD
ATOM     33  H   UNL     1      -7.167  14.204  24.566  0.00  0.00    +0.000 HD
ENDBRANCH  27  29
ENDBRANCH  22  23
ENDBRANCH  18  22
TORSDOF 4
ENDMDL
MODEL 9
REMARK VINA RESULT:      -8.3      3.874      6.546
REMARK  Name = 
REMARK  5 active torsions:
REMARK  status: ('A' for Active; 'I' for Inactive)
REMARK    1  A    between atoms: C_1  and  C_2
REMARK    2  A    between atoms: C_18  and  C_19
REMARK    3  A    between atoms: C_19  and  C_20
REMARK    4  A    between atoms: C_24  and  C_25
REMARK    5  A    between atoms: C_29  and  O_30
REMARK                            x       y       z     vdW  Elec       q    Type
REMARK                         _______ _______ _______ _____ _____    ______ ____
ROOT
ATOM      1  C   UNL     1      -0.876   9.259  21.871  0.00  0.00    +0.000 C 
ATOM      2  C   UNL     1       0.124  10.116  21.078  0.00  0.00    +0.000 C 
ATOM      3  C   UNL     1      -0.133  11.623  21.302  0.00  0.00    +0.000 C 
ATOM      4  C   UNL     1      -1.518  12.066  20.813  0.00  0.00    +0.000 C 
ATOM      5  C   UNL     1      -1.819  11.737  19.329  0.00  0.00    +0.000 C 
ATOM      6  C   UNL     1      -3.336  11.766  19.025  0.00  0.00    +0.000 A 
ATOM      7  C   UNL     1      -4.172  12.700  19.666  0.00  0.00    +0.000 A 
ATOM      8  C   UNL     1      -5.555  12.682  19.473  0.00  0.00    +0.000 A 
ATOM      9  C   UNL     1      -6.119  11.739  18.629  0.00  0.00    +0.000 A 
ATOM     10  F   UNL     1      -7.447  11.714  18.458  0.00  0.00    +0.000 F 
ATOM     11  C   UNL     1      -5.323  10.819  17.959  0.00  0.00    +0.000 A 
ATOM     12  C   UNL     1      -3.926  10.834  18.128  0.00  0.00    +0.000 A 
ATOM     13  C   UNL     1      -3.118   9.771  17.406  0.00  0.00    +0.000 C 
ATOM     14  C   UNL     1      -1.598   9.988  17.501  0.00  0.00    +0.000 C 
ATOM     15  C   UNL     1      -1.295  10.346  18.956  0.00  0.00    +0.000 C 
ATOM     16  C   UNL     1       0.001   9.830  19.564  0.00  0.00    +0.000 C 
ATOM     17  C   UNL     1       1.463   9.773  19.063  0.00  0.00    +0.000 C 
ATOM     18  C   UNL     1       2.070   8.857  20.204  0.00  0.00    +0.000 C 
ATOM     19  C   UNL     1       1.590   9.711  21.404  0.00  0.00    +0.000 C 
ENDROOT
BRANCH  19  20
ATOM     20  O   UNL     1       1.821   9.170  22.683  0.00  0.00    +0.000 OA
ATOM     21  H   UNL     1       1.161   8.488  22.878  0.00  0.00    +0.000 HD
ENDBRANCH  19  20
BRANCH  18  22
ATOM     22  C   UNL     1       1.588   7.378  19.932  0.00  0.00    +0.000 C 
BRANCH  22  23
ATOM     23  C   UNL     1       2.351   6.242  19.293  0.00  0.00    +0.000 A 
ATOM     24  C   UNL     1       2.987   6.484  18.053  0.00  0.00    +0.000 A 
ATOM     25  C   UNL     1       3.902   5.574  17.491  0.00  0.00    +0.000 A 
ATOM     26  C   UNL     1       4.167   4.391  18.189  0.00  0.00    +0.000 A 
ATOM     27  C   UNL     1       3.521   4.133  19.399  0.00  0.00    +0.000 A 
ATOM     28  C   UNL     1       2.619   5.055  19.961  0.00  0.00    +0.000 A 
BRANCH  27  29
ATOM     29  C   UNL     1       3.804   2.897  20.151  0.00  0.00    +0.000 C 
ATOM     30  N   UNL     1       4.878   2.159  19.769  0.00  0.00    +0.000 N 
ATOM     31  O   UNL     1       3.071   2.531  21.076  0.00  0.00    +0.000 OA
ATOM     32  H   UNL     1       5.324   2.287  18.866  0.00  0.00    +0.000 HD
ATOM     33  H   UNL     1       4.974   1.253  20.207  0.00  0.00    +0.000 HD
ENDBRANCH  27  29
ENDBRANCH  22  23
ENDBRANCH  18  22
TORSDOF 4
ENDMDL
