MODEL 1
REMARK VINA RESULT:      -7.4      0.000      0.000
REMARK  Name = 
REMARK  10 active torsions:
REMARK  status: ('A' for Active; 'I' for Inactive)
REMARK    1  A    between atoms: C_1  and  N_2
REMARK    2  A    between atoms: N_2  and  C_13
REMARK    3  A    between atoms: C_3  and  C_5
REMARK    4  A    between atoms: C_5  and  C_6
REMARK    5  A    between atoms: C_6  and  N_7
REMARK    6  A    between atoms: C_6  and  C_8
REMARK    7  A    between atoms: C_8  and  C_9
REMARK    8  A    between atoms: C_9  and  C_10
REMARK    9  A    between atoms: C_10  and  C_11
REMARK   10  A    between atoms: C_11  and  N_12
REMARK                            x       y       z     vdW  Elec       q    Type
REMARK                         _______ _______ _______ _____ _____    ______ ____
ROOT
ATOM      1  C   UNL     1       4.604   5.536  19.240  0.00  0.00    +0.000 C 
ATOM      2  N   UNL     1       5.317   4.802  18.195  0.00  0.00    +0.000 N 
ATOM      3  C   UNL     1       4.735   3.879  17.333  0.00  0.00    +0.000 C 
ATOM      4  O   UNL     1       5.370   3.387  16.396  0.00  0.00    +0.000 OA
ENDROOT
BRANCH   2   5
ATOM      5  C   UNL     1       6.694   5.231  17.859  0.00  0.00    +0.000 C 
ATOM      6  C   UNL     1       6.721   6.029  16.550  0.00  0.00    +0.000 C 
ATOM      7  N   UNL     1       7.169   7.416  16.629  0.00  0.00    +0.000 NA
ATOM      8  C   UNL     1       7.792   7.827  17.664  0.00  0.00    +0.000 C 
ATOM      9  N   UNL     1       8.254   9.101  17.605  0.00  0.00    +0.000 N 
ATOM     10  C   UNL     1       8.893   9.813  18.582  0.00  0.00    +0.000 C 
ATOM     11  N   UNL     1       9.209  11.081  18.201  0.00  0.00    +0.000 N 
ATOM     12  O   UNL     1       9.148   9.395  19.705  0.00  0.00    +0.000 OA
ATOM     13  N   UNL     1       8.019   7.094  18.771  0.00  0.00    +0.000 N 
ATOM     14  C   UNL     1       7.443   5.883  19.016  0.00  0.00    +0.000 C 
ATOM     15  O   UNL     1       7.502   5.385  20.140  0.00  0.00    +0.000 OA
ATOM     16  H   UNL     1       8.012   9.580  16.754  0.00  0.00    +0.000 HD
ATOM     17  H   UNL     1       9.483  11.249  17.246  0.00  0.00    +0.000 HD
ATOM     18  H   UNL     1       9.735  11.604  18.892  0.00  0.00    +0.000 HD
ATOM     19  H   UNL     1       8.477   7.542  19.562  0.00  0.00    +0.000 HD
ENDBRANCH   2   5
BRANCH   3  20
ATOM     20  C   UNL     1       3.283   3.516  17.572  0.00  0.00    +0.000 C 
BRANCH  20  21
ATOM     21  C   UNL     1       3.082   2.054  18.010  0.00  0.00    +0.000 C 
BRANCH  21  22
ATOM     22  N   UNL     1       4.129   1.612  18.942  0.00  0.00    +0.000 NA
ATOM     23  H   UNL     1       4.204   2.260  19.724  0.00  0.00    +0.000 HD
ATOM     24  H   UNL     1       5.027   1.677  18.447  0.00  0.00    +0.000 HD
ENDBRANCH  21  22
BRANCH  21  25
ATOM     25  C   UNL     1       1.721   1.843  18.699  0.00  0.00    +0.000 C 
BRANCH  25  26
ATOM     26  C   UNL     1       1.114   3.151  19.210  0.00  0.00    +0.000 C 
BRANCH  26  27
ATOM     27  C   UNL     1       0.897   3.129  20.722  0.00  0.00    +0.000 C 
BRANCH  27  28
ATOM     28  C   UNL     1       2.161   3.600  21.439  0.00  0.00    +0.000 C 
BRANCH  28  29
ATOM     29  N   UNL     1       2.959   2.459  21.864  0.00  0.00    +0.000 NA
ATOM     30  H   UNL     1       3.530   2.133  21.084  0.00  0.00    +0.000 HD
ATOM     31  H   UNL     1       2.340   1.687  22.108  0.00  0.00    +0.000 HD
ENDBRANCH  28  29
ENDBRANCH  27  28
ENDBRANCH  26  27
ENDBRANCH  25  26
ENDBRANCH  21  25
ENDBRANCH  20  21
ENDBRANCH   3  20
TORSDOF 9
ENDMDL
MODEL 2
REMARK VINA RESULT:      -6.6      3.553      7.192
REMARK  Name = 
REMARK  10 active torsions:
REMARK  status: ('A' for Active; 'I' for Inactive)
REMARK    1  A    between atoms: C_1  and  N_2
REMARK    2  A    between atoms: N_2  and  C_13
REMARK    3  A    between atoms: C_3  and  C_5
REMARK    4  A    between atoms: C_5  and  C_6
REMARK    5  A    between atoms: C_6  and  N_7
REMARK    6  A    between atoms: C_6  and  C_8
REMARK    7  A    between atoms: C_8  and  C_9
REMARK    8  A    between atoms: C_9  and  C_10
REMARK    9  A    between atoms: C_10  and  C_11
REMARK   10  A    between atoms: C_11  and  N_12
REMARK                            x       y       z     vdW  Elec       q    Type
REMARK                         _______ _______ _______ _____ _____    ______ ____
ROOT
ATOM      1  C   UNL     1       3.909   3.989  16.302  0.00  0.00    +0.000 C 
ATOM      2  N   UNL     1       4.636   5.122  16.873  0.00  0.00    +0.000 N 
ATOM      3  C   UNL     1       5.396   6.028  16.142  0.00  0.00    +0.000 C 
ATOM      4  O   UNL     1       5.883   7.031  16.672  0.00  0.00    +0.000 OA
ENDROOT
BRANCH   2   5
ATOM      5  C   UNL     1       4.362   5.486  18.282  0.00  0.00    +0.000 C 
ATOM      6  C   UNL     1       2.925   5.991  18.455  0.00  0.00    +0.000 C 
ATOM      7  N   UNL     1       2.050   5.213  19.327  0.00  0.00    +0.000 NA
ATOM      8  C   UNL     1       2.548   4.357  20.131  0.00  0.00    +0.000 C 
ATOM      9  N   UNL     1       1.668   3.755  20.970  0.00  0.00    +0.000 N 
ATOM     10  C   UNL     1       1.912   2.765  21.881  0.00  0.00    +0.000 C 
ATOM     11  N   UNL     1       0.797   2.369  22.552  0.00  0.00    +0.000 N 
ATOM     12  O   UNL     1       3.002   2.246  22.080  0.00  0.00    +0.000 OA
ATOM     13  N   UNL     1       3.854   4.033  20.204  0.00  0.00    +0.000 N 
ATOM     14  C   UNL     1       4.789   4.427  19.293  0.00  0.00    +0.000 C 
ATOM     15  O   UNL     1       5.903   3.902  19.282  0.00  0.00    +0.000 OA
ATOM     16  H   UNL     1       0.713   4.038  20.823  0.00  0.00    +0.000 HD
ATOM     17  H   UNL     1       0.097   3.057  22.786  0.00  0.00    +0.000 HD
ATOM     18  H   UNL     1       0.968   1.677  23.273  0.00  0.00    +0.000 HD
ATOM     19  H   UNL     1       4.134   3.294  20.843  0.00  0.00    +0.000 HD
ENDBRANCH   2   5
BRANCH   3  20
ATOM     20  C   UNL     1       5.585   5.753  14.664  0.00  0.00    +0.000 C 
BRANCH  20  21
ATOM     21  C   UNL     1       6.923   5.064  14.337  0.00  0.00    +0.000 C 
BRANCH  21  22
ATOM     22  N   UNL     1       7.559   4.503  15.538  0.00  0.00    +0.000 NA
ATOM     23  H   UNL     1       8.567   4.641  15.504  0.00  0.00    +0.000 HD
ATOM     24  H   UNL     1       7.422   3.485  15.510  0.00  0.00    +0.000 HD
ENDBRANCH  21  22
BRANCH  21  25
ATOM     25  C   UNL     1       6.747   3.920  13.322  0.00  0.00    +0.000 C 
BRANCH  25  26
ATOM     26  C   UNL     1       5.316   3.823  12.790  0.00  0.00    +0.000 C 
BRANCH  26  27
ATOM     27  C   UNL     1       5.160   2.700  11.767  0.00  0.00    +0.000 C 
BRANCH  27  28
ATOM     28  C   UNL     1       6.512   2.040  11.504  0.00  0.00    +0.000 C 
BRANCH  28  29
ATOM     29  N   UNL     1       6.341   0.619  11.240  0.00  0.00    +0.000 NA
ATOM     30  H   UNL     1       5.417   0.456  10.840  0.00  0.00    +0.000 HD
ATOM     31  H   UNL     1       6.365   0.108  12.121  0.00  0.00    +0.000 HD
ENDBRANCH  28  29
ENDBRANCH  27  28
ENDBRANCH  26  27
ENDBRANCH  25  26
ENDBRANCH  21  25
ENDBRANCH  20  21
ENDBRANCH   3  20
TORSDOF 9
ENDMDL
MODEL 3
REMARK VINA RESULT:      -6.6      1.237      1.518
REMARK  Name = 
REMARK  10 active torsions:
REMARK  status: ('A' for Active; 'I' for Inactive)
REMARK    1  A    between atoms: C_1  and  N_2
REMARK    2  A    between atoms: N_2  and  C_13
REMARK    3  A    between atoms: C_3  and  C_5
REMARK    4  A    between atoms: C_5  and  C_6
REMARK    5  A    between atoms: C_6  and  N_7
REMARK    6  A    between atoms: C_6  and  C_8
REMARK    7  A    between atoms: C_8  and  C_9
REMARK    8  A    between atoms: C_9  and  C_10
REMARK    9  A    between atoms: C_10  and  C_11
REMARK   10  A    between atoms: C_11  and  N_12
REMARK                            x       y       z     vdW  Elec       q    Type
REMARK                         _______ _______ _______ _____ _____    ______ ____
ROOT
ATOM      1  C   UNL     1       3.597   5.969  19.225  0.00  0.00    +0.000 C 
ATOM      2  N   UNL     1       4.044   5.049  18.180  0.00  0.00    +0.000 N 
ATOM      3  C   UNL     1       3.219   4.164  17.494  0.00  0.00    +0.000 C 
ATOM      4  O   UNL     1       3.640   3.503  16.540  0.00  0.00    +0.000 OA
ENDROOT
BRANCH   2   5
ATOM      5  C   UNL     1       5.409   5.226  17.635  0.00  0.00    +0.000 C 
ATOM      6  C   UNL     1       5.398   6.123  16.392  0.00  0.00    +0.000 C 
ATOM      7  N   UNL     1       6.137   7.380  16.476  0.00  0.00    +0.000 NA
ATOM      8  C   UNL     1       6.989   7.557  17.409  0.00  0.00    +0.000 C 
ATOM      9  N   UNL     1       7.696   8.713  17.348  0.00  0.00    +0.000 N 
ATOM     10  C   UNL     1       8.619   9.187  18.239  0.00  0.00    +0.000 C 
ATOM     11  N   UNL     1       9.132  10.397  17.887  0.00  0.00    +0.000 N 
ATOM     12  O   UNL     1       8.953   8.622  19.273  0.00  0.00    +0.000 OA
ATOM     13  N   UNL     1       7.228   6.691  18.413  0.00  0.00    +0.000 N 
ATOM     14  C   UNL     1       6.454   5.601  18.681  0.00  0.00    +0.000 C 
ATOM     15  O   UNL     1       6.583   4.996  19.745  0.00  0.00    +0.000 OA
ATOM     16  H   UNL     1       7.430   9.310  16.582  0.00  0.00    +0.000 HD
ATOM     17  H   UNL     1       9.281  10.598  16.910  0.00  0.00    +0.000 HD
ATOM     18  H   UNL     1       9.860  10.736  18.505  0.00  0.00    +0.000 HD
ATOM     19  H   UNL     1       7.889   6.961  19.137  0.00  0.00    +0.000 HD
ENDBRANCH   2   5
BRANCH   3  20
ATOM     20  C   UNL     1       1.777   4.058  17.946  0.00  0.00    +0.000 C 
BRANCH  20  21
ATOM     21  C   UNL     1       1.349   2.620  18.292  0.00  0.00    +0.000 C 
BRANCH  21  22
ATOM     22  N   UNL     1       2.433   1.655  18.059  0.00  0.00    +0.000 NA
ATOM     23  H   UNL     1       2.932   1.465  18.925  0.00  0.00    +0.000 HD
ATOM     24  H   UNL     1       3.119   2.107  17.442  0.00  0.00    +0.000 HD
ENDBRANCH  21  22
BRANCH  21  25
ATOM     25  C   UNL     1       0.912   2.488  19.763  0.00  0.00    +0.000 C 
BRANCH  25  26
ATOM     26  C   UNL     1       1.842   3.239  20.718  0.00  0.00    +0.000 C 
BRANCH  26  27
ATOM     27  C   UNL     1       2.917   2.327  21.305  0.00  0.00    +0.000 C 
BRANCH  27  28
ATOM     28  C   UNL     1       4.289   2.719  20.761  0.00  0.00    +0.000 C 
BRANCH  28  29
ATOM     29  N   UNL     1       4.784   1.698  19.849  0.00  0.00    +0.000 NA
ATOM     30  H   UNL     1       4.012   1.101  19.555  0.00  0.00    +0.000 HD
ATOM     31  H   UNL     1       5.440   1.094  20.343  0.00  0.00    +0.000 HD
ENDBRANCH  28  29
ENDBRANCH  27  28
ENDBRANCH  26  27
ENDBRANCH  25  26
ENDBRANCH  21  25
ENDBRANCH  20  21
ENDBRANCH   3  20
TORSDOF 9
ENDMDL
MODEL 4
REMARK VINA RESULT:      -6.6      2.795      4.284
REMARK  Name = 
REMARK  10 active torsions:
REMARK  status: ('A' for Active; 'I' for Inactive)
REMARK    1  A    between atoms: C_1  and  N_2
REMARK    2  A    between atoms: N_2  and  C_13
REMARK    3  A    between atoms: C_3  and  C_5
REMARK    4  A    between atoms: C_5  and  C_6
REMARK    5  A    between atoms: C_6  and  N_7
REMARK    6  A    between atoms: C_6  and  C_8
REMARK    7  A    between atoms: C_8  and  C_9
REMARK    8  A    between atoms: C_9  and  C_10
REMARK    9  A    between atoms: C_10  and  C_11
REMARK   10  A    between atoms: C_11  and  N_12
REMARK                            x       y       z     vdW  Elec       q    Type
REMARK                         _______ _______ _______ _____ _____    ______ ____
ROOT
ATOM      1  C   UNL     1       4.505   6.901  17.409  0.00  0.00    +0.000 C 
ATOM      2  N   UNL     1       4.940   5.685  18.094  0.00  0.00    +0.000 N 
ATOM      3  C   UNL     1       4.333   5.149  19.224  0.00  0.00    +0.000 C 
ATOM      4  O   UNL     1       4.678   4.054  19.679  0.00  0.00    +0.000 OA
ENDROOT
BRANCH   2   5
ATOM      5  C   UNL     1       5.938   4.825  17.418  0.00  0.00    +0.000 C 
ATOM      6  C   UNL     1       5.257   3.815  16.486  0.00  0.00    +0.000 C 
ATOM      7  N   UNL     1       5.567   3.914  15.063  0.00  0.00    +0.000 NA
ATOM      8  C   UNL     1       6.576   4.592  14.676  0.00  0.00    +0.000 C 
ATOM      9  N   UNL     1       6.841   4.545  13.346  0.00  0.00    +0.000 N 
ATOM     10  C   UNL     1       7.811   5.217  12.654  0.00  0.00    +0.000 C 
ATOM     11  N   UNL     1       7.792   4.958  11.318  0.00  0.00    +0.000 N 
ATOM     12  O   UNL     1       8.613   5.999  13.148  0.00  0.00    +0.000 OA
ATOM     13  N   UNL     1       7.375   5.318  15.481  0.00  0.00    +0.000 N 
ATOM     14  C   UNL     1       7.096   5.591  16.788  0.00  0.00    +0.000 C 
ATOM     15  O   UNL     1       7.736   6.452  17.391  0.00  0.00    +0.000 OA
ATOM     16  H   UNL     1       6.175   4.003  12.820  0.00  0.00    +0.000 HD
ATOM     17  H   UNL     1       7.552   4.031  11.004  0.00  0.00    +0.000 HD
ATOM     18  H   UNL     1       8.540   5.402  10.798  0.00  0.00    +0.000 HD
ATOM     19  H   UNL     1       8.118   5.868  15.057  0.00  0.00    +0.000 HD
ENDBRANCH   2   5
BRANCH   3  20
ATOM     20  C   UNL     1       3.216   5.947  19.865  0.00  0.00    +0.000 C 
BRANCH  20  21
ATOM     21  C   UNL     1       1.811   5.425  19.511  0.00  0.00    +0.000 C 
BRANCH  21  22
ATOM     22  N   UNL     1       1.715   5.023  18.101  0.00  0.00    +0.000 NA
ATOM     23  H   UNL     1       2.063   4.073  17.978  0.00  0.00    +0.000 HD
ATOM     24  H   UNL     1       2.359   5.619  17.567  0.00  0.00    +0.000 HD
ENDBRANCH  21  22
BRANCH  21  25
ATOM     25  C   UNL     1       1.415   4.212  20.373  0.00  0.00    +0.000 C 
BRANCH  25  26
ATOM     26  C   UNL     1       0.930   3.030  19.532  0.00  0.00    +0.000 C 
BRANCH  26  27
ATOM     27  C   UNL     1       1.899   1.851  19.591  0.00  0.00    +0.000 C 
BRANCH  27  28
ATOM     28  C   UNL     1       2.680   1.749  18.282  0.00  0.00    +0.000 C 
BRANCH  28  29
ATOM     29  N   UNL     1       4.027   1.255  18.531  0.00  0.00    +0.000 NA
ATOM     30  H   UNL     1       4.324   0.668  17.752  0.00  0.00    +0.000 HD
ATOM     31  H   UNL     1       4.018   0.655  19.355  0.00  0.00    +0.000 HD
ENDBRANCH  28  29
ENDBRANCH  27  28
ENDBRANCH  26  27
ENDBRANCH  25  26
ENDBRANCH  21  25
ENDBRANCH  20  21
ENDBRANCH   3  20
TORSDOF 9
ENDMDL
MODEL 5
REMARK VINA RESULT:      -6.5      1.561      1.754
REMARK  Name = 
REMARK  10 active torsions:
REMARK  status: ('A' for Active; 'I' for Inactive)
REMARK    1  A    between atoms: C_1  and  N_2
REMARK    2  A    between atoms: N_2  and  C_13
REMARK    3  A    between atoms: C_3  and  C_5
REMARK    4  A    between atoms: C_5  and  C_6
REMARK    5  A    between atoms: C_6  and  N_7
REMARK    6  A    between atoms: C_6  and  C_8
REMARK    7  A    between atoms: C_8  and  C_9
REMARK    8  A    between atoms: C_9  and  C_10
REMARK    9  A    between atoms: C_10  and  C_11
REMARK   10  A    between atoms: C_11  and  N_12
REMARK                            x       y       z     vdW  Elec       q    Type
REMARK                         _______ _______ _______ _____ _____    ______ ____
ROOT
ATOM      1  C   UNL     1       3.328   6.090  17.888  0.00  0.00    +0.000 C 
ATOM      2  N   UNL     1       4.125   4.880  17.687  0.00  0.00    +0.000 N 
ATOM      3  C   UNL     1       3.601   3.603  17.514  0.00  0.00    +0.000 C 
ATOM      4  O   UNL     1       4.326   2.646  17.227  0.00  0.00    +0.000 OA
ENDROOT
BRANCH   2   5
ATOM      5  C   UNL     1       5.570   5.037  17.405  0.00  0.00    +0.000 C 
ATOM      6  C   UNL     1       5.799   5.824  16.109  0.00  0.00    +0.000 C 
ATOM      7  N   UNL     1       6.503   7.099  16.224  0.00  0.00    +0.000 NA
ATOM      8  C   UNL     1       7.155   7.373  17.286  0.00  0.00    +0.000 C 
ATOM      9  N   UNL     1       7.857   8.534  17.261  0.00  0.00    +0.000 N 
ATOM     10  C   UNL     1       8.585   9.101  18.270  0.00  0.00    +0.000 C 
ATOM     11  N   UNL     1       9.153  10.287  17.919  0.00  0.00    +0.000 N 
ATOM     12  O   UNL     1       8.712   8.634  19.394  0.00  0.00    +0.000 OA
ATOM     13  N   UNL     1       7.196   6.601  18.389  0.00  0.00    +0.000 N 
ATOM     14  C   UNL     1       6.388   5.523  18.596  0.00  0.00    +0.000 C 
ATOM     15  O   UNL     1       6.308   5.014  19.714  0.00  0.00    +0.000 OA
ATOM     16  H   UNL     1       7.743   9.057  16.409  0.00  0.00    +0.000 HD
ATOM     17  H   UNL     1       9.490  10.406  16.976  0.00  0.00    +0.000 HD
ATOM     18  H   UNL     1       9.745  10.693  18.635  0.00  0.00    +0.000 HD
ATOM     19  H   UNL     1       7.702   6.946  19.201  0.00  0.00    +0.000 HD
ENDBRANCH   2   5
BRANCH   3  20
ATOM     20  C   UNL     1       2.104   3.434  17.667  0.00  0.00    +0.000 C 
BRANCH  20  21
ATOM     21  C   UNL     1       1.710   2.482  18.812  0.00  0.00    +0.000 C 
BRANCH  21  22
ATOM     22  N   UNL     1       2.888   1.944  19.506  0.00  0.00    +0.000 NA
ATOM     23  H   UNL     1       3.139   1.034  19.125  0.00  0.00    +0.000 HD
ATOM     24  H   UNL     1       2.615   1.765  20.480  0.00  0.00    +0.000 HD
ENDBRANCH  21  22
BRANCH  21  25
ATOM     25  C   UNL     1       0.826   3.181  19.861  0.00  0.00    +0.000 C 
BRANCH  25  26
ATOM     26  C   UNL     1       1.581   3.482  21.157  0.00  0.00    +0.000 C 
BRANCH  26  27
ATOM     27  C   UNL     1       2.307   4.824  21.098  0.00  0.00    +0.000 C 
BRANCH  27  28
ATOM     28  C   UNL     1       1.308   5.947  20.826  0.00  0.00    +0.000 C 
BRANCH  28  29
ATOM     29  N   UNL     1       1.939   7.246  21.015  0.00  0.00    +0.000 NA
ATOM     30  H   UNL     1       1.478   7.741  21.778  0.00  0.00    +0.000 HD
ATOM     31  H   UNL     1       1.800   7.812  20.180  0.00  0.00    +0.000 HD
ENDBRANCH  28  29
ENDBRANCH  27  28
ENDBRANCH  26  27
ENDBRANCH  25  26
ENDBRANCH  21  25
ENDBRANCH  20  21
ENDBRANCH   3  20
TORSDOF 9
ENDMDL
MODEL 6
REMARK VINA RESULT:      -6.5      3.909      5.760
REMARK  Name = 
REMARK  10 active torsions:
REMARK  status: ('A' for Active; 'I' for Inactive)
REMARK    1  A    between atoms: C_1  and  N_2
REMARK    2  A    between atoms: N_2  and  C_13
REMARK    3  A    between atoms: C_3  and  C_5
REMARK    4  A    between atoms: C_5  and  C_6
REMARK    5  A    between atoms: C_6  and  N_7
REMARK    6  A    between atoms: C_6  and  C_8
REMARK    7  A    between atoms: C_8  and  C_9
REMARK    8  A    between atoms: C_9  and  C_10
REMARK    9  A    between atoms: C_10  and  C_11
REMARK   10  A    between atoms: C_11  and  N_12
REMARK                            x       y       z     vdW  Elec       q    Type
REMARK                         _______ _______ _______ _____ _____    ______ ____
ROOT
ATOM      1  C   UNL     1       1.236   3.267  20.519  0.00  0.00    +0.000 C 
ATOM      2  N   UNL     1       2.160   3.976  19.635  0.00  0.00    +0.000 N 
ATOM      3  C   UNL     1       2.453   5.333  19.713  0.00  0.00    +0.000 C 
ATOM      4  O   UNL     1       3.334   5.841  19.014  0.00  0.00    +0.000 OA
ENDROOT
BRANCH   2   5
ATOM      5  C   UNL     1       3.031   3.170  18.749  0.00  0.00    +0.000 C 
ATOM      6  C   UNL     1       2.648   3.356  17.276  0.00  0.00    +0.000 C 
ATOM      7  N   UNL     1       3.657   3.940  16.398  0.00  0.00    +0.000 NA
ATOM      8  C   UNL     1       4.875   3.993  16.773  0.00  0.00    +0.000 C 
ATOM      9  N   UNL     1       5.755   4.462  15.853  0.00  0.00    +0.000 N 
ATOM     10  C   UNL     1       7.096   4.683  16.002  0.00  0.00    +0.000 C 
ATOM     11  N   UNL     1       7.685   5.179  14.880  0.00  0.00    +0.000 N 
ATOM     12  O   UNL     1       7.730   4.492  17.032  0.00  0.00    +0.000 OA
ATOM     13  N   UNL     1       5.328   3.615  17.984  0.00  0.00    +0.000 N 
ATOM     14  C   UNL     1       4.521   3.314  19.041  0.00  0.00    +0.000 C 
ATOM     15  O   UNL     1       4.994   3.214  20.173  0.00  0.00    +0.000 OA
ATOM     16  H   UNL     1       5.322   4.747  14.989  0.00  0.00    +0.000 HD
ATOM     17  H   UNL     1       7.362   4.863  13.979  0.00  0.00    +0.000 HD
ATOM     18  H   UNL     1       8.690   5.293  14.954  0.00  0.00    +0.000 HD
ATOM     19  H   UNL     1       6.313   3.755  18.197  0.00  0.00    +0.000 HD
ENDBRANCH   2   5
BRANCH   3  20
ATOM     20  C   UNL     1       1.667   6.163  20.708  0.00  0.00    +0.000 C 
BRANCH  20  21
ATOM     21  C   UNL     1       1.864   7.680  20.530  0.00  0.00    +0.000 C 
BRANCH  21  22
ATOM     22  N   UNL     1       1.841   8.073  19.114  0.00  0.00    +0.000 NA
ATOM     23  H   UNL     1       0.946   7.832  18.694  0.00  0.00    +0.000 HD
ATOM     24  H   UNL     1       2.536   7.496  18.624  0.00  0.00    +0.000 HD
ENDBRANCH  21  22
BRANCH  21  25
ATOM     25  C   UNL     1       0.777   8.490  21.260  0.00  0.00    +0.000 C 
BRANCH  25  26
ATOM     26  C   UNL     1       0.796   9.971  20.879  0.00  0.00    +0.000 C 
BRANCH  26  27
ATOM     27  C   UNL     1      -0.554  10.441  20.342  0.00  0.00    +0.000 C 
BRANCH  27  28
ATOM     28  C   UNL     1      -0.363  11.185  19.022  0.00  0.00    +0.000 C 
BRANCH  28  29
ATOM     29  N   UNL     1       0.121  10.276  17.993  0.00  0.00    +0.000 NA
ATOM     30  H   UNL     1       0.722   9.570  18.417  0.00  0.00    +0.000 HD
ATOM     31  H   UNL     1       0.705  10.792  17.336  0.00  0.00    +0.000 HD
ENDBRANCH  28  29
ENDBRANCH  27  28
ENDBRANCH  26  27
ENDBRANCH  25  26
ENDBRANCH  21  25
ENDBRANCH  20  21
ENDBRANCH   3  20
TORSDOF 9
ENDMDL
MODEL 7
REMARK VINA RESULT:      -6.5      3.589      6.948
REMARK  Name = 
REMARK  10 active torsions:
REMARK  status: ('A' for Active; 'I' for Inactive)
REMARK    1  A    between atoms: C_1  and  N_2
REMARK    2  A    between atoms: N_2  and  C_13
REMARK    3  A    between atoms: C_3  and  C_5
REMARK    4  A    between atoms: C_5  and  C_6
REMARK    5  A    between atoms: C_6  and  N_7
REMARK    6  A    between atoms: C_6  and  C_8
REMARK    7  A    between atoms: C_8  and  C_9
REMARK    8  A    between atoms: C_9  and  C_10
REMARK    9  A    between atoms: C_10  and  C_11
REMARK   10  A    between atoms: C_11  and  N_12
REMARK                            x       y       z     vdW  Elec       q    Type
REMARK                         _______ _______ _______ _____ _____    ______ ____
ROOT
ATOM      1  C   UNL     1       7.483   6.731  16.803  0.00  0.00    +0.000 C 
ATOM      2  N   UNL     1       6.251   5.953  16.935  0.00  0.00    +0.000 N 
ATOM      3  C   UNL     1       6.007   4.738  16.305  0.00  0.00    +0.000 C 
ATOM      4  O   UNL     1       4.995   4.078  16.557  0.00  0.00    +0.000 OA
ENDROOT
BRANCH   2   5
ATOM      5  C   UNL     1       5.289   6.349  17.989  0.00  0.00    +0.000 C 
ATOM      6  C   UNL     1       3.916   6.675  17.391  0.00  0.00    +0.000 C 
ATOM      7  N   UNL     1       2.796   5.836  17.808  0.00  0.00    +0.000 NA
ATOM      8  C   UNL     1       2.906   5.092  18.838  0.00  0.00    +0.000 C 
ATOM      9  N   UNL     1       1.783   4.424  19.205  0.00  0.00    +0.000 N 
ATOM     10  C   UNL     1       1.632   3.520  20.220  0.00  0.00    +0.000 C 
ATOM     11  N   UNL     1       0.370   3.018  20.306  0.00  0.00    +0.000 N 
ATOM     12  O   UNL     1       2.523   3.154  20.975  0.00  0.00    +0.000 OA
ATOM     13  N   UNL     1       4.029   4.940  19.566  0.00  0.00    +0.000 N 
ATOM     14  C   UNL     1       5.254   5.404  19.186  0.00  0.00    +0.000 C 
ATOM     15  O   UNL     1       6.269   5.026  19.770  0.00  0.00    +0.000 OA
ATOM     16  H   UNL     1       1.003   4.576  18.587  0.00  0.00    +0.000 HD
ATOM     17  H   UNL     1      -0.411   3.622  20.099  0.00  0.00    +0.000 HD
ATOM     18  H   UNL     1       0.224   2.391  21.089  0.00  0.00    +0.000 HD
ATOM     19  H   UNL     1       4.021   4.275  20.336  0.00  0.00    +0.000 HD
ENDBRANCH   2   5
BRANCH   3  20
ATOM     20  C   UNL     1       7.041   4.242  15.315  0.00  0.00    +0.000 C 
BRANCH  20  21
ATOM     21  C   UNL     1       6.885   4.853  13.910  0.00  0.00    +0.000 C 
BRANCH  21  22
ATOM     22  N   UNL     1       8.053   5.663  13.534  0.00  0.00    +0.000 NA
ATOM     23  H   UNL     1       8.245   6.362  14.248  0.00  0.00    +0.000 HD
ATOM     24  H   UNL     1       7.799   6.195  12.692  0.00  0.00    +0.000 HD
ENDBRANCH  21  22
BRANCH  21  25
ATOM     25  C   UNL     1       6.697   3.772  12.831  0.00  0.00    +0.000 C 
BRANCH  25  26
ATOM     26  C   UNL     1       5.232   3.359  12.665  0.00  0.00    +0.000 C 
BRANCH  26  27
ATOM     27  C   UNL     1       5.027   2.456  11.451  0.00  0.00    +0.000 C 
BRANCH  27  28
ATOM     28  C   UNL     1       6.316   1.699  11.136  0.00  0.00    +0.000 C 
BRANCH  28  29
ATOM     29  N   UNL     1       6.149   0.278  11.405  0.00  0.00    +0.000 NA
ATOM     30  H   UNL     1       7.005  -0.218  11.158  0.00  0.00    +0.000 HD
ATOM     31  H   UNL     1       5.418  -0.095  10.800  0.00  0.00    +0.000 HD
ENDBRANCH  28  29
ENDBRANCH  27  28
ENDBRANCH  26  27
ENDBRANCH  25  26
ENDBRANCH  21  25
ENDBRANCH  20  21
ENDBRANCH   3  20
TORSDOF 9
ENDMDL
MODEL 8
REMARK VINA RESULT:      -6.5      1.573      2.307
REMARK  Name = 
REMARK  10 active torsions:
REMARK  status: ('A' for Active; 'I' for Inactive)
REMARK    1  A    between atoms: C_1  and  N_2
REMARK    2  A    between atoms: N_2  and  C_13
REMARK    3  A    between atoms: C_3  and  C_5
REMARK    4  A    between atoms: C_5  and  C_6
REMARK    5  A    between atoms: C_6  and  N_7
REMARK    6  A    between atoms: C_6  and  C_8
REMARK    7  A    between atoms: C_8  and  C_9
REMARK    8  A    between atoms: C_9  and  C_10
REMARK    9  A    between atoms: C_10  and  C_11
REMARK   10  A    between atoms: C_11  and  N_12
REMARK                            x       y       z     vdW  Elec       q    Type
REMARK                         _______ _______ _______ _____ _____    ______ ____
ROOT
ATOM      1  C   UNL     1       5.006   3.264  18.490  0.00  0.00    +0.000 C 
ATOM      2  N   UNL     1       5.243   4.649  18.084  0.00  0.00    +0.000 N 
ATOM      3  C   UNL     1       4.299   5.668  18.146  0.00  0.00    +0.000 C 
ATOM      4  O   UNL     1       4.602   6.839  17.903  0.00  0.00    +0.000 OA
ENDROOT
BRANCH   2   5
ATOM      5  C   UNL     1       6.638   5.066  17.816  0.00  0.00    +0.000 C 
ATOM      6  C   UNL     1       6.754   5.771  16.459  0.00  0.00    +0.000 C 
ATOM      7  N   UNL     1       7.190   7.165  16.472  0.00  0.00    +0.000 NA
ATOM      8  C   UNL     1       7.736   7.652  17.517  0.00  0.00    +0.000 C 
ATOM      9  N   UNL     1       8.197   8.923  17.401  0.00  0.00    +0.000 N 
ATOM     10  C   UNL     1       8.763   9.707  18.368  0.00  0.00    +0.000 C 
ATOM     11  N   UNL     1       9.100  10.948  17.923  0.00  0.00    +0.000 N 
ATOM     12  O   UNL     1       8.940   9.370  19.532  0.00  0.00    +0.000 OA
ATOM     13  N   UNL     1       7.889   7.000  18.685  0.00  0.00    +0.000 N 
ATOM     14  C   UNL     1       7.302   5.803  18.974  0.00  0.00    +0.000 C 
ATOM     15  O   UNL     1       7.284   5.385  20.131  0.00  0.00    +0.000 OA
ATOM     16  H   UNL     1       8.013   9.339  16.504  0.00  0.00    +0.000 HD
ATOM     17  H   UNL     1       9.440  11.052  16.979  0.00  0.00    +0.000 HD
ATOM     18  H   UNL     1       9.574  11.522  18.610  0.00  0.00    +0.000 HD
ATOM     19  H   UNL     1       8.288   7.505  19.473  0.00  0.00    +0.000 HD
ENDBRANCH   2   5
BRANCH   3  20
ATOM     20  C   UNL     1       2.887   5.291  18.547  0.00  0.00    +0.000 C 
BRANCH  20  21
ATOM     21  C   UNL     1       2.570   5.590  20.024  0.00  0.00    +0.000 C 
BRANCH  21  22
ATOM     22  N   UNL     1       2.312   7.019  20.250  0.00  0.00    +0.000 NA
ATOM     23  H   UNL     1       2.779   7.581  19.540  0.00  0.00    +0.000 HD
ATOM     24  H   UNL     1       2.759   7.276  21.138  0.00  0.00    +0.000 HD
ENDBRANCH  21  22
BRANCH  21  25
ATOM     25  C   UNL     1       1.340   4.807  20.518  0.00  0.00    +0.000 C 
BRANCH  25  26
ATOM     26  C   UNL     1       1.719   3.625  21.412  0.00  0.00    +0.000 C 
BRANCH  26  27
ATOM     27  C   UNL     1       1.940   2.347  20.606  0.00  0.00    +0.000 C 
BRANCH  27  28
ATOM     28  C   UNL     1       1.031   2.338  19.378  0.00  0.00    +0.000 C 
BRANCH  28  29
ATOM     29  N   UNL     1       1.731   1.775  18.232  0.00  0.00    +0.000 NA
ATOM     30  H   UNL     1       1.644   0.758  18.246  0.00  0.00    +0.000 HD
ATOM     31  H   UNL     1       2.726   1.977  18.313  0.00  0.00    +0.000 HD
ENDBRANCH  28  29
ENDBRANCH  27  28
ENDBRANCH  26  27
ENDBRANCH  25  26
ENDBRANCH  21  25
ENDBRANCH  20  21
ENDBRANCH   3  20
TORSDOF 9
ENDMDL
MODEL 9
REMARK VINA RESULT:      -6.4      1.241      1.435
REMARK  Name = 
REMARK  10 active torsions:
REMARK  status: ('A' for Active; 'I' for Inactive)
REMARK    1  A    between atoms: C_1  and  N_2
REMARK    2  A    between atoms: N_2  and  C_13
REMARK    3  A    between atoms: C_3  and  C_5
REMARK    4  A    between atoms: C_5  and  C_6
REMARK    5  A    between atoms: C_6  and  N_7
REMARK    6  A    between atoms: C_6  and  C_8
REMARK    7  A    between atoms: C_8  and  C_9
REMARK    8  A    between atoms: C_9  and  C_10
REMARK    9  A    between atoms: C_10  and  C_11
REMARK   10  A    between atoms: C_11  and  N_12
REMARK                            x       y       z     vdW  Elec       q    Type
REMARK                         _______ _______ _______ _____ _____    ______ ____
ROOT
ATOM      1  C   UNL     1       5.376   4.950  19.692  0.00  0.00    +0.000 C 
ATOM      2  N   UNL     1       5.798   4.541  18.353  0.00  0.00    +0.000 N 
ATOM      3  C   UNL     1       5.046   3.755  17.487  0.00  0.00    +0.000 C 
ATOM      4  O   UNL     1       5.411   3.549  16.326  0.00  0.00    +0.000 OA
ENDROOT
BRANCH   2   5
ATOM      5  C   UNL     1       6.993   5.195  17.771  0.00  0.00    +0.000 C 
ATOM      6  C   UNL     1       6.609   6.112  16.603  0.00  0.00    +0.000 C 
ATOM      7  N   UNL     1       6.898   7.535  16.756  0.00  0.00    +0.000 NA
ATOM      8  C   UNL     1       7.701   7.928  17.667  0.00  0.00    +0.000 C 
ATOM      9  N   UNL     1       7.984   9.255  17.669  0.00  0.00    +0.000 N 
ATOM     10  C   UNL     1       8.754   9.952  18.558  0.00  0.00    +0.000 C 
ATOM     11  N   UNL     1       8.818  11.283  18.282  0.00  0.00    +0.000 N 
ATOM     12  O   UNL     1       9.319   9.468  19.530  0.00  0.00    +0.000 OA
ATOM     13  N   UNL     1       8.274   7.131  18.589  0.00  0.00    +0.000 N 
ATOM     14  C   UNL     1       7.919   5.831  18.801  0.00  0.00    +0.000 C 
ATOM     15  O   UNL     1       8.306   5.240  19.809  0.00  0.00    +0.000 OA
ATOM     16  H   UNL     1       7.489   9.774  16.964  0.00  0.00    +0.000 HD
ATOM     17  H   UNL     1       8.831  11.581  17.319  0.00  0.00    +0.000 HD
ATOM     18  H   UNL     1       9.431  11.807  18.896  0.00  0.00    +0.000 HD
ATOM     19  H   UNL     1       8.854   7.560  19.306  0.00  0.00    +0.000 HD
ENDBRANCH   2   5
BRANCH   3  20
ATOM     20  C   UNL     1       3.748   3.178  18.015  0.00  0.00    +0.000 C 
BRANCH  20  21
ATOM     21  C   UNL     1       2.503   3.966  17.568  0.00  0.00    +0.000 C 
BRANCH  21  22
ATOM     22  N   UNL     1       1.269   3.186  17.746  0.00  0.00    +0.000 NA
ATOM     23  H   UNL     1       1.394   2.486  18.474  0.00  0.00    +0.000 HD
ATOM     24  H   UNL     1       1.115   2.654  16.880  0.00  0.00    +0.000 HD
ENDBRANCH  21  22
BRANCH  21  25
ATOM     25  C   UNL     1       2.343   5.281  18.352  0.00  0.00    +0.000 C 
BRANCH  25  26
ATOM     26  C   UNL     1       1.361   5.152  19.519  0.00  0.00    +0.000 C 
BRANCH  26  27
ATOM     27  C   UNL     1       2.079   5.046  20.862  0.00  0.00    +0.000 C 
BRANCH  27  28
ATOM     28  C   UNL     1       2.079   3.597  21.344  0.00  0.00    +0.000 C 
BRANCH  28  29
ATOM     29  N   UNL     1       0.843   2.933  20.955  0.00  0.00    +0.000 NA
ATOM     30  H   UNL     1       0.911   1.937  21.165  0.00  0.00    +0.000 HD
ATOM     31  H   UNL     1       0.726   3.004  19.945  0.00  0.00    +0.000 HD
ENDBRANCH  28  29
ENDBRANCH  27  28
ENDBRANCH  26  27
ENDBRANCH  25  26
ENDBRANCH  21  25
ENDBRANCH  20  21
ENDBRANCH   3  20
TORSDOF 9
ENDMDL
