MODEL 1
REMARK VINA RESULT:      -7.8      0.000      0.000
REMARK  Name = 
REMARK  4 active torsions:
REMARK  status: ('A' for Active; 'I' for Inactive)
REMARK    1  A    between atoms: C_2  and  O_3
REMARK    2  A    between atoms: C_2  and  C_4
REMARK    3  A    between atoms: C_5  and  C_6
REMARK    4  A    between atoms: N_21  and  C_22
REMARK                            x       y       z     vdW  Elec       q    Type
REMARK                         _______ _______ _______ _____ _____    ______ ____
ROOT
ATOM      1  C   UNL     1      -0.743  11.640  20.333  0.00  0.00    +0.000 A 
ATOM      2  C   UNL     1      -1.982  12.203  20.010  0.00  0.00    +0.000 A 
ATOM      3  C   UNL     1      -2.469  11.587  18.816  0.00  0.00    +0.000 A 
ATOM      4  C   UNL     1      -3.642  11.727  18.038  0.00  0.00    +0.000 A 
ATOM      5  C   UNL     1      -3.850  10.911  16.923  0.00  0.00    +0.000 A 
ATOM      6  C   UNL     1      -2.892   9.981  16.549  0.00  0.00    +0.000 A 
ATOM      7  C   UNL     1      -1.716   9.839  17.285  0.00  0.00    +0.000 A 
ATOM      8  C   UNL     1      -1.545  10.616  18.452  0.00  0.00    +0.000 A 
ATOM      9  N   UNL     1      -0.553  10.594  19.433  0.00  0.00    +0.000 N 
ENDROOT
BRANCH   2  10
ATOM     10  C   UNL     1      -2.706  13.153  20.848  0.00  0.00    +0.000 A 
ATOM     11  C   UNL     1      -2.406  14.534  20.779  0.00  0.00    +0.000 A 
ATOM     12  C   UNL     1      -3.106  15.461  21.552  0.00  0.00    +0.000 A 
ATOM     13  C   UNL     1      -4.068  14.973  22.405  0.00  0.00    +0.000 A 
ATOM     14  C   UNL     1      -4.335  13.628  22.510  0.00  0.00    +0.000 A 
ATOM     15  C   UNL     1      -3.680  12.693  21.743  0.00  0.00    +0.000 A 
ATOM     16  O   UNL     1      -5.309  13.360  23.419  0.00  0.00    +0.000 OA
ATOM     17  C   UNL     1      -5.766  14.699  23.702  0.00  0.00    +0.000 C 
ATOM     18  O   UNL     1      -4.869  15.718  23.215  0.00  0.00    +0.000 OA
ENDBRANCH   2  10
BRANCH   9  19
ATOM     19  C   UNL     1       0.435   9.577  19.500  0.00  0.00    +0.000 A 
ATOM     20  C   UNL     1       0.479   8.768  20.667  0.00  0.00    +0.000 A 
ATOM     21  C   UNL     1       1.376   7.701  20.767  0.00  0.00    +0.000 A 
ATOM     22  C   UNL     1       2.195   7.477  19.694  0.00  0.00    +0.000 A 
ATOM     23  C   UNL     1       2.189   8.287  18.577  0.00  0.00    +0.000 A 
ATOM     24  C   UNL     1       1.332   9.362  18.450  0.00  0.00    +0.000 A 
ATOM     25  O   UNL     1       3.085   7.869  17.642  0.00  0.00    +0.000 OA
ATOM     26  C   UNL     1       3.468   6.597  18.206  0.00  0.00    +0.000 C 
ATOM     27  O   UNL     1       3.085   6.453  19.586  0.00  0.00    +0.000 OA
ENDBRANCH   9  19
BRANCH   1  29
ATOM     28  O   UNL     1      -0.121  11.590  22.637  0.00  0.00    +0.000 OA
ATOM     29  C   UNL     1       0.113  11.895  21.478  0.00  0.00    +0.000 C 
BRANCH  29  30
ATOM     30  O   UNL     1       1.261  12.537  21.146  0.00  0.00    +0.000 OA
ATOM     31  H   UNL     1       2.072  12.042  21.366  0.00  0.00    +0.000 HD
ENDBRANCH  29  30
ENDBRANCH   1  29
TORSDOF 4
ENDMDL
MODEL 2
REMARK VINA RESULT:      -7.6      0.616      1.324
REMARK  Name = 
REMARK  4 active torsions:
REMARK  status: ('A' for Active; 'I' for Inactive)
REMARK    1  A    between atoms: C_2  and  O_3
REMARK    2  A    between atoms: C_2  and  C_4
REMARK    3  A    between atoms: C_5  and  C_6
REMARK    4  A    between atoms: N_21  and  C_22
REMARK                            x       y       z     vdW  Elec       q    Type
REMARK                         _______ _______ _______ _____ _____    ______ ____
ROOT
ATOM      1  C   UNL     1      -0.817  11.681  20.419  0.00  0.00    +0.000 A 
ATOM      2  C   UNL     1      -2.062  12.239  20.111  0.00  0.00    +0.000 A 
ATOM      3  C   UNL     1      -2.552  11.635  18.913  0.00  0.00    +0.000 A 
ATOM      4  C   UNL     1      -3.732  11.777  18.144  0.00  0.00    +0.000 A 
ATOM      5  C   UNL     1      -3.941  10.973  17.020  0.00  0.00    +0.000 A 
ATOM      6  C   UNL     1      -2.980  10.054  16.629  0.00  0.00    +0.000 A 
ATOM      7  C   UNL     1      -1.798   9.911  17.356  0.00  0.00    +0.000 A 
ATOM      8  C   UNL     1      -1.624  10.675  18.531  0.00  0.00    +0.000 A 
ATOM      9  N   UNL     1      -0.626  10.647  19.505  0.00  0.00    +0.000 N 
ENDROOT
BRANCH   2  10
ATOM     10  C   UNL     1      -2.786  13.174  20.965  0.00  0.00    +0.000 A 
ATOM     11  C   UNL     1      -3.773  12.699  21.862  0.00  0.00    +0.000 A 
ATOM     12  C   UNL     1      -4.457  13.574  22.707  0.00  0.00    +0.000 A 
ATOM     13  C   UNL     1      -4.159  14.912  22.605  0.00  0.00    +0.000 A 
ATOM     14  C   UNL     1      -3.232  15.386  21.705  0.00  0.00    +0.000 A 
ATOM     15  C   UNL     1      -2.524  14.546  20.878  0.00  0.00    +0.000 A 
ATOM     16  O   UNL     1      -3.100  16.738  21.759  0.00  0.00    +0.000 OA
ATOM     17  C   UNL     1      -3.881  17.022  22.937  0.00  0.00    +0.000 C 
ATOM     18  O   UNL     1      -4.697  15.910  23.358  0.00  0.00    +0.000 OA
ENDBRANCH   2  10
BRANCH   9  19
ATOM     19  C   UNL     1       0.369   9.636  19.553  0.00  0.00    +0.000 A 
ATOM     20  C   UNL     1       0.434   8.821  20.715  0.00  0.00    +0.000 A 
ATOM     21  C   UNL     1       1.338   7.759  20.797  0.00  0.00    +0.000 A 
ATOM     22  C   UNL     1       2.145   7.546  19.711  0.00  0.00    +0.000 A 
ATOM     23  C   UNL     1       2.118   8.362  18.599  0.00  0.00    +0.000 A 
ATOM     24  C   UNL     1       1.253   9.432  18.490  0.00  0.00    +0.000 A 
ATOM     25  O   UNL     1       3.004   7.955  17.650  0.00  0.00    +0.000 OA
ATOM     26  C   UNL     1       3.403   6.683  18.202  0.00  0.00    +0.000 C 
ATOM     27  O   UNL     1       3.039   6.528  19.586  0.00  0.00    +0.000 OA
ENDBRANCH   9  19
BRANCH   1  29
ATOM     28  O   UNL     1      -0.179  11.604  22.718  0.00  0.00    +0.000 OA
ATOM     29  C   UNL     1       0.045  11.927  21.561  0.00  0.00    +0.000 C 
BRANCH  29  30
ATOM     30  O   UNL     1       1.185  12.583  21.231  0.00  0.00    +0.000 OA
ATOM     31  H   UNL     1       1.397  12.557  20.280  0.00  0.00    +0.000 HD
ENDBRANCH  29  30
ENDBRANCH   1  29
TORSDOF 4
ENDMDL
MODEL 3
REMARK VINA RESULT:      -7.5      1.818      7.875
REMARK  Name = 
REMARK  4 active torsions:
REMARK  status: ('A' for Active; 'I' for Inactive)
REMARK    1  A    between atoms: C_2  and  O_3
REMARK    2  A    between atoms: C_2  and  C_4
REMARK    3  A    between atoms: C_5  and  C_6
REMARK    4  A    between atoms: N_21  and  C_22
REMARK                            x       y       z     vdW  Elec       q    Type
REMARK                         _______ _______ _______ _____ _____    ______ ____
ROOT
ATOM      1  C   UNL     1      -0.059   9.935  21.342  0.00  0.00    +0.000 A 
ATOM      2  C   UNL     1       0.117   9.337  20.088  0.00  0.00    +0.000 A 
ATOM      3  C   UNL     1      -0.716  10.008  19.141  0.00  0.00    +0.000 A 
ATOM      4  C   UNL     1      -0.948   9.865  17.752  0.00  0.00    +0.000 A 
ATOM      5  C   UNL     1      -1.808  10.743  17.087  0.00  0.00    +0.000 A 
ATOM      6  C   UNL     1      -2.469  11.740  17.789  0.00  0.00    +0.000 A 
ATOM      7  C   UNL     1      -2.276  11.887  19.162  0.00  0.00    +0.000 A 
ATOM      8  C   UNL     1      -1.351  11.043  19.815  0.00  0.00    +0.000 A 
ATOM      9  N   UNL     1      -0.870  11.046  21.124  0.00  0.00    +0.000 N 
ENDROOT
BRANCH   2  10
ATOM     10  C   UNL     1       1.100   8.302  19.793  0.00  0.00    +0.000 A 
ATOM     11  C   UNL     1       1.204   7.163  20.626  0.00  0.00    +0.000 A 
ATOM     12  C   UNL     1       2.119   6.147  20.344  0.00  0.00    +0.000 A 
ATOM     13  C   UNL     1       2.935   6.318  19.251  0.00  0.00    +0.000 A 
ATOM     14  C   UNL     1       2.869   7.444  18.462  0.00  0.00    +0.000 A 
ATOM     15  C   UNL     1       1.961   8.448  18.699  0.00  0.00    +0.000 A 
ATOM     16  O   UNL     1       3.770   7.418  17.444  0.00  0.00    +0.000 OA
ATOM     17  C   UNL     1       4.246   6.062  17.561  0.00  0.00    +0.000 C 
ATOM     18  O   UNL     1       3.866   5.433  18.802  0.00  0.00    +0.000 OA
ENDBRANCH   2  10
BRANCH   9  19
ATOM     19  C   UNL     1      -1.136  12.102  22.035  0.00  0.00    +0.000 A 
ATOM     20  C   UNL     1      -0.254  13.216  22.039  0.00  0.00    +0.000 A 
ATOM     21  C   UNL     1      -0.500  14.322  22.857  0.00  0.00    +0.000 A 
ATOM     22  C   UNL     1      -1.623  14.278  23.639  0.00  0.00    +0.000 A 
ATOM     23  C   UNL     1      -2.457  13.179  23.675  0.00  0.00    +0.000 A 
ATOM     24  C   UNL     1      -2.236  12.061  22.897  0.00  0.00    +0.000 A 
ATOM     25  O   UNL     1      -3.506  13.366  24.522  0.00  0.00    +0.000 OA
ATOM     26  C   UNL     1      -3.347  14.769  24.819  0.00  0.00    +0.000 C 
ATOM     27  O   UNL     1      -2.055  15.282  24.450  0.00  0.00    +0.000 OA
ENDBRANCH   9  19
BRANCH   1  29
ATOM     28  O   UNL     1       1.809   9.683  22.807  0.00  0.00    +0.000 OA
ATOM     29  C   UNL     1       0.606   9.645  22.600  0.00  0.00    +0.000 C 
BRANCH  29  30
ATOM     30  O   UNL     1      -0.260   9.305  23.587  0.00  0.00    +0.000 OA
ATOM     31  H   UNL     1      -1.064   9.855  23.618  0.00  0.00    +0.000 HD
ENDBRANCH  29  30
ENDBRANCH   1  29
TORSDOF 4
ENDMDL
MODEL 4
REMARK VINA RESULT:      -7.4      1.834      7.737
REMARK  Name = 
REMARK  4 active torsions:
REMARK  status: ('A' for Active; 'I' for Inactive)
REMARK    1  A    between atoms: C_2  and  O_3
REMARK    2  A    between atoms: C_2  and  C_4
REMARK    3  A    between atoms: C_5  and  C_6
REMARK    4  A    between atoms: N_21  and  C_22
REMARK                            x       y       z     vdW  Elec       q    Type
REMARK                         _______ _______ _______ _____ _____    ______ ____
ROOT
ATOM      1  C   UNL     1      -0.052  10.015  21.208  0.00  0.00    +0.000 A 
ATOM      2  C   UNL     1       0.086   9.466  19.928  0.00  0.00    +0.000 A 
ATOM      3  C   UNL     1      -0.830  10.119  19.048  0.00  0.00    +0.000 A 
ATOM      4  C   UNL     1      -1.129  10.007  17.669  0.00  0.00    +0.000 A 
ATOM      5  C   UNL     1      -2.068  10.857  17.080  0.00  0.00    +0.000 A 
ATOM      6  C   UNL     1      -2.741  11.795  17.848  0.00  0.00    +0.000 A 
ATOM      7  C   UNL     1      -2.482  11.911  19.213  0.00  0.00    +0.000 A 
ATOM      8  C   UNL     1      -1.480  11.098  19.788  0.00  0.00    +0.000 A 
ATOM      9  N   UNL     1      -0.930  11.087  21.070  0.00  0.00    +0.000 N 
ENDROOT
BRANCH   2  10
ATOM     10  C   UNL     1       1.104   8.493  19.548  0.00  0.00    +0.000 A 
ATOM     11  C   UNL     1       1.914   8.720  18.410  0.00  0.00    +0.000 A 
ATOM     12  C   UNL     1       2.912   7.816  18.047  0.00  0.00    +0.000 A 
ATOM     13  C   UNL     1       3.049   6.683  18.815  0.00  0.00    +0.000 A 
ATOM     14  C   UNL     1       2.236   6.435  19.896  0.00  0.00    +0.000 A 
ATOM     15  C   UNL     1       1.261   7.319  20.294  0.00  0.00    +0.000 A 
ATOM     16  O   UNL     1       2.529   5.256  20.507  0.00  0.00    +0.000 OA
ATOM     17  C   UNL     1       3.750   4.912  19.820  0.00  0.00    +0.000 C 
ATOM     18  O   UNL     1       3.975   5.703  18.635  0.00  0.00    +0.000 OA
ENDBRANCH   2  10
BRANCH   9  19
ATOM     19  C   UNL     1      -1.201  12.099  22.028  0.00  0.00    +0.000 A 
ATOM     20  C   UNL     1      -0.337  13.226  22.068  0.00  0.00    +0.000 A 
ATOM     21  C   UNL     1      -0.589  14.293  22.935  0.00  0.00    +0.000 A 
ATOM     22  C   UNL     1      -1.701  14.198  23.728  0.00  0.00    +0.000 A 
ATOM     23  C   UNL     1      -2.517  13.086  23.727  0.00  0.00    +0.000 A 
ATOM     24  C   UNL     1      -2.289  12.004  22.900  0.00  0.00    +0.000 A 
ATOM     25  O   UNL     1      -3.558  13.219  24.594  0.00  0.00    +0.000 OA
ATOM     26  C   UNL     1      -3.418  14.611  24.949  0.00  0.00    +0.000 C 
ATOM     27  O   UNL     1      -2.138  15.160  24.586  0.00  0.00    +0.000 OA
ENDBRANCH   9  19
BRANCH   1  29
ATOM     28  O   UNL     1       1.901   9.828  22.567  0.00  0.00    +0.000 OA
ATOM     29  C   UNL     1       0.693   9.723  22.419  0.00  0.00    +0.000 C 
BRANCH  29  30
ATOM     30  O   UNL     1      -0.097   9.297  23.436  0.00  0.00    +0.000 OA
ATOM     31  H   UNL     1       0.222   8.488  23.876  0.00  0.00    +0.000 HD
ENDBRANCH  29  30
ENDBRANCH   1  29
TORSDOF 4
ENDMDL
MODEL 5
REMARK VINA RESULT:      -7.4      1.566      1.926
REMARK  Name = 
REMARK  4 active torsions:
REMARK  status: ('A' for Active; 'I' for Inactive)
REMARK    1  A    between atoms: C_2  and  O_3
REMARK    2  A    between atoms: C_2  and  C_4
REMARK    3  A    between atoms: C_5  and  C_6
REMARK    4  A    between atoms: N_21  and  C_22
REMARK                            x       y       z     vdW  Elec       q    Type
REMARK                         _______ _______ _______ _____ _____    ______ ____
ROOT
ATOM      1  C   UNL     1       0.361  12.077  19.376  0.00  0.00    +0.000 A 
ATOM      2  C   UNL     1      -0.854  12.761  19.251  0.00  0.00    +0.000 A 
ATOM      3  C   UNL     1      -1.787  11.916  18.575  0.00  0.00    +0.000 A 
ATOM      4  C   UNL     1      -3.141  12.049  18.187  0.00  0.00    +0.000 A 
ATOM      5  C   UNL     1      -3.806  10.985  17.572  0.00  0.00    +0.000 A 
ATOM      6  C   UNL     1      -3.135   9.801  17.305  0.00  0.00    +0.000 A 
ATOM      7  C   UNL     1      -1.794   9.653  17.656  0.00  0.00    +0.000 A 
ATOM      8  C   UNL     1      -1.147  10.705  18.342  0.00  0.00    +0.000 A 
ATOM      9  N   UNL     1       0.120  10.784  18.918  0.00  0.00    +0.000 N 
ENDROOT
BRANCH   2  10
ATOM     10  C   UNL     1      -1.141  14.059  19.848  0.00  0.00    +0.000 A 
ATOM     11  C   UNL     1      -0.614  15.239  19.272  0.00  0.00    +0.000 A 
ATOM     12  C   UNL     1      -0.900  16.493  19.812  0.00  0.00    +0.000 A 
ATOM     13  C   UNL     1      -1.680  16.530  20.944  0.00  0.00    +0.000 A 
ATOM     14  C   UNL     1      -2.160  15.384  21.535  0.00  0.00    +0.000 A 
ATOM     15  C   UNL     1      -1.916  14.136  21.011  0.00  0.00    +0.000 A 
ATOM     16  O   UNL     1      -2.896  15.643  22.649  0.00  0.00    +0.000 OA
ATOM     17  C   UNL     1      -3.002  17.078  22.554  0.00  0.00    +0.000 C 
ATOM     18  O   UNL     1      -2.087  17.652  21.598  0.00  0.00    +0.000 OA
ENDBRANCH   2  10
BRANCH   9  19
ATOM     19  C   UNL     1       0.967   9.654  19.063  0.00  0.00    +0.000 A 
ATOM     20  C   UNL     1       0.908   8.930  20.283  0.00  0.00    +0.000 A 
ATOM     21  C   UNL     1       1.659   7.765  20.464  0.00  0.00    +0.000 A 
ATOM     22  C   UNL     1       2.440   7.362  19.414  0.00  0.00    +0.000 A 
ATOM     23  C   UNL     1       2.538   8.087  18.244  0.00  0.00    +0.000 A 
ATOM     24  C   UNL     1       1.827   9.252  18.036  0.00  0.00    +0.000 A 
ATOM     25  O   UNL     1       3.370   7.491  17.347  0.00  0.00    +0.000 OA
ATOM     26  C   UNL     1       3.586   6.223  18.000  0.00  0.00    +0.000 C 
ATOM     27  O   UNL     1       3.189   6.226  19.384  0.00  0.00    +0.000 OA
ENDBRANCH   9  19
BRANCH   1  29
ATOM     28  O   UNL     1       1.810  12.460  21.234  0.00  0.00    +0.000 OA
ATOM     29  C   UNL     1       1.587  12.493  20.034  0.00  0.00    +0.000 C 
BRANCH  29  30
ATOM     30  O   UNL     1       2.522  12.952  19.165  0.00  0.00    +0.000 OA
ATOM     31  H   UNL     1       3.233  12.313  18.972  0.00  0.00    +0.000 HD
ENDBRANCH  29  30
ENDBRANCH   1  29
TORSDOF 4
ENDMDL
MODEL 6
REMARK VINA RESULT:      -7.4      1.955      2.688
REMARK  Name = 
REMARK  4 active torsions:
REMARK  status: ('A' for Active; 'I' for Inactive)
REMARK    1  A    between atoms: C_2  and  O_3
REMARK    2  A    between atoms: C_2  and  C_4
REMARK    3  A    between atoms: C_5  and  C_6
REMARK    4  A    between atoms: N_21  and  C_22
REMARK                            x       y       z     vdW  Elec       q    Type
REMARK                         _______ _______ _______ _____ _____    ______ ____
ROOT
ATOM      1  C   UNL     1       0.365  12.097  19.381  0.00  0.00    +0.000 A 
ATOM      2  C   UNL     1      -0.849  12.784  19.274  0.00  0.00    +0.000 A 
ATOM      3  C   UNL     1      -1.800  11.938  18.625  0.00  0.00    +0.000 A 
ATOM      4  C   UNL     1      -3.161  12.074  18.263  0.00  0.00    +0.000 A 
ATOM      5  C   UNL     1      -3.842  11.007  17.671  0.00  0.00    +0.000 A 
ATOM      6  C   UNL     1      -3.182   9.818  17.401  0.00  0.00    +0.000 A 
ATOM      7  C   UNL     1      -1.834   9.667  17.726  0.00  0.00    +0.000 A 
ATOM      8  C   UNL     1      -1.170  10.722  18.390  0.00  0.00    +0.000 A 
ATOM      9  N   UNL     1       0.110  10.801  18.939  0.00  0.00    +0.000 N 
ENDROOT
BRANCH   2  10
ATOM     10  C   UNL     1      -1.119  14.089  19.866  0.00  0.00    +0.000 A 
ATOM     11  C   UNL     1      -1.945  14.194  21.010  0.00  0.00    +0.000 A 
ATOM     12  C   UNL     1      -2.192  15.431  21.608  0.00  0.00    +0.000 A 
ATOM     13  C   UNL     1      -1.631  16.540  21.019  0.00  0.00    +0.000 A 
ATOM     14  C   UNL     1      -0.863  16.450  19.882  0.00  0.00    +0.000 A 
ATOM     15  C   UNL     1      -0.581  15.244  19.285  0.00  0.00    +0.000 A 
ATOM     16  O   UNL     1      -0.419  17.664  19.458  0.00  0.00    +0.000 OA
ATOM     17  C   UNL     1      -0.812  18.482  20.578  0.00  0.00    +0.000 C 
ATOM     18  O   UNL     1      -1.736  17.820  21.467  0.00  0.00    +0.000 OA
ENDBRANCH   2  10
BRANCH   9  19
ATOM     19  C   UNL     1       0.955   9.669  19.076  0.00  0.00    +0.000 A 
ATOM     20  C   UNL     1       0.904   8.944  20.298  0.00  0.00    +0.000 A 
ATOM     21  C   UNL     1       1.653   7.777  20.471  0.00  0.00    +0.000 A 
ATOM     22  C   UNL     1       2.424   7.372  19.415  0.00  0.00    +0.000 A 
ATOM     23  C   UNL     1       2.514   8.097  18.244  0.00  0.00    +0.000 A 
ATOM     24  C   UNL     1       1.804   9.264  18.043  0.00  0.00    +0.000 A 
ATOM     25  O   UNL     1       3.337   7.499  17.339  0.00  0.00    +0.000 OA
ATOM     26  C   UNL     1       3.554   6.231  17.991  0.00  0.00    +0.000 C 
ATOM     27  O   UNL     1       3.170   6.235  19.378  0.00  0.00    +0.000 OA
ENDBRANCH   9  19
BRANCH   1  29
ATOM     28  O   UNL     1       1.850  12.494  21.207  0.00  0.00    +0.000 OA
ATOM     29  C   UNL     1       1.605  12.513  20.010  0.00  0.00    +0.000 C 
BRANCH  29  30
ATOM     30  O   UNL     1       2.527  12.955  19.118  0.00  0.00    +0.000 OA
ATOM     31  H   UNL     1       3.392  13.172  19.515  0.00  0.00    +0.000 HD
ENDBRANCH  29  30
ENDBRANCH   1  29
TORSDOF 4
ENDMDL
MODEL 7
REMARK VINA RESULT:      -7.3      1.981      7.730
REMARK  Name = 
REMARK  4 active torsions:
REMARK  status: ('A' for Active; 'I' for Inactive)
REMARK    1  A    between atoms: C_2  and  O_3
REMARK    2  A    between atoms: C_2  and  C_4
REMARK    3  A    between atoms: C_5  and  C_6
REMARK    4  A    between atoms: N_21  and  C_22
REMARK                            x       y       z     vdW  Elec       q    Type
REMARK                         _______ _______ _______ _____ _____    ______ ____
ROOT
ATOM      1  C   UNL     1      -0.181   9.952  21.366  0.00  0.00    +0.000 A 
ATOM      2  C   UNL     1       0.027   9.356  20.117  0.00  0.00    +0.000 A 
ATOM      3  C   UNL     1      -0.792  10.018  19.151  0.00  0.00    +0.000 A 
ATOM      4  C   UNL     1      -0.992   9.872  17.758  0.00  0.00    +0.000 A 
ATOM      5  C   UNL     1      -1.847  10.741  17.075  0.00  0.00    +0.000 A 
ATOM      6  C   UNL     1      -2.533  11.731  17.761  0.00  0.00    +0.000 A 
ATOM      7  C   UNL     1      -2.371  11.880  19.138  0.00  0.00    +0.000 A 
ATOM      8  C   UNL     1      -1.451  11.046  19.812  0.00  0.00    +0.000 A 
ATOM      9  N   UNL     1      -0.999  11.055  21.131  0.00  0.00    +0.000 N 
ENDROOT
BRANCH   2  10
ATOM     10  C   UNL     1       1.027   8.331  19.844  0.00  0.00    +0.000 A 
ATOM     11  C   UNL     1       1.161   7.219  20.710  0.00  0.00    +0.000 A 
ATOM     12  C   UNL     1       2.092   6.213  20.449  0.00  0.00    +0.000 A 
ATOM     13  C   UNL     1       2.895   6.367  19.344  0.00  0.00    +0.000 A 
ATOM     14  C   UNL     1       2.801   7.466  18.522  0.00  0.00    +0.000 A 
ATOM     15  C   UNL     1       1.875   8.460  18.738  0.00  0.00    +0.000 A 
ATOM     16  O   UNL     1       3.693   7.427  17.497  0.00  0.00    +0.000 OA
ATOM     17  C   UNL     1       4.195   6.084  17.650  0.00  0.00    +0.000 C 
ATOM     18  O   UNL     1       3.838   5.486  18.914  0.00  0.00    +0.000 OA
ENDBRANCH   2  10
BRANCH   9  19
ATOM     19  C   UNL     1      -1.296  12.108  22.035  0.00  0.00    +0.000 A 
ATOM     20  C   UNL     1      -2.465  11.990  22.834  0.00  0.00    +0.000 A 
ATOM     21  C   UNL     1      -2.776  12.953  23.798  0.00  0.00    +0.000 A 
ATOM     22  C   UNL     1      -1.903  13.999  23.933  0.00  0.00    +0.000 A 
ATOM     23  C   UNL     1      -0.792  14.143  23.128  0.00  0.00    +0.000 A 
ATOM     24  C   UNL     1      -0.462  13.224  22.153  0.00  0.00    +0.000 A 
ATOM     25  O   UNL     1      -0.075  15.256  23.448  0.00  0.00    +0.000 OA
ATOM     26  C   UNL     1      -0.737  15.643  24.671  0.00  0.00    +0.000 C 
ATOM     27  O   UNL     1      -2.009  14.995  24.854  0.00  0.00    +0.000 OA
ENDBRANCH   9  19
BRANCH   1  29
ATOM     28  O   UNL     1       1.650   9.772  22.887  0.00  0.00    +0.000 OA
ATOM     29  C   UNL     1       0.459   9.670  22.639  0.00  0.00    +0.000 C 
BRANCH  29  30
ATOM     30  O   UNL     1      -0.417   9.256  23.589  0.00  0.00    +0.000 OA
ATOM     31  H   UNL     1      -0.046   9.240  24.491  0.00  0.00    +0.000 HD
ENDBRANCH  29  30
ENDBRANCH   1  29
TORSDOF 4
ENDMDL
MODEL 8
REMARK VINA RESULT:      -7.3      1.924      7.576
REMARK  Name = 
REMARK  4 active torsions:
REMARK  status: ('A' for Active; 'I' for Inactive)
REMARK    1  A    between atoms: C_2  and  O_3
REMARK    2  A    between atoms: C_2  and  C_4
REMARK    3  A    between atoms: C_5  and  C_6
REMARK    4  A    between atoms: N_21  and  C_22
REMARK                            x       y       z     vdW  Elec       q    Type
REMARK                         _______ _______ _______ _____ _____    ______ ____
ROOT
ATOM      1  C   UNL     1      -0.158  10.090  21.087  0.00  0.00    +0.000 A 
ATOM      2  C   UNL     1       0.005   9.554  19.805  0.00  0.00    +0.000 A 
ATOM      3  C   UNL     1      -0.934  10.176  18.926  0.00  0.00    +0.000 A 
ATOM      4  C   UNL     1      -1.224  10.059  17.546  0.00  0.00    +0.000 A 
ATOM      5  C   UNL     1      -2.195  10.875  16.958  0.00  0.00    +0.000 A 
ATOM      6  C   UNL     1      -2.907  11.781  17.729  0.00  0.00    +0.000 A 
ATOM      7  C   UNL     1      -2.656  11.899  19.096  0.00  0.00    +0.000 A 
ATOM      8  C   UNL     1      -1.624  11.124  19.670  0.00  0.00    +0.000 A 
ATOM      9  N   UNL     1      -1.078  11.127  20.953  0.00  0.00    +0.000 N 
ENDROOT
BRANCH   2  10
ATOM     10  C   UNL     1       1.062   8.625  19.422  0.00  0.00    +0.000 A 
ATOM     11  C   UNL     1       1.853   8.881  18.278  0.00  0.00    +0.000 A 
ATOM     12  C   UNL     1       2.888   8.019  17.912  0.00  0.00    +0.000 A 
ATOM     13  C   UNL     1       3.078   6.898  18.684  0.00  0.00    +0.000 A 
ATOM     14  C   UNL     1       2.284   6.619  19.773  0.00  0.00    +0.000 A 
ATOM     15  C   UNL     1       1.275   7.463  20.173  0.00  0.00    +0.000 A 
ATOM     16  O   UNL     1       2.633   5.458  20.387  0.00  0.00    +0.000 OA
ATOM     17  C   UNL     1       3.863   5.164  19.694  0.00  0.00    +0.000 C 
ATOM     18  O   UNL     1       4.046   5.958  18.503  0.00  0.00    +0.000 OA
ENDBRANCH   2  10
BRANCH   9  19
ATOM     19  C   UNL     1      -1.391  12.122  21.916  0.00  0.00    +0.000 A 
ATOM     20  C   UNL     1      -2.567  11.948  22.695  0.00  0.00    +0.000 A 
ATOM     21  C   UNL     1      -2.894  12.849  23.711  0.00  0.00    +0.000 A 
ATOM     22  C   UNL     1      -2.031  13.892  23.917  0.00  0.00    +0.000 A 
ATOM     23  C   UNL     1      -0.913  14.093  23.133  0.00  0.00    +0.000 A 
ATOM     24  C   UNL     1      -0.568  13.235  22.108  0.00  0.00    +0.000 A 
ATOM     25  O   UNL     1      -0.209  15.189  23.526  0.00  0.00    +0.000 OA
ATOM     26  C   UNL     1      -0.885  15.498  24.763  0.00  0.00    +0.000 C 
ATOM     27  O   UNL     1      -2.153  14.830  24.895  0.00  0.00    +0.000 OA
ENDBRANCH   9  19
BRANCH   1  29
ATOM     28  O   UNL     1       1.796   9.977  22.453  0.00  0.00    +0.000 OA
ATOM     29  C   UNL     1       0.595   9.821  22.299  0.00  0.00    +0.000 C 
BRANCH  29  30
ATOM     30  O   UNL     1      -0.180   9.353  23.309  0.00  0.00    +0.000 OA
ATOM     31  H   UNL     1      -0.707  10.040  23.758  0.00  0.00    +0.000 HD
ENDBRANCH  29  30
ENDBRANCH   1  29
TORSDOF 4
ENDMDL
MODEL 9
REMARK VINA RESULT:      -7.3      1.125      7.605
REMARK  Name = 
REMARK  4 active torsions:
REMARK  status: ('A' for Active; 'I' for Inactive)
REMARK    1  A    between atoms: C_2  and  O_3
REMARK    2  A    between atoms: C_2  and  C_4
REMARK    3  A    between atoms: C_5  and  C_6
REMARK    4  A    between atoms: N_21  and  C_22
REMARK                            x       y       z     vdW  Elec       q    Type
REMARK                         _______ _______ _______ _____ _____    ______ ____
ROOT
ATOM      1  C   UNL     1      -0.358  10.833  20.339  0.00  0.00    +0.000 A 
ATOM      2  C   UNL     1      -0.267  10.004  19.215  0.00  0.00    +0.000 A 
ATOM      3  C   UNL     1      -1.376  10.273  18.356  0.00  0.00    +0.000 A 
ATOM      4  C   UNL     1      -1.801   9.773  17.103  0.00  0.00    +0.000 A 
ATOM      5  C   UNL     1      -2.936  10.300  16.481  0.00  0.00    +0.000 A 
ATOM      6  C   UNL     1      -3.676  11.295  17.104  0.00  0.00    +0.000 A 
ATOM      7  C   UNL     1      -3.292  11.788  18.350  0.00  0.00    +0.000 A 
ATOM      8  C   UNL     1      -2.104  11.302  18.940  0.00  0.00    +0.000 A 
ATOM      9  N   UNL     1      -1.423  11.696  20.091  0.00  0.00    +0.000 N 
ENDROOT
BRANCH   2  10
ATOM     10  C   UNL     1       0.859   9.126  18.921  0.00  0.00    +0.000 A 
ATOM     11  C   UNL     1       1.707   9.401  17.822  0.00  0.00    +0.000 A 
ATOM     12  C   UNL     1       2.806   8.588  17.541  0.00  0.00    +0.000 A 
ATOM     13  C   UNL     1       3.007   7.495  18.350  0.00  0.00    +0.000 A 
ATOM     14  C   UNL     1       2.161   7.197  19.394  0.00  0.00    +0.000 A 
ATOM     15  C   UNL     1       1.086   7.992  19.711  0.00  0.00    +0.000 A 
ATOM     16  O   UNL     1       2.532   6.068  20.056  0.00  0.00    +0.000 OA
ATOM     17  C   UNL     1       3.817   5.828  19.447  0.00  0.00    +0.000 C 
ATOM     18  O   UNL     1       4.032   6.606  18.252  0.00  0.00    +0.000 OA
ENDBRANCH   2  10
BRANCH   9  19
ATOM     19  C   UNL     1      -1.761  12.867  20.819  0.00  0.00    +0.000 A 
ATOM     20  C   UNL     1      -1.227  14.106  20.373  0.00  0.00    +0.000 A 
ATOM     21  C   UNL     1      -1.580  15.305  20.997  0.00  0.00    +0.000 A 
ATOM     22  C   UNL     1      -2.459  15.224  22.044  0.00  0.00    +0.000 A 
ATOM     23  C   UNL     1      -2.945  14.020  22.510  0.00  0.00    +0.000 A 
ATOM     24  C   UNL     1      -2.604  12.814  21.933  0.00  0.00    +0.000 A 
ATOM     25  O   UNL     1      -3.803  14.189  23.554  0.00  0.00    +0.000 OA
ATOM     26  C   UNL     1      -3.964  15.623  23.522  0.00  0.00    +0.000 C 
ATOM     27  O   UNL     1      -2.962  16.286  22.730  0.00  0.00    +0.000 OA
ENDBRANCH   9  19
BRANCH   1  29
ATOM     28  O   UNL     1       0.499  10.363  22.517  0.00  0.00    +0.000 OA
ATOM     29  C   UNL     1       0.557  10.969  21.458  0.00  0.00    +0.000 C 
BRANCH  29  30
ATOM     30  O   UNL     1       1.540  11.875  21.229  0.00  0.00    +0.000 OA
ATOM     31  H   UNL     1       2.433  11.488  21.174  0.00  0.00    +0.000 HD
ENDBRANCH  29  30
ENDBRANCH   1  29
TORSDOF 4
ENDMDL
