MODEL 1
REMARK VINA RESULT:      -8.7      0.000      0.000
REMARK  Name = 
REMARK  4 active torsions:
REMARK  status: ('A' for Active; 'I' for Inactive)
REMARK    1  A    between atoms: C_6  and  S_7
REMARK    2  A    between atoms: S_7  and  N_10
REMARK    3  A    between atoms: N_19  and  C_20
REMARK    4  A    between atoms: C_20  and  C_21
REMARK                            x       y       z     vdW  Elec       q    Type
REMARK                         _______ _______ _______ _____ _____    ______ ____
ROOT
ATOM      1  O   UNL     1      -0.111  11.427  21.641  0.00  0.00    +0.000 OA
ATOM      2  C   UNL     1       0.436  10.491  21.078  0.00  0.00    +0.000 A 
ATOM      3  S   UNL     1       0.999   9.057  21.948  0.00  0.00    +0.000 S 
ATOM      4  C   UNL     1       1.575   8.318  20.449  0.00  0.00    +0.000 A 
ATOM      5  C   UNL     1       2.166   7.077  20.314  0.00  0.00    +0.000 A 
ATOM      6  C   UNL     1       2.550   6.671  19.032  0.00  0.00    +0.000 A 
ATOM      7  C   UNL     1       2.387   7.522  17.927  0.00  0.00    +0.000 A 
ATOM      8  C   UNL     1       1.784   8.777  18.088  0.00  0.00    +0.000 A 
ATOM      9  C   UNL     1       1.357   9.162  19.357  0.00  0.00    +0.000 A 
ATOM     10  N   UNL     1       0.710  10.362  19.721  0.00  0.00    +0.000 N 
ENDROOT
BRANCH   6  11
ATOM     11  S   UNL     1       3.348   5.092  18.845  0.00  0.00    +0.000 S 
ATOM     12  O   UNL     1       2.779   4.203  19.833  0.00  0.00    +0.000 OA
ATOM     13  O   UNL     1       3.332   4.765  17.439  0.00  0.00    +0.000 OA
BRANCH  11  14
ATOM     14  N   UNL     1       4.920   5.430  19.380  0.00  0.00    +0.000 N 
ATOM     15  C   UNL     1       5.852   5.414  18.317  0.00  0.00    +0.000 A 
ATOM     16  N   UNL     1       6.675   4.406  18.174  0.00  0.00    +0.000 NA
ATOM     17  C   UNL     1       7.448   4.669  17.050  0.00  0.00    +0.000 A 
ATOM     18  N   UNL     1       7.349   5.838  16.416  0.00  0.00    +0.000 NA
ATOM     19  S   UNL     1       6.141   6.686  17.207  0.00  0.00    +0.000 S 
ATOM     20  H   UNL     1       5.160   4.693  20.045  0.00  0.00    +0.000 HD
ENDBRANCH  11  14
ENDBRANCH   6  11
BRANCH  10  21
ATOM     21  C   UNL     1       0.210  11.347  18.783  0.00  0.00    +0.000 C 
BRANCH  21  22
ATOM     22  C   UNL     1      -1.223  11.066  18.383  0.00  0.00    +0.000 A 
ATOM     23  C   UNL     1      -1.512  10.071  17.434  0.00  0.00    +0.000 A 
ATOM     24  C   UNL     1      -2.821   9.863  16.996  0.00  0.00    +0.000 A 
ATOM     25  C   UNL     1      -3.858  10.644  17.501  0.00  0.00    +0.000 A 
ATOM     26  C   UNL     1      -3.587  11.621  18.457  0.00  0.00    +0.000 A 
ATOM     27  C   UNL     1      -2.279  11.830  18.897  0.00  0.00    +0.000 A 
ENDBRANCH  21  22
ENDBRANCH  10  21
TORSDOF 4
ENDMDL
MODEL 2
REMARK VINA RESULT:      -8.3      2.246      8.148
REMARK  Name = 
REMARK  4 active torsions:
REMARK  status: ('A' for Active; 'I' for Inactive)
REMARK    1  A    between atoms: C_6  and  S_7
REMARK    2  A    between atoms: S_7  and  N_10
REMARK    3  A    between atoms: N_19  and  C_20
REMARK    4  A    between atoms: C_20  and  C_21
REMARK                            x       y       z     vdW  Elec       q    Type
REMARK                         _______ _______ _______ _____ _____    ______ ____
ROOT
ATOM      1  O   UNL     1       3.495   3.607  19.676  0.00  0.00    +0.000 OA
ATOM      2  C   UNL     1       3.074   4.749  19.564  0.00  0.00    +0.000 A 
ATOM      3  S   UNL     1       2.016   5.494  20.771  0.00  0.00    +0.000 S 
ATOM      4  C   UNL     1       1.958   7.003  19.852  0.00  0.00    +0.000 A 
ATOM      5  C   UNL     1       1.288   8.159  20.205  0.00  0.00    +0.000 A 
ATOM      6  C   UNL     1       1.370   9.253  19.338  0.00  0.00    +0.000 A 
ATOM      7  C   UNL     1       2.067   9.160  18.123  0.00  0.00    +0.000 A 
ATOM      8  C   UNL     1       2.741   7.977  17.786  0.00  0.00    +0.000 A 
ATOM      9  C   UNL     1       2.699   6.903  18.673  0.00  0.00    +0.000 A 
ATOM     10  N   UNL     1       3.326   5.647  18.532  0.00  0.00    +0.000 N 
ENDROOT
BRANCH   6  11
ATOM     11  S   UNL     1       0.481  10.737  19.757  0.00  0.00    +0.000 S 
ATOM     12  O   UNL     1      -0.699  10.338  20.493  0.00  0.00    +0.000 OA
ATOM     13  O   UNL     1       1.435  11.668  20.310  0.00  0.00    +0.000 OA
BRANCH  11  14
ATOM     14  N   UNL     1      -0.073  11.252  18.240  0.00  0.00    +0.000 N 
ATOM     15  C   UNL     1      -1.422  10.887  18.023  0.00  0.00    +0.000 A 
ATOM     16  N   UNL     1      -1.718   9.898  17.217  0.00  0.00    +0.000 NA
ATOM     17  C   UNL     1      -3.101   9.775  17.218  0.00  0.00    +0.000 A 
ATOM     18  N   UNL     1      -3.863  10.659  17.863  0.00  0.00    +0.000 NA
ATOM     19  S   UNL     1      -2.800  11.713  18.617  0.00  0.00    +0.000 S 
ATOM     20  H   UNL     1       0.514  10.786  17.548  0.00  0.00    +0.000 HD
ENDBRANCH  11  14
ENDBRANCH   6  11
BRANCH  10  21
ATOM     21  C   UNL     1       4.287   5.314  17.500  0.00  0.00    +0.000 C 
BRANCH  21  22
ATOM     22  C   UNL     1       5.666   5.851  17.821  0.00  0.00    +0.000 A 
ATOM     23  C   UNL     1       6.412   5.303  18.878  0.00  0.00    +0.000 A 
ATOM     24  C   UNL     1       7.645   5.847  19.237  0.00  0.00    +0.000 A 
ATOM     25  C   UNL     1       8.152   6.944  18.544  0.00  0.00    +0.000 A 
ATOM     26  C   UNL     1       7.432   7.485  17.482  0.00  0.00    +0.000 A 
ATOM     27  C   UNL     1       6.197   6.942  17.120  0.00  0.00    +0.000 A 
ENDBRANCH  21  22
ENDBRANCH  10  21
TORSDOF 4
ENDMDL
MODEL 3
REMARK VINA RESULT:      -8.2      2.242      2.930
REMARK  Name = 
REMARK  4 active torsions:
REMARK  status: ('A' for Active; 'I' for Inactive)
REMARK    1  A    between atoms: C_6  and  S_7
REMARK    2  A    between atoms: S_7  and  N_10
REMARK    3  A    between atoms: N_19  and  C_20
REMARK    4  A    between atoms: C_20  and  C_21
REMARK                            x       y       z     vdW  Elec       q    Type
REMARK                         _______ _______ _______ _____ _____    ______ ____
ROOT
ATOM      1  O   UNL     1      -0.881  11.368  21.915  0.00  0.00    +0.000 OA
ATOM      2  C   UNL     1      -0.200  10.611  21.240  0.00  0.00    +0.000 A 
ATOM      3  S   UNL     1       0.534   9.145  21.906  0.00  0.00    +0.000 S 
ATOM      4  C   UNL     1       1.238   8.732  20.338  0.00  0.00    +0.000 A 
ATOM      5  C   UNL     1       1.996   7.615  20.042  0.00  0.00    +0.000 A 
ATOM      6  C   UNL     1       2.461   7.469  18.731  0.00  0.00    +0.000 A 
ATOM      7  C   UNL     1       2.209   8.454  17.762  0.00  0.00    +0.000 A 
ATOM      8  C   UNL     1       1.437   9.579  18.086  0.00  0.00    +0.000 A 
ATOM      9  C   UNL     1       0.933   9.701  19.379  0.00  0.00    +0.000 A 
ATOM     10  N   UNL     1       0.121  10.734  19.892  0.00  0.00    +0.000 N 
ENDROOT
BRANCH   6  11
ATOM     11  S   UNL     1       3.470   6.057  18.341  0.00  0.00    +0.000 S 
ATOM     12  O   UNL     1       4.251   6.397  17.171  0.00  0.00    +0.000 OA
ATOM     13  O   UNL     1       4.099   5.626  19.566  0.00  0.00    +0.000 OA
BRANCH  11  14
ATOM     14  N   UNL     1       2.314   4.936  17.814  0.00  0.00    +0.000 N 
ATOM     15  C   UNL     1       2.096   3.918  18.771  0.00  0.00    +0.000 A 
ATOM     16  N   UNL     1       2.587   2.718  18.584  0.00  0.00    +0.000 NA
ATOM     17  C   UNL     1       2.220   1.954  19.684  0.00  0.00    +0.000 A 
ATOM     18  N   UNL     1       1.403   2.449  20.614  0.00  0.00    +0.000 NA
ATOM     19  S   UNL     1       1.101   4.033  20.160  0.00  0.00    +0.000 S 
ATOM     20  H   UNL     1       2.689   4.518  16.962  0.00  0.00    +0.000 HD
ENDBRANCH  11  14
ENDBRANCH   6  11
BRANCH  10  21
ATOM     21  C   UNL     1      -0.488  11.780  19.094  0.00  0.00    +0.000 C 
BRANCH  21  22
ATOM     22  C   UNL     1      -1.872  11.391  18.619  0.00  0.00    +0.000 A 
ATOM     23  C   UNL     1      -2.031  10.420  17.616  0.00  0.00    +0.000 A 
ATOM     24  C   UNL     1      -3.296  10.118  17.111  0.00  0.00    +0.000 A 
ATOM     25  C   UNL     1      -4.419  10.778  17.603  0.00  0.00    +0.000 A 
ATOM     26  C   UNL     1      -4.278  11.730  18.611  0.00  0.00    +0.000 A 
ATOM     27  C   UNL     1      -3.013  12.033  19.118  0.00  0.00    +0.000 A 
ENDBRANCH  21  22
ENDBRANCH  10  21
TORSDOF 4
ENDMDL
MODEL 4
REMARK VINA RESULT:      -8.1      1.123      1.171
REMARK  Name = 
REMARK  4 active torsions:
REMARK  status: ('A' for Active; 'I' for Inactive)
REMARK    1  A    between atoms: C_6  and  S_7
REMARK    2  A    between atoms: S_7  and  N_10
REMARK    3  A    between atoms: N_19  and  C_20
REMARK    4  A    between atoms: C_20  and  C_21
REMARK                            x       y       z     vdW  Elec       q    Type
REMARK                         _______ _______ _______ _____ _____    ______ ____
ROOT
ATOM      1  O   UNL     1      -0.668  11.430  22.080  0.00  0.00    +0.000 OA
ATOM      2  C   UNL     1      -0.053  10.638  21.382  0.00  0.00    +0.000 A 
ATOM      3  S   UNL     1       0.666   9.158  22.033  0.00  0.00    +0.000 S 
ATOM      4  C   UNL     1       1.263   8.693  20.436  0.00  0.00    +0.000 A 
ATOM      5  C   UNL     1       1.962   7.544  20.118  0.00  0.00    +0.000 A 
ATOM      6  C   UNL     1       2.345   7.359  18.786  0.00  0.00    +0.000 A 
ATOM      7  C   UNL     1       2.072   8.335  17.814  0.00  0.00    +0.000 A 
ATOM      8  C   UNL     1       1.360   9.493  18.160  0.00  0.00    +0.000 A 
ATOM      9  C   UNL     1       0.937   9.655  19.477  0.00  0.00    +0.000 A 
ATOM     10  N   UNL     1       0.192  10.726  20.016  0.00  0.00    +0.000 N 
ENDROOT
BRANCH   6  11
ATOM     11  S   UNL     1       3.281   5.905  18.366  0.00  0.00    +0.000 S 
ATOM     12  O   UNL     1       4.077   5.557  19.522  0.00  0.00    +0.000 OA
ATOM     13  O   UNL     1       2.366   4.961  17.770  0.00  0.00    +0.000 OA
BRANCH  11  14
ATOM     14  N   UNL     1       4.372   6.511  17.220  0.00  0.00    +0.000 N 
ATOM     15  C   UNL     1       5.646   5.909  17.339  0.00  0.00    +0.000 A 
ATOM     16  N   UNL     1       6.643   6.572  17.873  0.00  0.00    +0.000 NA
ATOM     17  C   UNL     1       7.744   5.725  17.862  0.00  0.00    +0.000 A 
ATOM     18  N   UNL     1       7.682   4.536  17.262  0.00  0.00    +0.000 NA
ATOM     19  S   UNL     1       6.105   4.381  16.717  0.00  0.00    +0.000 S 
ATOM     20  H   UNL     1       4.456   7.511  17.406  0.00  0.00    +0.000 HD
ENDBRANCH  11  14
ENDBRANCH   6  11
BRANCH  10  21
ATOM     21  C   UNL     1      -0.424  11.779  19.234  0.00  0.00    +0.000 C 
BRANCH  21  22
ATOM     22  C   UNL     1      -1.806  11.387  18.756  0.00  0.00    +0.000 A 
ATOM     23  C   UNL     1      -1.964  10.372  17.797  0.00  0.00    +0.000 A 
ATOM     24  C   UNL     1      -3.226  10.064  17.287  0.00  0.00    +0.000 A 
ATOM     25  C   UNL     1      -4.347  10.763  17.728  0.00  0.00    +0.000 A 
ATOM     26  C   UNL     1      -4.207  11.759  18.692  0.00  0.00    +0.000 A 
ATOM     27  C   UNL     1      -2.945  12.069  19.205  0.00  0.00    +0.000 A 
ENDBRANCH  21  22
ENDBRANCH  10  21
TORSDOF 4
ENDMDL
MODEL 5
REMARK VINA RESULT:      -8.1      2.026      2.850
REMARK  Name = 
REMARK  4 active torsions:
REMARK  status: ('A' for Active; 'I' for Inactive)
REMARK    1  A    between atoms: C_6  and  S_7
REMARK    2  A    between atoms: S_7  and  N_10
REMARK    3  A    between atoms: N_19  and  C_20
REMARK    4  A    between atoms: C_20  and  C_21
REMARK                            x       y       z     vdW  Elec       q    Type
REMARK                         _______ _______ _______ _____ _____    ______ ____
ROOT
ATOM      1  O   UNL     1      -0.941  11.371  21.837  0.00  0.00    +0.000 OA
ATOM      2  C   UNL     1      -0.244  10.611  21.181  0.00  0.00    +0.000 A 
ATOM      3  S   UNL     1       0.484   9.155  21.873  0.00  0.00    +0.000 S 
ATOM      4  C   UNL     1       1.216   8.730  20.321  0.00  0.00    +0.000 A 
ATOM      5  C   UNL     1       1.983   7.614  20.048  0.00  0.00    +0.000 A 
ATOM      6  C   UNL     1       2.470   7.457  18.746  0.00  0.00    +0.000 A 
ATOM      7  C   UNL     1       2.230   8.431  17.764  0.00  0.00    +0.000 A 
ATOM      8  C   UNL     1       1.448   9.556  18.064  0.00  0.00    +0.000 A 
ATOM      9  C   UNL     1       0.922   9.688  19.348  0.00  0.00    +0.000 A 
ATOM     10  N   UNL     1       0.097  10.723  19.837  0.00  0.00    +0.000 N 
ENDROOT
BRANCH   6  11
ATOM     11  S   UNL     1       3.493   6.046  18.387  0.00  0.00    +0.000 S 
ATOM     12  O   UNL     1       2.661   5.073  17.714  0.00  0.00    +0.000 OA
ATOM     13  O   UNL     1       4.711   6.538  17.788  0.00  0.00    +0.000 OA
BRANCH  11  14
ATOM     14  N   UNL     1       3.778   5.418  19.935  0.00  0.00    +0.000 N 
ATOM     15  C   UNL     1       2.973   4.286  20.199  0.00  0.00    +0.000 A 
ATOM     16  N   UNL     1       1.938   4.383  20.996  0.00  0.00    +0.000 NA
ATOM     17  C   UNL     1       1.348   3.126  21.048  0.00  0.00    +0.000 A 
ATOM     18  N   UNL     1       1.923   2.080  20.452  0.00  0.00    +0.000 NA
ATOM     19  S   UNL     1       3.280   2.684  19.679  0.00  0.00    +0.000 S 
ATOM     20  H   UNL     1       3.537   6.160  20.593  0.00  0.00    +0.000 HD
ENDBRANCH  11  14
ENDBRANCH   6  11
BRANCH  10  21
ATOM     21  C   UNL     1      -0.502  11.757  19.019  0.00  0.00    +0.000 C 
BRANCH  21  22
ATOM     22  C   UNL     1      -1.881  11.362  18.533  0.00  0.00    +0.000 A 
ATOM     23  C   UNL     1      -2.028  10.366  17.553  0.00  0.00    +0.000 A 
ATOM     24  C   UNL     1      -3.287  10.056  17.037  0.00  0.00    +0.000 A 
ATOM     25  C   UNL     1      -4.415  10.733  17.494  0.00  0.00    +0.000 A 
ATOM     26  C   UNL     1      -4.285  11.709  18.480  0.00  0.00    +0.000 A 
ATOM     27  C   UNL     1      -3.027  12.021  18.999  0.00  0.00    +0.000 A 
ENDBRANCH  21  22
ENDBRANCH  10  21
TORSDOF 4
ENDMDL
MODEL 6
REMARK VINA RESULT:      -8.0      1.060      1.503
REMARK  Name = 
REMARK  4 active torsions:
REMARK  status: ('A' for Active; 'I' for Inactive)
REMARK    1  A    between atoms: C_6  and  S_7
REMARK    2  A    between atoms: S_7  and  N_10
REMARK    3  A    between atoms: N_19  and  C_20
REMARK    4  A    between atoms: C_20  and  C_21
REMARK                            x       y       z     vdW  Elec       q    Type
REMARK                         _______ _______ _______ _____ _____    ______ ____
ROOT
ATOM      1  O   UNL     1      -0.380  11.498  21.824  0.00  0.00    +0.000 OA
ATOM      2  C   UNL     1       0.197  10.602  21.227  0.00  0.00    +0.000 A 
ATOM      3  S   UNL     1       0.767   9.136  22.037  0.00  0.00    +0.000 S 
ATOM      4  C   UNL     1       1.390   8.485  20.516  0.00  0.00    +0.000 A 
ATOM      5  C   UNL     1       2.007   7.262  20.332  0.00  0.00    +0.000 A 
ATOM      6  C   UNL     1       2.427   6.929  19.040  0.00  0.00    +0.000 A 
ATOM      7  C   UNL     1       2.274   7.832  17.977  0.00  0.00    +0.000 A 
ATOM      8  C   UNL     1       1.643   9.067  18.187  0.00  0.00    +0.000 A 
ATOM      9  C   UNL     1       1.181   9.379  19.463  0.00  0.00    +0.000 A 
ATOM     10  N   UNL     1       0.504  10.548  19.872  0.00  0.00    +0.000 N 
ENDROOT
BRANCH   6  11
ATOM     11  S   UNL     1       3.259   5.376  18.793  0.00  0.00    +0.000 S 
ATOM     12  O   UNL     1       4.355   5.320  19.735  0.00  0.00    +0.000 OA
ATOM     13  O   UNL     1       2.247   4.347  18.752  0.00  0.00    +0.000 OA
BRANCH  11  14
ATOM     14  N   UNL     1       3.970   5.599  17.271  0.00  0.00    +0.000 N 
ATOM     15  C   UNL     1       5.357   5.853  17.372  0.00  0.00    +0.000 A 
ATOM     16  N   UNL     1       5.824   7.064  17.191  0.00  0.00    +0.000 NA
ATOM     17  C   UNL     1       7.200   6.998  17.364  0.00  0.00    +0.000 A 
ATOM     18  N   UNL     1       7.808   5.825  17.542  0.00  0.00    +0.000 NA
ATOM     19  S   UNL     1       6.587   4.679  17.584  0.00  0.00    +0.000 S 
ATOM     20  H   UNL     1       3.512   6.412  16.858  0.00  0.00    +0.000 HD
ENDBRANCH  11  14
ENDBRANCH   6  11
BRANCH  10  21
ATOM     21  C   UNL     1       0.007  11.570  18.973  0.00  0.00    +0.000 C 
BRANCH  21  22
ATOM     22  C   UNL     1      -1.407  11.277  18.516  0.00  0.00    +0.000 A 
ATOM     23  C   UNL     1      -2.481  12.045  18.994  0.00  0.00    +0.000 A 
ATOM     24  C   UNL     1      -3.794  11.729  18.646  0.00  0.00    +0.000 A 
ATOM     25  C   UNL     1      -4.053  10.643  17.813  0.00  0.00    +0.000 A 
ATOM     26  C   UNL     1      -2.995   9.885  17.315  0.00  0.00    +0.000 A 
ATOM     27  C   UNL     1      -1.680  10.200  17.662  0.00  0.00    +0.000 A 
ENDBRANCH  21  22
ENDBRANCH  10  21
TORSDOF 4
ENDMDL
MODEL 7
REMARK VINA RESULT:      -8.0      2.188      8.137
REMARK  Name = 
REMARK  4 active torsions:
REMARK  status: ('A' for Active; 'I' for Inactive)
REMARK    1  A    between atoms: C_6  and  S_7
REMARK    2  A    between atoms: S_7  and  N_10
REMARK    3  A    between atoms: N_19  and  C_20
REMARK    4  A    between atoms: C_20  and  C_21
REMARK                            x       y       z     vdW  Elec       q    Type
REMARK                         _______ _______ _______ _____ _____    ______ ____
ROOT
ATOM      1  O   UNL     1       3.565   2.513  19.252  0.00  0.00    +0.000 OA
ATOM      2  C   UNL     1       3.158   3.652  19.423  0.00  0.00    +0.000 A 
ATOM      3  S   UNL     1       2.185   4.111  20.827  0.00  0.00    +0.000 S 
ATOM      4  C   UNL     1       2.098   5.788  20.274  0.00  0.00    +0.000 A 
ATOM      5  C   UNL     1       1.469   6.838  20.915  0.00  0.00    +0.000 A 
ATOM      6  C   UNL     1       1.518   8.098  20.310  0.00  0.00    +0.000 A 
ATOM      7  C   UNL     1       2.141   8.276  19.065  0.00  0.00    +0.000 A 
ATOM      8  C   UNL     1       2.774   7.197  18.433  0.00  0.00    +0.000 A 
ATOM      9  C   UNL     1       2.767   5.952  19.059  0.00  0.00    +0.000 A 
ATOM     10  N   UNL     1       3.364   4.757  18.604  0.00  0.00    +0.000 N 
ENDROOT
BRANCH   6  11
ATOM     11  S   UNL     1       0.680   9.453  21.103  0.00  0.00    +0.000 S 
ATOM     12  O   UNL     1      -0.712   9.082  21.230  0.00  0.00    +0.000 OA
ATOM     13  O   UNL     1       1.466   9.833  22.252  0.00  0.00    +0.000 OA
BRANCH  11  14
ATOM     14  N   UNL     1       0.732  10.646  19.901  0.00  0.00    +0.000 N 
ATOM     15  C   UNL     1      -0.563  11.004  19.460  0.00  0.00    +0.000 A 
ATOM     16  N   UNL     1      -1.004  10.588  18.298  0.00  0.00    +0.000 NA
ATOM     17  C   UNL     1      -2.293  11.085  18.153  0.00  0.00    +0.000 A 
ATOM     18  N   UNL     1      -2.802  11.928  19.052  0.00  0.00    +0.000 NA
ATOM     19  S   UNL     1      -1.637  12.083  20.245  0.00  0.00    +0.000 S 
ATOM     20  H   UNL     1       1.251  10.243  19.120  0.00  0.00    +0.000 HD
ENDBRANCH  11  14
ENDBRANCH   6  11
BRANCH  10  21
ATOM     21  C   UNL     1       4.257   4.661  17.467  0.00  0.00    +0.000 C 
BRANCH  21  22
ATOM     22  C   UNL     1       5.559   5.393  17.712  0.00  0.00    +0.000 A 
ATOM     23  C   UNL     1       6.364   5.059  18.814  0.00  0.00    +0.000 A 
ATOM     24  C   UNL     1       7.522   5.785  19.097  0.00  0.00    +0.000 A 
ATOM     25  C   UNL     1       7.893   6.852  18.281  0.00  0.00    +0.000 A 
ATOM     26  C   UNL     1       7.114   7.181  17.174  0.00  0.00    +0.000 A 
ATOM     27  C   UNL     1       5.956   6.455  16.888  0.00  0.00    +0.000 A 
ENDBRANCH  21  22
ENDBRANCH  10  21
TORSDOF 4
ENDMDL
MODEL 8
REMARK VINA RESULT:      -8.0      1.579      2.865
REMARK  Name = 
REMARK  4 active torsions:
REMARK  status: ('A' for Active; 'I' for Inactive)
REMARK    1  A    between atoms: C_6  and  S_7
REMARK    2  A    between atoms: S_7  and  N_10
REMARK    3  A    between atoms: N_19  and  C_20
REMARK    4  A    between atoms: C_20  and  C_21
REMARK                            x       y       z     vdW  Elec       q    Type
REMARK                         _______ _______ _______ _____ _____    ______ ____
ROOT
ATOM      1  O   UNL     1      -0.358  11.440  21.477  0.00  0.00    +0.000 OA
ATOM      2  C   UNL     1       0.240  10.512  20.952  0.00  0.00    +0.000 A 
ATOM      3  S   UNL     1       0.734   9.071  21.851  0.00  0.00    +0.000 S 
ATOM      4  C   UNL     1       1.439   8.352  20.398  0.00  0.00    +0.000 A 
ATOM      5  C   UNL     1       2.046   7.115  20.301  0.00  0.00    +0.000 A 
ATOM      6  C   UNL     1       2.540   6.726  19.052  0.00  0.00    +0.000 A 
ATOM      7  C   UNL     1       2.469   7.589  17.947  0.00  0.00    +0.000 A 
ATOM      8  C   UNL     1       1.847   8.839  18.070  0.00  0.00    +0.000 A 
ATOM      9  C   UNL     1       1.312   9.207  19.302  0.00  0.00    +0.000 A 
ATOM     10  N   UNL     1       0.630  10.401  19.622  0.00  0.00    +0.000 N 
ENDROOT
BRANCH   6  11
ATOM     11  S   UNL     1       3.360   5.152  18.916  0.00  0.00    +0.000 S 
ATOM     12  O   UNL     1       2.819   4.295  19.949  0.00  0.00    +0.000 OA
ATOM     13  O   UNL     1       3.327   4.767  17.525  0.00  0.00    +0.000 OA
BRANCH  11  14
ATOM     14  N   UNL     1       4.935   5.534  19.412  0.00  0.00    +0.000 N 
ATOM     15  C   UNL     1       5.850   5.489  18.335  0.00  0.00    +0.000 A 
ATOM     16  N   UNL     1       6.686   4.488  18.219  0.00  0.00    +0.000 NA
ATOM     17  C   UNL     1       7.437   4.716  17.073  0.00  0.00    +0.000 A 
ATOM     18  N   UNL     1       7.310   5.857  16.394  0.00  0.00    +0.000 NA
ATOM     19  S   UNL     1       6.101   6.719  17.170  0.00  0.00    +0.000 S 
ATOM     20  H   UNL     1       5.196   4.829  20.102  0.00  0.00    +0.000 HD
ENDBRANCH  11  14
ENDBRANCH   6  11
BRANCH  10  21
ATOM     21  C   UNL     1       0.207  11.395  18.656  0.00  0.00    +0.000 C 
BRANCH  21  22
ATOM     22  C   UNL     1       1.079  12.631  18.702  0.00  0.00    +0.000 A 
ATOM     23  C   UNL     1       0.549  13.857  19.136  0.00  0.00    +0.000 A 
ATOM     24  C   UNL     1       1.320  15.020  19.101  0.00  0.00    +0.000 A 
ATOM     25  C   UNL     1       2.632  14.973  18.635  0.00  0.00    +0.000 A 
ATOM     26  C   UNL     1       3.177  13.759  18.220  0.00  0.00    +0.000 A 
ATOM     27  C   UNL     1       2.407  12.595  18.255  0.00  0.00    +0.000 A 
ENDBRANCH  21  22
ENDBRANCH  10  21
TORSDOF 4
ENDMDL
MODEL 9
REMARK VINA RESULT:      -7.9      2.576      8.048
REMARK  Name = 
REMARK  4 active torsions:
REMARK  status: ('A' for Active; 'I' for Inactive)
REMARK    1  A    between atoms: C_6  and  S_7
REMARK    2  A    between atoms: S_7  and  N_10
REMARK    3  A    between atoms: N_19  and  C_20
REMARK    4  A    between atoms: C_20  and  C_21
REMARK                            x       y       z     vdW  Elec       q    Type
REMARK                         _______ _______ _______ _____ _____    ______ ____
ROOT
ATOM      1  O   UNL     1       3.768   2.758  19.155  0.00  0.00    +0.000 OA
ATOM      2  C   UNL     1       3.280   3.858  19.364  0.00  0.00    +0.000 A 
ATOM      3  S   UNL     1       2.288   4.203  20.787  0.00  0.00    +0.000 S 
ATOM      4  C   UNL     1       2.075   5.885  20.286  0.00  0.00    +0.000 A 
ATOM      5  C   UNL     1       1.377   6.866  20.964  0.00  0.00    +0.000 A 
ATOM      6  C   UNL     1       1.330   8.144  20.398  0.00  0.00    +0.000 A 
ATOM      7  C   UNL     1       1.929   8.406  19.155  0.00  0.00    +0.000 A 
ATOM      8  C   UNL     1       2.633   7.394  18.486  0.00  0.00    +0.000 A 
ATOM      9  C   UNL     1       2.721   6.134  19.073  0.00  0.00    +0.000 A 
ATOM     10  N   UNL     1       3.399   4.999  18.578  0.00  0.00    +0.000 N 
ENDROOT
BRANCH   6  11
ATOM     11  S   UNL     1       0.403   9.410  21.237  0.00  0.00    +0.000 S 
ATOM     12  O   UNL     1      -0.563   8.745  22.084  0.00  0.00    +0.000 OA
ATOM     13  O   UNL     1       1.352  10.354  21.776  0.00  0.00    +0.000 OA
BRANCH  11  14
ATOM     14  N   UNL     1      -0.489  10.090  19.967  0.00  0.00    +0.000 N 
ATOM     15  C   UNL     1      -0.164  11.452  19.768  0.00  0.00    +0.000 A 
ATOM     16  N   UNL     1      -0.989  12.392  20.159  0.00  0.00    +0.000 NA
ATOM     17  C   UNL     1      -0.397  13.608  19.843  0.00  0.00    +0.000 A 
ATOM     18  N   UNL     1       0.740  13.650  19.147  0.00  0.00    +0.000 NA
ATOM     19  S   UNL     1       1.191  12.054  18.911  0.00  0.00    +0.000 S 
ATOM     20  H   UNL     1      -1.470  10.017  20.235  0.00  0.00    +0.000 HD
ENDBRANCH  11  14
ENDBRANCH   6  11
BRANCH  10  21
ATOM     21  C   UNL     1       4.287   5.003  17.433  0.00  0.00    +0.000 C 
BRANCH  21  22
ATOM     22  C   UNL     1       5.622   5.639  17.759  0.00  0.00    +0.000 A 
ATOM     23  C   UNL     1       6.396   5.155  18.827  0.00  0.00    +0.000 A 
ATOM     24  C   UNL     1       7.585   5.788  19.189  0.00  0.00    +0.000 A 
ATOM     25  C   UNL     1       8.019   6.911  18.489  0.00  0.00    +0.000 A 
ATOM     26  C   UNL     1       7.271   7.390  17.416  0.00  0.00    +0.000 A 
ATOM     27  C   UNL     1       6.081   6.758  17.051  0.00  0.00    +0.000 A 
ENDBRANCH  21  22
ENDBRANCH  10  21
TORSDOF 4
ENDMDL
