MODEL 1
REMARK VINA RESULT:      -7.3      0.000      0.000
REMARK  Name = 
REMARK  5 active torsions:
REMARK  status: ('A' for Active; 'I' for Inactive)
REMARK    1  A    between atoms: C_1  and  O_2
REMARK    2  A    between atoms: O_2  and  C_3
REMARK    3  A    between atoms: C_3  and  C_4
REMARK    4  A    between atoms: C_7  and  C_8
REMARK    5  A    between atoms: C_8  and  N_9
REMARK                            x       y       z     vdW  Elec       q    Type
REMARK                         _______ _______ _______ _____ _____    ______ ____
ROOT
ATOM      1  N   UNL     1       4.774   3.882  16.582  0.00  0.00    +0.000 N 
ATOM      2  C   UNL     1       3.838   4.467  17.377  0.00  0.00    +0.000 A 
ATOM      3  N   UNL     1       3.599   5.751  17.566  0.00  0.00    +0.000 NA
ATOM      4  N   UNL     1       2.585   5.881  18.489  0.00  0.00    +0.000 NA
ATOM      5  C   UNL     1       2.198   4.672  18.829  0.00  0.00    +0.000 A 
ATOM      6  C   UNL     1       1.199   4.195  19.721  0.00  0.00    +0.000 A 
ATOM      7  C   UNL     1       0.994   2.869  19.843  0.00  0.00    +0.000 A 
ATOM      8  C   UNL     1       1.774   1.905  19.077  0.00  0.00    +0.000 A 
ATOM      9  C   UNL     1       2.731   2.354  18.247  0.00  0.00    +0.000 A 
ATOM     10  N   UNL     1       2.944   3.730  18.135  0.00  0.00    +0.000 N 
ATOM     11  H   UNL     1       5.183   3.011  16.907  0.00  0.00    +0.000 HD
ENDROOT
BRANCH   1  12
ATOM     12  C   UNL     1       5.789   4.746  15.981  0.00  0.00    +0.000 C 
BRANCH  12  16
ATOM     13  C   UNL     1       7.578   7.308  17.751  0.00  0.00    +0.000 A 
ATOM     14  C   UNL     1       7.931   6.276  18.597  0.00  0.00    +0.000 A 
ATOM     15  C   UNL     1       7.310   5.110  18.092  0.00  0.00    +0.000 A 
ATOM     16  C   UNL     1       6.606   5.498  16.973  0.00  0.00    +0.000 A 
ATOM     17  O   UNL     1       6.761   6.840  16.761  0.00  0.00    +0.000 OA
BRANCH  13  18
ATOM     18  C   UNL     1       7.922   8.750  17.725  0.00  0.00    +0.000 C 
BRANCH  18  20
ATOM     19  C   UNL     1       9.132  10.345  18.971  0.00  0.00    +0.000 C 
ATOM     20  O   UNL     1       8.841   8.968  18.795  0.00  0.00    +0.000 OA
ENDBRANCH  18  20
ENDBRANCH  13  18
ENDBRANCH  12  16
ENDBRANCH   1  12
TORSDOF 4
ENDMDL
MODEL 2
REMARK VINA RESULT:      -7.2      3.374      5.301
REMARK  Name = 
REMARK  5 active torsions:
REMARK  status: ('A' for Active; 'I' for Inactive)
REMARK    1  A    between atoms: C_1  and  O_2
REMARK    2  A    between atoms: O_2  and  C_3
REMARK    3  A    between atoms: C_3  and  C_4
REMARK    4  A    between atoms: C_7  and  C_8
REMARK    5  A    between atoms: C_8  and  N_9
REMARK                            x       y       z     vdW  Elec       q    Type
REMARK                         _______ _______ _______ _____ _____    ______ ____
ROOT
ATOM      1  N   UNL     1       5.113   4.417  16.206  0.00  0.00    +0.000 N 
ATOM      2  C   UNL     1       5.007   4.087  17.521  0.00  0.00    +0.000 A 
ATOM      3  N   UNL     1       5.914   4.187  18.474  0.00  0.00    +0.000 NA
ATOM      4  N   UNL     1       5.382   3.696  19.646  0.00  0.00    +0.000 NA
ATOM      5  C   UNL     1       4.144   3.330  19.398  0.00  0.00    +0.000 A 
ATOM      6  C   UNL     1       3.123   2.771  20.214  0.00  0.00    +0.000 A 
ATOM      7  C   UNL     1       1.907   2.527  19.685  0.00  0.00    +0.000 A 
ATOM      8  C   UNL     1       1.611   2.826  18.291  0.00  0.00    +0.000 A 
ATOM      9  C   UNL     1       2.581   3.339  17.514  0.00  0.00    +0.000 A 
ATOM     10  N   UNL     1       3.841   3.578  18.067  0.00  0.00    +0.000 N 
ATOM     11  H   UNL     1       4.602   3.844  15.540  0.00  0.00    +0.000 HD
ENDROOT
BRANCH   1  12
ATOM     12  C   UNL     1       6.440   4.759  15.697  0.00  0.00    +0.000 C 
BRANCH  12  16
ATOM     13  C   UNL     1       6.095   3.525  12.342  0.00  0.00    +0.000 A 
ATOM     14  C   UNL     1       7.213   4.295  12.097  0.00  0.00    +0.000 A 
ATOM     15  C   UNL     1       7.550   4.919  13.320  0.00  0.00    +0.000 A 
ATOM     16  C   UNL     1       6.613   4.501  14.240  0.00  0.00    +0.000 A 
ATOM     17  O   UNL     1       5.717   3.653  13.649  0.00  0.00    +0.000 OA
BRANCH  13  18
ATOM     18  C   UNL     1       5.286   2.625  11.485  0.00  0.00    +0.000 C 
BRANCH  18  20
ATOM     19  C   UNL     1       3.426   3.536  10.358  0.00  0.00    +0.000 C 
ATOM     20  O   UNL     1       3.933   3.065  11.596  0.00  0.00    +0.000 OA
ENDBRANCH  18  20
ENDBRANCH  13  18
ENDBRANCH  12  16
ENDBRANCH   1  12
TORSDOF 4
ENDMDL
MODEL 3
REMARK VINA RESULT:      -7.1      1.543      2.145
REMARK  Name = 
REMARK  5 active torsions:
REMARK  status: ('A' for Active; 'I' for Inactive)
REMARK    1  A    between atoms: C_1  and  O_2
REMARK    2  A    between atoms: O_2  and  C_3
REMARK    3  A    between atoms: C_3  and  C_4
REMARK    4  A    between atoms: C_7  and  C_8
REMARK    5  A    between atoms: C_8  and  N_9
REMARK                            x       y       z     vdW  Elec       q    Type
REMARK                         _______ _______ _______ _____ _____    ______ ____
ROOT
ATOM      1  N   UNL     1       4.550   2.787  17.518  0.00  0.00    +0.000 N 
ATOM      2  C   UNL     1       3.250   3.023  17.844  0.00  0.00    +0.000 A 
ATOM      3  N   UNL     1       2.239   3.325  17.052  0.00  0.00    +0.000 NA
ATOM      4  N   UNL     1       1.115   3.518  17.823  0.00  0.00    +0.000 NA
ATOM      5  C   UNL     1       1.448   3.302  19.075  0.00  0.00    +0.000 A 
ATOM      6  C   UNL     1       0.711   3.344  20.290  0.00  0.00    +0.000 A 
ATOM      7  C   UNL     1       1.321   3.031  21.450  0.00  0.00    +0.000 A 
ATOM      8  C   UNL     1       2.725   2.645  21.492  0.00  0.00    +0.000 A 
ATOM      9  C   UNL     1       3.428   2.623  20.346  0.00  0.00    +0.000 A 
ATOM     10  N   UNL     1       2.791   2.959  19.149  0.00  0.00    +0.000 N 
ATOM     11  H   UNL     1       5.258   3.082  18.183  0.00  0.00    +0.000 HD
ENDROOT
BRANCH   1  12
ATOM     12  C   UNL     1       4.966   3.072  16.145  0.00  0.00    +0.000 C 
BRANCH  12  16
ATOM     13  C   UNL     1       7.080   5.899  16.804  0.00  0.00    +0.000 A 
ATOM     14  C   UNL     1       7.447   5.751  15.482  0.00  0.00    +0.000 A 
ATOM     15  C   UNL     1       6.724   4.643  14.984  0.00  0.00    +0.000 A 
ATOM     16  C   UNL     1       5.963   4.173  16.033  0.00  0.00    +0.000 A 
ATOM     17  O   UNL     1       6.180   4.932  17.149  0.00  0.00    +0.000 OA
BRANCH  13  18
ATOM     18  C   UNL     1       7.463   6.877  17.851  0.00  0.00    +0.000 C 
BRANCH  18  20
ATOM     19  C   UNL     1       8.244   9.096  18.013  0.00  0.00    +0.000 C 
ATOM     20  O   UNL     1       7.575   8.143  17.202  0.00  0.00    +0.000 OA
ENDBRANCH  18  20
ENDBRANCH  13  18
ENDBRANCH  12  16
ENDBRANCH   1  12
TORSDOF 4
ENDMDL
MODEL 4
REMARK VINA RESULT:      -7.1      3.181      5.089
REMARK  Name = 
REMARK  5 active torsions:
REMARK  status: ('A' for Active; 'I' for Inactive)
REMARK    1  A    between atoms: C_1  and  O_2
REMARK    2  A    between atoms: O_2  and  C_3
REMARK    3  A    between atoms: C_3  and  C_4
REMARK    4  A    between atoms: C_7  and  C_8
REMARK    5  A    between atoms: C_8  and  N_9
REMARK                            x       y       z     vdW  Elec       q    Type
REMARK                         _______ _______ _______ _____ _____    ______ ____
ROOT
ATOM      1  N   UNL     1       5.538   3.778  16.460  0.00  0.00    +0.000 N 
ATOM      2  C   UNL     1       4.504   4.420  17.067  0.00  0.00    +0.000 A 
ATOM      3  N   UNL     1       4.211   5.707  17.062  0.00  0.00    +0.000 NA
ATOM      4  N   UNL     1       3.098   5.911  17.846  0.00  0.00    +0.000 NA
ATOM      5  C   UNL     1       2.708   4.741  18.297  0.00  0.00    +0.000 A 
ATOM      6  C   UNL     1       1.629   4.340  19.132  0.00  0.00    +0.000 A 
ATOM      7  C   UNL     1       1.446   3.032  19.402  0.00  0.00    +0.000 A 
ATOM      8  C   UNL     1       2.331   2.012  18.856  0.00  0.00    +0.000 A 
ATOM      9  C   UNL     1       3.362   2.391  18.081  0.00  0.00    +0.000 A 
ATOM     10  N   UNL     1       3.550   3.749  17.815  0.00  0.00    +0.000 N 
ATOM     11  H   UNL     1       5.930   2.971  16.938  0.00  0.00    +0.000 HD
ENDROOT
BRANCH   1  12
ATOM     12  C   UNL     1       6.590   4.599  15.864  0.00  0.00    +0.000 C 
BRANCH  12  16
ATOM     13  C   UNL     1       6.159   3.572  12.450  0.00  0.00    +0.000 A 
ATOM     14  C   UNL     1       7.251   4.383  12.219  0.00  0.00    +0.000 A 
ATOM     15  C   UNL     1       7.615   4.936  13.468  0.00  0.00    +0.000 A 
ATOM     16  C   UNL     1       6.719   4.438  14.389  0.00  0.00    +0.000 A 
ATOM     17  O   UNL     1       5.823   3.608  13.774  0.00  0.00    +0.000 OA
BRANCH  13  18
ATOM     18  C   UNL     1       5.342   2.708  11.564  0.00  0.00    +0.000 C 
BRANCH  18  20
ATOM     19  C   UNL     1       3.325   3.138  10.420  0.00  0.00    +0.000 C 
ATOM     20  O   UNL     1       3.998   3.175  11.669  0.00  0.00    +0.000 OA
ENDBRANCH  18  20
ENDBRANCH  13  18
ENDBRANCH  12  16
ENDBRANCH   1  12
TORSDOF 4
ENDMDL
MODEL 5
REMARK VINA RESULT:      -7.0      3.509      6.602
REMARK  Name = 
REMARK  5 active torsions:
REMARK  status: ('A' for Active; 'I' for Inactive)
REMARK    1  A    between atoms: C_1  and  O_2
REMARK    2  A    between atoms: O_2  and  C_3
REMARK    3  A    between atoms: C_3  and  C_4
REMARK    4  A    between atoms: C_7  and  C_8
REMARK    5  A    between atoms: C_8  and  N_9
REMARK                            x       y       z     vdW  Elec       q    Type
REMARK                         _______ _______ _______ _____ _____    ______ ____
ROOT
ATOM      1  N   UNL     1       5.575   3.860  16.550  0.00  0.00    +0.000 N 
ATOM      2  C   UNL     1       6.443   4.447  15.683  0.00  0.00    +0.000 A 
ATOM      3  N   UNL     1       7.408   5.310  15.935  0.00  0.00    +0.000 NA
ATOM      4  N   UNL     1       8.005   5.668  14.747  0.00  0.00    +0.000 NA
ATOM      5  C   UNL     1       7.413   4.994  13.786  0.00  0.00    +0.000 A 
ATOM      6  C   UNL     1       7.610   4.949  12.378  0.00  0.00    +0.000 A 
ATOM      7  C   UNL     1       6.862   4.116  11.628  0.00  0.00    +0.000 A 
ATOM      8  C   UNL     1       5.853   3.252  12.227  0.00  0.00    +0.000 A 
ATOM      9  C   UNL     1       5.654   3.307  13.555  0.00  0.00    +0.000 A 
ATOM     10  N   UNL     1       6.426   4.182  14.324  0.00  0.00    +0.000 N 
ATOM     11  H   UNL     1       4.635   3.672  16.214  0.00  0.00    +0.000 HD
ENDROOT
BRANCH   1  12
ATOM     12  C   UNL     1       5.551   4.356  17.925  0.00  0.00    +0.000 C 
BRANCH  12  16
ATOM     13  C   UNL     1       2.363   5.104  19.399  0.00  0.00    +0.000 A 
ATOM     14  C   UNL     1       2.409   6.218  18.587  0.00  0.00    +0.000 A 
ATOM     15  C   UNL     1       3.634   6.153  17.882  0.00  0.00    +0.000 A 
ATOM     16  C   UNL     1       4.267   5.007  18.310  0.00  0.00    +0.000 A 
ATOM     17  O   UNL     1       3.500   4.363  19.241  0.00  0.00    +0.000 OA
BRANCH  13  18
ATOM     18  C   UNL     1       1.345   4.594  20.350  0.00  0.00    +0.000 C 
BRANCH  18  20
ATOM     19  C   UNL     1       1.654   2.660  21.664  0.00  0.00    +0.000 C 
ATOM     20  O   UNL     1       2.061   3.999  21.431  0.00  0.00    +0.000 OA
ENDBRANCH  18  20
ENDBRANCH  13  18
ENDBRANCH  12  16
ENDBRANCH   1  12
TORSDOF 4
ENDMDL
MODEL 6
REMARK VINA RESULT:      -7.0      3.208      5.049
REMARK  Name = 
REMARK  5 active torsions:
REMARK  status: ('A' for Active; 'I' for Inactive)
REMARK    1  A    between atoms: C_1  and  O_2
REMARK    2  A    between atoms: O_2  and  C_3
REMARK    3  A    between atoms: C_3  and  C_4
REMARK    4  A    between atoms: C_7  and  C_8
REMARK    5  A    between atoms: C_8  and  N_9
REMARK                            x       y       z     vdW  Elec       q    Type
REMARK                         _______ _______ _______ _____ _____    ______ ____
ROOT
ATOM      1  N   UNL     1       5.518   3.544  16.562  0.00  0.00    +0.000 N 
ATOM      2  C   UNL     1       4.471   4.214  17.115  0.00  0.00    +0.000 A 
ATOM      3  N   UNL     1       4.216   5.508  17.102  0.00  0.00    +0.000 NA
ATOM      4  N   UNL     1       3.068   5.741  17.825  0.00  0.00    +0.000 NA
ATOM      5  C   UNL     1       2.620   4.580  18.247  0.00  0.00    +0.000 A 
ATOM      6  C   UNL     1       1.486   4.207  19.019  0.00  0.00    +0.000 A 
ATOM      7  C   UNL     1       1.252   2.904  19.271  0.00  0.00    +0.000 A 
ATOM      8  C   UNL     1       2.136   1.861  18.768  0.00  0.00    +0.000 A 
ATOM      9  C   UNL     1       3.218   2.214  18.053  0.00  0.00    +0.000 A 
ATOM     10  N   UNL     1       3.459   3.567  17.806  0.00  0.00    +0.000 N 
ATOM     11  H   UNL     1       5.860   2.725  17.055  0.00  0.00    +0.000 HD
ENDROOT
BRANCH   1  12
ATOM     12  C   UNL     1       6.624   4.338  16.029  0.00  0.00    +0.000 C 
BRANCH  12  16
ATOM     13  C   UNL     1       6.079   3.696  12.538  0.00  0.00    +0.000 A 
ATOM     14  C   UNL     1       7.141   4.559  12.360  0.00  0.00    +0.000 A 
ATOM     15  C   UNL     1       7.542   4.976  13.651  0.00  0.00    +0.000 A 
ATOM     16  C   UNL     1       6.697   4.350  14.541  0.00  0.00    +0.000 A 
ATOM     17  O   UNL     1       5.797   3.571  13.869  0.00  0.00    +0.000 OA
BRANCH  13  18
ATOM     18  C   UNL     1       5.248   2.916  11.590  0.00  0.00    +0.000 C 
BRANCH  18  20
ATOM     19  C   UNL     1       6.830   1.320  10.875  0.00  0.00    +0.000 C 
ATOM     20  O   UNL     1       5.689   1.562  11.681  0.00  0.00    +0.000 OA
ENDBRANCH  18  20
ENDBRANCH  13  18
ENDBRANCH  12  16
ENDBRANCH   1  12
TORSDOF 4
ENDMDL
MODEL 7
REMARK VINA RESULT:      -7.0      1.076      1.098
REMARK  Name = 
REMARK  5 active torsions:
REMARK  status: ('A' for Active; 'I' for Inactive)
REMARK    1  A    between atoms: C_1  and  O_2
REMARK    2  A    between atoms: O_2  and  C_3
REMARK    3  A    between atoms: C_3  and  C_4
REMARK    4  A    between atoms: C_7  and  C_8
REMARK    5  A    between atoms: C_8  and  N_9
REMARK                            x       y       z     vdW  Elec       q    Type
REMARK                         _______ _______ _______ _____ _____    ______ ____
ROOT
ATOM      1  N   UNL     1       5.233   3.788  18.078  0.00  0.00    +0.000 N 
ATOM      2  C   UNL     1       3.997   4.290  18.343  0.00  0.00    +0.000 A 
ATOM      3  N   UNL     1       3.366   5.289  17.756  0.00  0.00    +0.000 NA
ATOM      4  N   UNL     1       2.152   5.475  18.380  0.00  0.00    +0.000 NA
ATOM      5  C   UNL     1       2.046   4.566  19.322  0.00  0.00    +0.000 A 
ATOM      6  C   UNL     1       1.025   4.271  20.267  0.00  0.00    +0.000 A 
ATOM      7  C   UNL     1       1.177   3.229  21.108  0.00  0.00    +0.000 A 
ATOM      8  C   UNL     1       2.366   2.389  21.072  0.00  0.00    +0.000 A 
ATOM      9  C   UNL     1       3.340   2.678  20.191  0.00  0.00    +0.000 A 
ATOM     10  N   UNL     1       3.180   3.766  19.331  0.00  0.00    +0.000 N 
ATOM     11  H   UNL     1       5.770   3.434  18.863  0.00  0.00    +0.000 HD
ENDROOT
BRANCH   1  12
ATOM     12  C   UNL     1       6.084   4.536  17.154  0.00  0.00    +0.000 C 
BRANCH  12  16
ATOM     13  C   UNL     1       7.729   7.620  17.976  0.00  0.00    +0.000 A 
ATOM     14  C   UNL     1       8.294   6.881  18.995  0.00  0.00    +0.000 A 
ATOM     15  C   UNL     1       7.768   5.573  18.884  0.00  0.00    +0.000 A 
ATOM     16  C   UNL     1       6.906   5.591  17.809  0.00  0.00    +0.000 A 
ATOM     17  O   UNL     1       6.873   6.840  17.253  0.00  0.00    +0.000 OA
BRANCH  13  18
ATOM     18  C   UNL     1       7.891   9.030  17.548  0.00  0.00    +0.000 C 
BRANCH  18  20
ATOM     19  C   UNL     1       8.981  11.006  18.234  0.00  0.00    +0.000 C 
ATOM     20  O   UNL     1       8.891   9.599  18.392  0.00  0.00    +0.000 OA
ENDBRANCH  18  20
ENDBRANCH  13  18
ENDBRANCH  12  16
ENDBRANCH   1  12
TORSDOF 4
ENDMDL
MODEL 8
REMARK VINA RESULT:      -6.9      3.674      6.940
REMARK  Name = 
REMARK  5 active torsions:
REMARK  status: ('A' for Active; 'I' for Inactive)
REMARK    1  A    between atoms: C_1  and  O_2
REMARK    2  A    between atoms: O_2  and  C_3
REMARK    3  A    between atoms: C_3  and  C_4
REMARK    4  A    between atoms: C_7  and  C_8
REMARK    5  A    between atoms: C_8  and  N_9
REMARK                            x       y       z     vdW  Elec       q    Type
REMARK                         _______ _______ _______ _____ _____    ______ ____
ROOT
ATOM      1  N   UNL     1       5.027   3.608  16.209  0.00  0.00    +0.000 N 
ATOM      2  C   UNL     1       6.018   4.291  15.575  0.00  0.00    +0.000 A 
ATOM      3  N   UNL     1       6.890   5.142  16.081  0.00  0.00    +0.000 NA
ATOM      4  N   UNL     1       7.681   5.624  15.062  0.00  0.00    +0.000 NA
ATOM      5  C   UNL     1       7.300   5.037  13.950  0.00  0.00    +0.000 A 
ATOM      6  C   UNL     1       7.752   5.132  12.605  0.00  0.00    +0.000 A 
ATOM      7  C   UNL     1       7.184   4.363  11.656  0.00  0.00    +0.000 A 
ATOM      8  C   UNL     1       6.113   3.428  11.975  0.00  0.00    +0.000 A 
ATOM      9  C   UNL     1       5.673   3.350  13.242  0.00  0.00    +0.000 A 
ATOM     10  N   UNL     1       6.259   4.159  14.218  0.00  0.00    +0.000 N 
ATOM     11  H   UNL     1       4.172   3.437  15.687  0.00  0.00    +0.000 HD
ENDROOT
BRANCH   1  12
ATOM     12  C   UNL     1       4.734   3.968  17.595  0.00  0.00    +0.000 C 
BRANCH  12  16
ATOM     13  C   UNL     1       1.620   3.859  19.380  0.00  0.00    +0.000 A 
ATOM     14  C   UNL     1       1.189   3.123  18.296  0.00  0.00    +0.000 A 
ATOM     15  C   UNL     1       2.285   3.034  17.407  0.00  0.00    +0.000 A 
ATOM     16  C   UNL     1       3.319   3.728  17.995  0.00  0.00    +0.000 A 
ATOM     17  O   UNL     1       2.919   4.241  19.198  0.00  0.00    +0.000 OA
BRANCH  13  18
ATOM     18  C   UNL     1       0.959   4.275  20.640  0.00  0.00    +0.000 C 
BRANCH  18  20
ATOM     19  C   UNL     1       1.699   2.412  21.882  0.00  0.00    +0.000 C 
ATOM     20  O   UNL     1       1.790   3.816  21.706  0.00  0.00    +0.000 OA
ENDBRANCH  18  20
ENDBRANCH  13  18
ENDBRANCH  12  16
ENDBRANCH   1  12
TORSDOF 4
ENDMDL
MODEL 9
REMARK VINA RESULT:      -6.9      2.845      4.447
REMARK  Name = 
REMARK  5 active torsions:
REMARK  status: ('A' for Active; 'I' for Inactive)
REMARK    1  A    between atoms: C_1  and  O_2
REMARK    2  A    between atoms: O_2  and  C_3
REMARK    3  A    between atoms: C_3  and  C_4
REMARK    4  A    between atoms: C_7  and  C_8
REMARK    5  A    between atoms: C_8  and  N_9
REMARK                            x       y       z     vdW  Elec       q    Type
REMARK                         _______ _______ _______ _____ _____    ______ ____
ROOT
ATOM      1  N   UNL     1       5.234   3.695  17.972  0.00  0.00    +0.000 N 
ATOM      2  C   UNL     1       4.286   4.414  18.631  0.00  0.00    +0.000 A 
ATOM      3  N   UNL     1       4.227   5.717  18.832  0.00  0.00    +0.000 NA
ATOM      4  N   UNL     1       3.110   5.999  19.586  0.00  0.00    +0.000 NA
ATOM      5  C   UNL     1       2.485   4.865  19.810  0.00  0.00    +0.000 A 
ATOM      6  C   UNL     1       1.290   4.545  20.512  0.00  0.00    +0.000 A 
ATOM      7  C   UNL     1       0.859   3.268  20.545  0.00  0.00    +0.000 A 
ATOM      8  C   UNL     1       1.589   2.201  19.874  0.00  0.00    +0.000 A 
ATOM      9  C   UNL     1       2.728   2.500  19.226  0.00  0.00    +0.000 A 
ATOM     10  N   UNL     1       3.174   3.823  19.206  0.00  0.00    +0.000 N 
ATOM     11  H   UNL     1       5.440   2.764  18.322  0.00  0.00    +0.000 HD
ENDROOT
BRANCH   1  12
ATOM     12  C   UNL     1       6.459   4.389  17.576  0.00  0.00    +0.000 C 
BRANCH  12  16
ATOM     13  C   UNL     1       6.083   4.120  14.015  0.00  0.00    +0.000 A 
ATOM     14  C   UNL     1       7.198   4.932  13.980  0.00  0.00    +0.000 A 
ATOM     15  C   UNL     1       7.545   5.198  15.325  0.00  0.00    +0.000 A 
ATOM     16  C   UNL     1       6.618   4.541  16.103  0.00  0.00    +0.000 A 
ATOM     17  O   UNL     1       5.718   3.884  15.310  0.00  0.00    +0.000 OA
BRANCH  13  18
ATOM     18  C   UNL     1       5.266   3.486  12.952  0.00  0.00    +0.000 C 
BRANCH  18  20
ATOM     19  C   UNL     1       5.793   1.765  11.428  0.00  0.00    +0.000 C 
ATOM     20  O   UNL     1       6.181   3.022  11.960  0.00  0.00    +0.000 OA
ENDBRANCH  18  20
ENDBRANCH  13  18
ENDBRANCH  12  16
ENDBRANCH   1  12
TORSDOF 4
ENDMDL
