MODEL 1
REMARK VINA RESULT:      -6.5      0.000      0.000
REMARK  Name = 
REMARK  10 active torsions:
REMARK  status: ('A' for Active; 'I' for Inactive)
REMARK    1  A    between atoms: C_1  and  C_2
REMARK    2  A    between atoms: C_2  and  C_3
REMARK    3  A    between atoms: C_2  and  C_4
REMARK    4  A    between atoms: C_4  and  N_5
REMARK    5  A    between atoms: N_5  and  C_6
REMARK    6  A    between atoms: C_6  and  C_7
REMARK    7  A    between atoms: C_7  and  O_8
REMARK    8  A    between atoms: O_8  and  C_9
REMARK    9  A    between atoms: C_9  and  C_11
REMARK   10  A    between atoms: C_15  and  N_16
REMARK                            x       y       z     vdW  Elec       q    Type
REMARK                         _______ _______ _______ _____ _____    ______ ____
ROOT
ATOM      1  C   UNL     1       4.362   5.006  17.501  0.00  0.00    +0.000 C 
ATOM      2  O   UNL     1       3.302   5.600  17.644  0.00  0.00    +0.000 OA
ENDROOT
BRANCH   1   3
ATOM      3  C   UNL     1       5.640   5.674  17.842  0.00  0.00    +0.000 A 
ATOM      4  C   UNL     1       6.077   6.801  17.121  0.00  0.00    +0.000 A 
ATOM      5  C   UNL     1       7.276   7.433  17.461  0.00  0.00    +0.000 A 
ATOM      6  C   UNL     1       8.052   6.948  18.517  0.00  0.00    +0.000 A 
ATOM      7  C   UNL     1       7.633   5.823  19.240  0.00  0.00    +0.000 A 
ATOM      8  C   UNL     1       6.428   5.193  18.903  0.00  0.00    +0.000 A 
BRANCH   7   9
ATOM      9  N   UNL     1       8.422   5.325  20.306  0.00  0.00    +0.000 N 
ATOM     10  H   UNL     1       7.981   4.861  21.114  0.00  0.00    +0.000 HD
ATOM     11  H   UNL     1       9.448   5.424  20.296  0.00  0.00    +0.000 HD
ENDBRANCH   7   9
ENDBRANCH   1   3
BRANCH   1  12
ATOM     12  O   UNL     1       4.375   3.709  17.093  0.00  0.00    +0.000 OA
BRANCH  12  13
ATOM     13  C   UNL     1       3.932   2.640  17.846  0.00  0.00    +0.000 C 
BRANCH  13  14
ATOM     14  C   UNL     1       2.492   2.262  17.493  0.00  0.00    +0.000 C 
BRANCH  14  15
ATOM     15  N   UNL     1       1.823   1.765  18.698  0.00  0.00    +0.000 NA
ATOM     16  H   UNL     1       1.216   0.953  18.445  0.00  0.00    +0.000 HD
BRANCH  15  17
ATOM     17  C   UNL     1       0.987   2.797  19.318  0.00  0.00    +0.000 C 
BRANCH  17  19
ATOM     18  C   UNL     1       1.321   4.954  20.608  0.00  0.00    +0.000 C 
ATOM     19  C   UNL     1       1.769   3.492  20.450  0.00  0.00    +0.000 C 
ATOM     20  C   UNL     1       1.582   2.735  21.767  0.00  0.00    +0.000 C 
ENDBRANCH  17  19
ENDBRANCH  15  17
ENDBRANCH  14  15
ENDBRANCH  13  14
ENDBRANCH  12  13
ENDBRANCH   1  12
TORSDOF 8
ENDMDL
MODEL 2
REMARK VINA RESULT:      -6.5      1.083      1.607
REMARK  Name = 
REMARK  10 active torsions:
REMARK  status: ('A' for Active; 'I' for Inactive)
REMARK    1  A    between atoms: C_1  and  C_2
REMARK    2  A    between atoms: C_2  and  C_3
REMARK    3  A    between atoms: C_2  and  C_4
REMARK    4  A    between atoms: C_4  and  N_5
REMARK    5  A    between atoms: N_5  and  C_6
REMARK    6  A    between atoms: C_6  and  C_7
REMARK    7  A    between atoms: C_7  and  O_8
REMARK    8  A    between atoms: O_8  and  C_9
REMARK    9  A    between atoms: C_9  and  C_11
REMARK   10  A    between atoms: C_15  and  N_16
REMARK                            x       y       z     vdW  Elec       q    Type
REMARK                         _______ _______ _______ _____ _____    ______ ____
ROOT
ATOM      1  C   UNL     1       5.670   4.154  16.273  0.00  0.00    +0.000 C 
ATOM      2  O   UNL     1       6.184   3.558  15.336  0.00  0.00    +0.000 OA
ENDROOT
BRANCH   1   3
ATOM      3  C   UNL     1       6.458   5.141  17.049  0.00  0.00    +0.000 A 
ATOM      4  C   UNL     1       6.601   6.465  16.593  0.00  0.00    +0.000 A 
ATOM      5  C   UNL     1       7.333   7.391  17.341  0.00  0.00    +0.000 A 
ATOM      6  C   UNL     1       7.933   7.009  18.543  0.00  0.00    +0.000 A 
ATOM      7  C   UNL     1       7.804   5.692  19.007  0.00  0.00    +0.000 A 
ATOM      8  C   UNL     1       7.066   4.765  18.261  0.00  0.00    +0.000 A 
BRANCH   7   9
ATOM      9  N   UNL     1       8.417   5.300  20.222  0.00  0.00    +0.000 N 
ATOM     10  H   UNL     1       8.193   4.392  20.655  0.00  0.00    +0.000 HD
ATOM     11  H   UNL     1       9.091   5.918  20.697  0.00  0.00    +0.000 HD
ENDBRANCH   7   9
ENDBRANCH   1   3
BRANCH   1  12
ATOM     12  O   UNL     1       4.357   3.968  16.570  0.00  0.00    +0.000 OA
BRANCH  12  13
ATOM     13  C   UNL     1       3.879   3.489  17.774  0.00  0.00    +0.000 C 
BRANCH  13  14
ATOM     14  C   UNL     1       2.514   2.817  17.610  0.00  0.00    +0.000 C 
BRANCH  14  15
ATOM     15  N   UNL     1       1.501   3.626  18.291  0.00  0.00    +0.000 NA
ATOM     16  H   UNL     1       1.953   4.481  18.686  0.00  0.00    +0.000 HD
BRANCH  15  17
ATOM     17  C   UNL     1       0.862   2.888  19.383  0.00  0.00    +0.000 C 
BRANCH  17  19
ATOM     18  C   UNL     1       2.250   2.771  21.501  0.00  0.00    +0.000 C 
ATOM     19  C   UNL     1       1.183   3.565  20.730  0.00  0.00    +0.000 C 
ATOM     20  C   UNL     1       1.653   5.003  20.502  0.00  0.00    +0.000 C 
ENDBRANCH  17  19
ENDBRANCH  15  17
ENDBRANCH  14  15
ENDBRANCH  13  14
ENDBRANCH  12  13
ENDBRANCH   1  12
TORSDOF 8
ENDMDL
MODEL 3
REMARK VINA RESULT:      -6.4      2.316      2.916
REMARK  Name = 
REMARK  10 active torsions:
REMARK  status: ('A' for Active; 'I' for Inactive)
REMARK    1  A    between atoms: C_1  and  C_2
REMARK    2  A    between atoms: C_2  and  C_3
REMARK    3  A    between atoms: C_2  and  C_4
REMARK    4  A    between atoms: C_4  and  N_5
REMARK    5  A    between atoms: N_5  and  C_6
REMARK    6  A    between atoms: C_6  and  C_7
REMARK    7  A    between atoms: C_7  and  O_8
REMARK    8  A    between atoms: O_8  and  C_9
REMARK    9  A    between atoms: C_9  and  C_11
REMARK   10  A    between atoms: C_15  and  N_16
REMARK                            x       y       z     vdW  Elec       q    Type
REMARK                         _______ _______ _______ _____ _____    ______ ____
ROOT
ATOM      1  C   UNL     1       5.456   4.525  19.084  0.00  0.00    +0.000 C 
ATOM      2  O   UNL     1       6.406   4.813  19.800  0.00  0.00    +0.000 OA
ENDROOT
BRANCH   1   3
ATOM      3  C   UNL     1       5.438   4.955  17.666  0.00  0.00    +0.000 A 
ATOM      4  C   UNL     1       4.995   6.242  17.310  0.00  0.00    +0.000 A 
ATOM      5  C   UNL     1       4.997   6.643  15.972  0.00  0.00    +0.000 A 
ATOM      6  C   UNL     1       5.435   5.766  14.976  0.00  0.00    +0.000 A 
ATOM      7  C   UNL     1       5.874   4.479  15.313  0.00  0.00    +0.000 A 
ATOM      8  C   UNL     1       5.877   4.079  16.656  0.00  0.00    +0.000 A 
BRANCH   7   9
ATOM      9  N   UNL     1       6.312   3.586  14.305  0.00  0.00    +0.000 N 
ATOM     10  H   UNL     1       5.648   2.949  13.841  0.00  0.00    +0.000 HD
ATOM     11  H   UNL     1       7.303   3.553  14.023  0.00  0.00    +0.000 HD
ENDBRANCH   7   9
ENDBRANCH   1   3
BRANCH   1  12
ATOM     12  O   UNL     1       4.443   3.755  19.560  0.00  0.00    +0.000 OA
BRANCH  12  13
ATOM     13  C   UNL     1       4.366   2.382  19.433  0.00  0.00    +0.000 C 
BRANCH  13  14
ATOM     14  C   UNL     1       3.288   1.970  18.429  0.00  0.00    +0.000 C 
BRANCH  14  15
ATOM     15  N   UNL     1       2.026   1.765  19.145  0.00  0.00    +0.000 NA
ATOM     16  H   UNL     1       1.545   0.922  18.760  0.00  0.00    +0.000 HD
BRANCH  15  17
ATOM     17  C   UNL     1       1.131   2.918  19.006  0.00  0.00    +0.000 C 
BRANCH  17  19
ATOM     18  C   UNL     1       1.436   2.658  21.509  0.00  0.00    +0.000 C 
ATOM     19  C   UNL     1       0.870   3.546  20.389  0.00  0.00    +0.000 C 
ATOM     20  C   UNL     1       1.484   4.946  20.460  0.00  0.00    +0.000 C 
ENDBRANCH  17  19
ENDBRANCH  15  17
ENDBRANCH  14  15
ENDBRANCH  13  14
ENDBRANCH  12  13
ENDBRANCH   1  12
TORSDOF 8
ENDMDL
MODEL 4
REMARK VINA RESULT:      -6.3      1.894      2.573
REMARK  Name = 
REMARK  10 active torsions:
REMARK  status: ('A' for Active; 'I' for Inactive)
REMARK    1  A    between atoms: C_1  and  C_2
REMARK    2  A    between atoms: C_2  and  C_3
REMARK    3  A    between atoms: C_2  and  C_4
REMARK    4  A    between atoms: C_4  and  N_5
REMARK    5  A    between atoms: N_5  and  C_6
REMARK    6  A    between atoms: C_6  and  C_7
REMARK    7  A    between atoms: C_7  and  O_8
REMARK    8  A    between atoms: O_8  and  C_9
REMARK    9  A    between atoms: C_9  and  C_11
REMARK   10  A    between atoms: C_15  and  N_16
REMARK                            x       y       z     vdW  Elec       q    Type
REMARK                         _______ _______ _______ _____ _____    ______ ____
ROOT
ATOM      1  C   UNL     1       4.712   4.288  19.249  0.00  0.00    +0.000 C 
ATOM      2  O   UNL     1       4.033   5.050  19.923  0.00  0.00    +0.000 OA
ENDROOT
BRANCH   1   3
ATOM      3  C   UNL     1       5.273   4.741  17.953  0.00  0.00    +0.000 A 
ATOM      4  C   UNL     1       4.813   4.195  16.741  0.00  0.00    +0.000 A 
ATOM      5  C   UNL     1       5.336   4.641  15.525  0.00  0.00    +0.000 A 
ATOM      6  C   UNL     1       6.324   5.629  15.504  0.00  0.00    +0.000 A 
ATOM      7  C   UNL     1       6.797   6.178  16.704  0.00  0.00    +0.000 A 
ATOM      8  C   UNL     1       6.268   5.735  17.923  0.00  0.00    +0.000 A 
BRANCH   7   9
ATOM      9  N   UNL     1       7.803   7.174  16.686  0.00  0.00    +0.000 N 
ATOM     10  H   UNL     1       8.115   7.623  17.560  0.00  0.00    +0.000 HD
ATOM     11  H   UNL     1       8.237   7.472  15.799  0.00  0.00    +0.000 HD
ENDBRANCH   7   9
ENDBRANCH   1   3
BRANCH   1  12
ATOM     12  O   UNL     1       5.015   3.045  19.708  0.00  0.00    +0.000 OA
BRANCH  12  13
ATOM     13  C   UNL     1       4.105   2.020  19.874  0.00  0.00    +0.000 C 
BRANCH  13  14
ATOM     14  C   UNL     1       3.807   1.311  18.551  0.00  0.00    +0.000 C 
BRANCH  14  15
ATOM     15  N   UNL     1       2.453   1.664  18.118  0.00  0.00    +0.000 NA
ATOM     16  H   UNL     1       2.494   2.527  17.530  0.00  0.00    +0.000 HD
BRANCH  15  17
ATOM     17  C   UNL     1       1.567   1.916  19.258  0.00  0.00    +0.000 C 
BRANCH  17  19
ATOM     18  C   UNL     1       0.887   4.118  20.315  0.00  0.00    +0.000 C 
ATOM     19  C   UNL     1       0.815   3.245  19.051  0.00  0.00    +0.000 C 
ATOM     20  C   UNL     1       1.392   4.000  17.851  0.00  0.00    +0.000 C 
ENDBRANCH  17  19
ENDBRANCH  15  17
ENDBRANCH  14  15
ENDBRANCH  13  14
ENDBRANCH  12  13
ENDBRANCH   1  12
TORSDOF 8
ENDMDL
MODEL 5
REMARK VINA RESULT:      -6.2      3.815      6.580
REMARK  Name = 
REMARK  10 active torsions:
REMARK  status: ('A' for Active; 'I' for Inactive)
REMARK    1  A    between atoms: C_1  and  C_2
REMARK    2  A    between atoms: C_2  and  C_3
REMARK    3  A    between atoms: C_2  and  C_4
REMARK    4  A    between atoms: C_4  and  N_5
REMARK    5  A    between atoms: N_5  and  C_6
REMARK    6  A    between atoms: C_6  and  C_7
REMARK    7  A    between atoms: C_7  and  O_8
REMARK    8  A    between atoms: O_8  and  C_9
REMARK    9  A    between atoms: C_9  and  C_11
REMARK   10  A    between atoms: C_15  and  N_16
REMARK                            x       y       z     vdW  Elec       q    Type
REMARK                         _______ _______ _______ _____ _____    ______ ____
ROOT
ATOM      1  C   UNL     1       5.540   4.389  17.932  0.00  0.00    +0.000 C 
ATOM      2  O   UNL     1       6.437   4.399  18.764  0.00  0.00    +0.000 OA
ENDROOT
BRANCH   1   3
ATOM      3  C   UNL     1       4.130   4.226  18.360  0.00  0.00    +0.000 A 
ATOM      4  C   UNL     1       3.387   5.327  18.822  0.00  0.00    +0.000 A 
ATOM      5  C   UNL     1       2.054   5.165  19.208  0.00  0.00    +0.000 A 
ATOM      6  C   UNL     1       1.451   3.906  19.143  0.00  0.00    +0.000 A 
ATOM      7  C   UNL     1       2.180   2.798  18.690  0.00  0.00    +0.000 A 
ATOM      8  C   UNL     1       3.515   2.962  18.298  0.00  0.00    +0.000 A 
BRANCH   7   9
ATOM      9  N   UNL     1       1.574   1.520  18.630  0.00  0.00    +0.000 N 
ATOM     10  H   UNL     1       2.004   0.710  19.100  0.00  0.00    +0.000 HD
ATOM     11  H   UNL     1       0.695   1.377  18.109  0.00  0.00    +0.000 HD
ENDBRANCH   7   9
ENDBRANCH   1   3
BRANCH   1  12
ATOM     12  O   UNL     1       5.818   4.595  16.617  0.00  0.00    +0.000 OA
BRANCH  12  13
ATOM     13  C   UNL     1       7.088   4.668  16.080  0.00  0.00    +0.000 C 
BRANCH  13  14
ATOM     14  C   UNL     1       7.047   4.806  14.557  0.00  0.00    +0.000 C 
BRANCH  14  15
ATOM     15  N   UNL     1       6.251   3.709  14.001  0.00  0.00    +0.000 NA
ATOM     16  H   UNL     1       6.598   2.802  14.387  0.00  0.00    +0.000 HD
BRANCH  15  17
ATOM     17  C   UNL     1       6.341   3.659  12.539  0.00  0.00    +0.000 C 
BRANCH  17  19
ATOM     18  C   UNL     1       4.222   3.155  11.242  0.00  0.00    +0.000 C 
ATOM     19  C   UNL     1       5.418   2.551  11.996  0.00  0.00    +0.000 C 
ATOM     20  C   UNL     1       6.202   1.609  11.081  0.00  0.00    +0.000 C 
ENDBRANCH  17  19
ENDBRANCH  15  17
ENDBRANCH  14  15
ENDBRANCH  13  14
ENDBRANCH  12  13
ENDBRANCH   1  12
TORSDOF 8
ENDMDL
MODEL 6
REMARK VINA RESULT:      -6.1      2.359      5.390
REMARK  Name = 
REMARK  10 active torsions:
REMARK  status: ('A' for Active; 'I' for Inactive)
REMARK    1  A    between atoms: C_1  and  C_2
REMARK    2  A    between atoms: C_2  and  C_3
REMARK    3  A    between atoms: C_2  and  C_4
REMARK    4  A    between atoms: C_4  and  N_5
REMARK    5  A    between atoms: N_5  and  C_6
REMARK    6  A    between atoms: C_6  and  C_7
REMARK    7  A    between atoms: C_7  and  O_8
REMARK    8  A    between atoms: O_8  and  C_9
REMARK    9  A    between atoms: C_9  and  C_11
REMARK   10  A    between atoms: C_15  and  N_16
REMARK                            x       y       z     vdW  Elec       q    Type
REMARK                         _______ _______ _______ _____ _____    ______ ____
ROOT
ATOM      1  C   UNL     1       4.062   5.434  17.059  0.00  0.00    +0.000 C 
ATOM      2  O   UNL     1       4.519   6.537  16.790  0.00  0.00    +0.000 OA
ENDROOT
BRANCH   1   3
ATOM      3  C   UNL     1       3.154   5.269  18.218  0.00  0.00    +0.000 A 
ATOM      4  C   UNL     1       2.515   4.038  18.461  0.00  0.00    +0.000 A 
ATOM      5  C   UNL     1       1.673   3.888  19.565  0.00  0.00    +0.000 A 
ATOM      6  C   UNL     1       1.455   4.960  20.435  0.00  0.00    +0.000 A 
ATOM      7  C   UNL     1       2.079   6.193  20.203  0.00  0.00    +0.000 A 
ATOM      8  C   UNL     1       2.928   6.342  19.099  0.00  0.00    +0.000 A 
BRANCH   7   9
ATOM      9  N   UNL     1       1.854   7.284  21.079  0.00  0.00    +0.000 N 
ATOM     10  H   UNL     1       2.311   7.320  22.002  0.00  0.00    +0.000 HD
ATOM     11  H   UNL     1       1.225   8.056  20.810  0.00  0.00    +0.000 HD
ENDBRANCH   7   9
ENDBRANCH   1   3
BRANCH   1  12
ATOM     12  O   UNL     1       4.329   4.366  16.262  0.00  0.00    +0.000 OA
BRANCH  12  13
ATOM     13  C   UNL     1       5.528   3.683  16.230  0.00  0.00    +0.000 C 
BRANCH  13  14
ATOM     14  C   UNL     1       6.535   4.359  15.298  0.00  0.00    +0.000 C 
BRANCH  14  15
ATOM     15  N   UNL     1       7.467   5.154  16.101  0.00  0.00    +0.000 NA
ATOM     16  H   UNL     1       8.386   5.209  15.608  0.00  0.00    +0.000 HD
BRANCH  15  17
ATOM     17  C   UNL     1       7.682   4.563  17.425  0.00  0.00    +0.000 C 
BRANCH  17  19
ATOM     18  C   UNL     1       7.653   7.064  17.837  0.00  0.00    +0.000 C 
ATOM     19  C   UNL     1       7.741   5.675  18.490  0.00  0.00    +0.000 C 
ATOM     20  C   UNL     1       6.614   5.495  19.510  0.00  0.00    +0.000 C 
ENDBRANCH  17  19
ENDBRANCH  15  17
ENDBRANCH  14  15
ENDBRANCH  13  14
ENDBRANCH  12  13
ENDBRANCH   1  12
TORSDOF 8
ENDMDL
MODEL 7
REMARK VINA RESULT:      -6.0      3.513      6.320
REMARK  Name = 
REMARK  10 active torsions:
REMARK  status: ('A' for Active; 'I' for Inactive)
REMARK    1  A    between atoms: C_1  and  C_2
REMARK    2  A    between atoms: C_2  and  C_3
REMARK    3  A    between atoms: C_2  and  C_4
REMARK    4  A    between atoms: C_4  and  N_5
REMARK    5  A    between atoms: N_5  and  C_6
REMARK    6  A    between atoms: C_6  and  C_7
REMARK    7  A    between atoms: C_7  and  O_8
REMARK    8  A    between atoms: O_8  and  C_9
REMARK    9  A    between atoms: C_9  and  C_11
REMARK   10  A    between atoms: C_15  and  N_16
REMARK                            x       y       z     vdW  Elec       q    Type
REMARK                         _______ _______ _______ _____ _____    ______ ____
ROOT
ATOM      1  C   UNL     1       5.988   4.999  18.725  0.00  0.00    +0.000 C 
ATOM      2  O   UNL     1       6.363   5.174  19.876  0.00  0.00    +0.000 OA
ENDROOT
BRANCH   1   3
ATOM      3  C   UNL     1       4.557   4.732  18.443  0.00  0.00    +0.000 A 
ATOM      4  C   UNL     1       3.631   5.789  18.361  0.00  0.00    +0.000 A 
ATOM      5  C   UNL     1       2.288   5.528  18.078  0.00  0.00    +0.000 A 
ATOM      6  C   UNL     1       1.853   4.215  17.880  0.00  0.00    +0.000 A 
ATOM      7  C   UNL     1       2.762   3.152  17.965  0.00  0.00    +0.000 A 
ATOM      8  C   UNL     1       4.110   3.414  18.242  0.00  0.00    +0.000 A 
BRANCH   7   9
ATOM      9  N   UNL     1       2.323   1.819  17.771  0.00  0.00    +0.000 N 
ATOM     10  H   UNL     1       1.573   1.422  18.356  0.00  0.00    +0.000 HD
ATOM     11  H   UNL     1       2.750   1.222  17.047  0.00  0.00    +0.000 HD
ENDBRANCH   7   9
ENDBRANCH   1   3
BRANCH   1  12
ATOM     12  O   UNL     1       6.862   5.113  17.690  0.00  0.00    +0.000 OA
BRANCH  12  13
ATOM     13  C   UNL     1       6.544   5.600  16.438  0.00  0.00    +0.000 C 
BRANCH  13  14
ATOM     14  C   UNL     1       7.444   4.999  15.356  0.00  0.00    +0.000 C 
BRANCH  14  15
ATOM     15  N   UNL     1       6.734   5.035  14.075  0.00  0.00    +0.000 NA
ATOM     16  H   UNL     1       6.186   5.922  14.010  0.00  0.00    +0.000 HD
BRANCH  15  17
ATOM     17  C   UNL     1       5.813   3.904  13.933  0.00  0.00    +0.000 C 
BRANCH  17  19
ATOM     18  C   UNL     1       4.647   3.421  11.735  0.00  0.00    +0.000 C 
ATOM     19  C   UNL     1       5.957   3.287  12.528  0.00  0.00    +0.000 C 
ATOM     20  C   UNL     1       7.107   3.953  11.770  0.00  0.00    +0.000 C 
ENDBRANCH  17  19
ENDBRANCH  15  17
ENDBRANCH  14  15
ENDBRANCH  13  14
ENDBRANCH  12  13
ENDBRANCH   1  12
TORSDOF 8
ENDMDL
MODEL 8
REMARK VINA RESULT:      -6.0      1.608      6.064
REMARK  Name = 
REMARK  10 active torsions:
REMARK  status: ('A' for Active; 'I' for Inactive)
REMARK    1  A    between atoms: C_1  and  C_2
REMARK    2  A    between atoms: C_2  and  C_3
REMARK    3  A    between atoms: C_2  and  C_4
REMARK    4  A    between atoms: C_4  and  N_5
REMARK    5  A    between atoms: N_5  and  C_6
REMARK    6  A    between atoms: C_6  and  C_7
REMARK    7  A    between atoms: C_7  and  O_8
REMARK    8  A    between atoms: O_8  and  C_9
REMARK    9  A    between atoms: C_9  and  C_11
REMARK   10  A    between atoms: C_15  and  N_16
REMARK                            x       y       z     vdW  Elec       q    Type
REMARK                         _______ _______ _______ _____ _____    ______ ____
ROOT
ATOM      1  C   UNL     1       3.815   5.502  17.755  0.00  0.00    +0.000 C 
ATOM      2  O   UNL     1       3.724   6.688  17.466  0.00  0.00    +0.000 OA
ENDROOT
BRANCH   1   3
ATOM      3  C   UNL     1       2.788   4.866  18.613  0.00  0.00    +0.000 A 
ATOM      4  C   UNL     1       2.375   5.475  19.812  0.00  0.00    +0.000 A 
ATOM      5  C   UNL     1       1.394   4.875  20.605  0.00  0.00    +0.000 A 
ATOM      6  C   UNL     1       0.820   3.662  20.217  0.00  0.00    +0.000 A 
ATOM      7  C   UNL     1       1.226   3.039  19.029  0.00  0.00    +0.000 A 
ATOM      8  C   UNL     1       2.205   3.644  18.230  0.00  0.00    +0.000 A 
BRANCH   7   9
ATOM      9  N   UNL     1       0.650   1.806  18.636  0.00  0.00    +0.000 N 
ATOM     10  H   UNL     1       1.224   1.078  18.183  0.00  0.00    +0.000 HD
ATOM     11  H   UNL     1      -0.352   1.618  18.789  0.00  0.00    +0.000 HD
ENDBRANCH   7   9
ENDBRANCH   1   3
BRANCH   1  12
ATOM     12  O   UNL     1       4.818   4.743  17.240  0.00  0.00    +0.000 OA
BRANCH  12  13
ATOM     13  C   UNL     1       5.187   4.716  15.910  0.00  0.00    +0.000 C 
BRANCH  13  14
ATOM     14  C   UNL     1       6.606   4.174  15.730  0.00  0.00    +0.000 C 
BRANCH  14  15
ATOM     15  N   UNL     1       7.506   4.889  16.639  0.00  0.00    +0.000 NA
ATOM     16  H   UNL     1       7.274   4.633  17.624  0.00  0.00    +0.000 HD
BRANCH  15  17
ATOM     17  C   UNL     1       7.384   6.342  16.491  0.00  0.00    +0.000 C 
BRANCH  17  19
ATOM     18  C   UNL     1       7.935   6.084  18.951  0.00  0.00    +0.000 C 
ATOM     19  C   UNL     1       7.330   7.006  17.880  0.00  0.00    +0.000 C 
ATOM     20  C   UNL     1       8.066   8.347  17.857  0.00  0.00    +0.000 C 
ENDBRANCH  17  19
ENDBRANCH  15  17
ENDBRANCH  14  15
ENDBRANCH  13  14
ENDBRANCH  12  13
ENDBRANCH   1  12
TORSDOF 8
ENDMDL
MODEL 9
REMARK VINA RESULT:      -6.0      3.750      6.581
REMARK  Name = 
REMARK  10 active torsions:
REMARK  status: ('A' for Active; 'I' for Inactive)
REMARK    1  A    between atoms: C_1  and  C_2
REMARK    2  A    between atoms: C_2  and  C_3
REMARK    3  A    between atoms: C_2  and  C_4
REMARK    4  A    between atoms: C_4  and  N_5
REMARK    5  A    between atoms: N_5  and  C_6
REMARK    6  A    between atoms: C_6  and  C_7
REMARK    7  A    between atoms: C_7  and  O_8
REMARK    8  A    between atoms: O_8  and  C_9
REMARK    9  A    between atoms: C_9  and  C_11
REMARK   10  A    between atoms: C_15  and  N_16
REMARK                            x       y       z     vdW  Elec       q    Type
REMARK                         _______ _______ _______ _____ _____    ______ ____
ROOT
ATOM      1  C   UNL     1       4.084   4.996  17.822  0.00  0.00    +0.000 C 
ATOM      2  O   UNL     1       4.536   6.037  18.280  0.00  0.00    +0.000 OA
ENDROOT
BRANCH   1   3
ATOM      3  C   UNL     1       3.026   4.260  18.554  0.00  0.00    +0.000 A 
ATOM      4  C   UNL     1       1.930   3.706  17.868  0.00  0.00    +0.000 A 
ATOM      5  C   UNL     1       0.947   3.000  18.566  0.00  0.00    +0.000 A 
ATOM      6  C   UNL     1       1.042   2.843  19.951  0.00  0.00    +0.000 A 
ATOM      7  C   UNL     1       2.125   3.394  20.649  0.00  0.00    +0.000 A 
ATOM      8  C   UNL     1       3.114   4.097  19.949  0.00  0.00    +0.000 A 
BRANCH   7   9
ATOM      9  N   UNL     1       2.221   3.243  22.054  0.00  0.00    +0.000 N 
ATOM     10  H   UNL     1       3.011   2.732  22.476  0.00  0.00    +0.000 HD
ATOM     11  H   UNL     1       1.500   3.635  22.678  0.00  0.00    +0.000 HD
ENDBRANCH   7   9
ENDBRANCH   1   3
BRANCH   1  12
ATOM     12  O   UNL     1       4.497   4.540  16.610  0.00  0.00    +0.000 OA
BRANCH  12  13
ATOM     13  C   UNL     1       5.807   4.256  16.277  0.00  0.00    +0.000 C 
BRANCH  13  14
ATOM     14  C   UNL     1       6.181   4.843  14.914  0.00  0.00    +0.000 C 
BRANCH  14  15
ATOM     15  N   UNL     1       5.389   4.176  13.877  0.00  0.00    +0.000 NA
ATOM     16  H   UNL     1       4.827   3.410  14.313  0.00  0.00    +0.000 HD
BRANCH  15  17
ATOM     17  C   UNL     1       6.240   3.597  12.834  0.00  0.00    +0.000 C 
BRANCH  17  19
ATOM     18  C   UNL     1       4.320   3.190  11.230  0.00  0.00    +0.000 C 
ATOM     19  C   UNL     1       5.449   2.537  12.044  0.00  0.00    +0.000 C 
ATOM     20  C   UNL     1       6.385   1.755  11.120  0.00  0.00    +0.000 C 
ENDBRANCH  17  19
ENDBRANCH  15  17
ENDBRANCH  14  15
ENDBRANCH  13  14
ENDBRANCH  12  13
ENDBRANCH   1  12
TORSDOF 8
ENDMDL
