MODEL 1
REMARK VINA RESULT:      -7.6      0.000      0.000
REMARK  Name = 
REMARK  4 active torsions:
REMARK  status: ('A' for Active; 'I' for Inactive)
REMARK    1  A    between atoms: C_2  and  C_3
REMARK    2  A    between atoms: C_3  and  N_4
REMARK    3  A    between atoms: N_7  and  C_8
REMARK    4  A    between atoms: C_8  and  C_9
REMARK                            x       y       z     vdW  Elec       q    Type
REMARK                         _______ _______ _______ _____ _____    ______ ____
ROOT
ATOM      1  N   UNL     1       1.054   9.309  19.342  0.00  0.00    +0.000 N 
ATOM      2  C   UNL     1       1.333   9.323  17.920  0.00  0.00    +0.000 C 
ATOM      3  C   UNL     1       2.555   8.420  17.812  0.00  0.00    +0.000 C 
ATOM      4  N   UNL     1       2.427   7.574  18.979  0.00  0.00    +0.000 N 
ATOM      5  C   UNL     1       1.590   8.161  19.926  0.00  0.00    +0.000 C 
ATOM      6  O   UNL     1       1.375   7.757  21.057  0.00  0.00    +0.000 OA
ENDROOT
BRANCH   1   7
ATOM      7  C   UNL     1      -0.036  10.051  19.949  0.00  0.00    +0.000 C 
BRANCH   7   9
ATOM      8  O   UNL     1       1.097  11.050  21.846  0.00  0.00    +0.000 OA
ATOM      9  C   UNL     1       0.410  11.226  20.837  0.00  0.00    +0.000 C 
ATOM     10  N   UNL     1      -0.039  12.494  20.477  0.00  0.00    +0.000 N 
ATOM     11  C   UNL     1      -0.914  12.805  19.346  0.00  0.00    +0.000 C 
ATOM     12  C   UNL     1      -0.326  13.923  18.494  0.00  0.00    +0.000 C 
ATOM     13  C   UNL     1       0.027  15.143  19.346  0.00  0.00    +0.000 C 
ATOM     14  C   UNL     1       0.909  14.757  20.534  0.00  0.00    +0.000 C 
ATOM     15  C   UNL     1       0.282  13.630  21.338  0.00  0.00    +0.000 C 
ATOM     16  O   UNL     1      -1.189  15.751  19.817  0.00  0.00    +0.000 OA
ATOM     17  C   UNL     1      -0.997  17.152  19.612  0.00  0.00    +0.000 C 
ATOM     18  C   UNL     1      -0.132  17.203  18.383  0.00  0.00    +0.000 C 
ATOM     19  O   UNL     1       0.749  16.093  18.541  0.00  0.00    +0.000 OA
ENDBRANCH   7   9
ENDBRANCH   1   7
BRANCH   4  20
ATOM     20  C   UNL     1       3.288   6.445  19.240  0.00  0.00    +0.000 C 
BRANCH  20  21
ATOM     21  C   UNL     1       2.555   5.125  19.242  0.00  0.00    +0.000 A 
ATOM     22  C   UNL     1       2.004   4.610  18.057  0.00  0.00    +0.000 A 
ATOM     23  C   UNL     1       1.241   3.438  18.073  0.00  0.00    +0.000 A 
ATOM     24  C   UNL     1       1.020   2.766  19.274  0.00  0.00    +0.000 A 
ATOM     25  C   UNL     1       1.578   3.260  20.451  0.00  0.00    +0.000 A 
ATOM     26 CL   UNL     1       1.302   2.436  21.938  0.00  0.00    +0.000 Cl
ATOM     27  C   UNL     1       2.342   4.428  20.441  0.00  0.00    +0.000 A 
ENDBRANCH  20  21
ENDBRANCH   4  20
TORSDOF 4
ENDMDL
MODEL 2
REMARK VINA RESULT:      -7.5      2.005      2.361
REMARK  Name = 
REMARK  4 active torsions:
REMARK  status: ('A' for Active; 'I' for Inactive)
REMARK    1  A    between atoms: C_2  and  C_3
REMARK    2  A    between atoms: C_3  and  N_4
REMARK    3  A    between atoms: N_7  and  C_8
REMARK    4  A    between atoms: C_8  and  C_9
REMARK                            x       y       z     vdW  Elec       q    Type
REMARK                         _______ _______ _______ _____ _____    ______ ____
ROOT
ATOM      1  N   UNL     1       1.078   9.440  19.387  0.00  0.00    +0.000 N 
ATOM      2  C   UNL     1       1.351   9.178  17.989  0.00  0.00    +0.000 C 
ATOM      3  C   UNL     1       2.492   8.170  18.055  0.00  0.00    +0.000 C 
ATOM      4  N   UNL     1       2.298   7.559  19.352  0.00  0.00    +0.000 N 
ATOM      5  C   UNL     1       1.518   8.372  20.171  0.00  0.00    +0.000 C 
ATOM      6  O   UNL     1       1.274   8.195  21.353  0.00  0.00    +0.000 OA
ENDROOT
BRANCH   1   7
ATOM      7  C   UNL     1       0.057  10.367  19.842  0.00  0.00    +0.000 C 
BRANCH   7   9
ATOM      8  O   UNL     1       0.488  11.390  21.998  0.00  0.00    +0.000 OA
ATOM      9  C   UNL     1       0.575  11.479  20.770  0.00  0.00    +0.000 C 
ATOM     10  N   UNL     1       1.103  12.615  20.160  0.00  0.00    +0.000 N 
ATOM     11  C   UNL     1       1.186  12.854  18.719  0.00  0.00    +0.000 C 
ATOM     12  C   UNL     1       2.596  13.269  18.318  0.00  0.00    +0.000 C 
ATOM     13  C   UNL     1       3.090  14.446  19.160  0.00  0.00    +0.000 C 
ATOM     14  C   UNL     1       2.944  14.160  20.655  0.00  0.00    +0.000 C 
ATOM     15  C   UNL     1       1.524  13.737  20.996  0.00  0.00    +0.000 C 
ATOM     16  O   UNL     1       2.334  15.620  18.810  0.00  0.00    +0.000 OA
ATOM     17  C   UNL     1       3.310  16.656  18.693  0.00  0.00    +0.000 C 
ATOM     18  C   UNL     1       4.526  15.928  18.193  0.00  0.00    +0.000 C 
ATOM     19  O   UNL     1       4.482  14.680  18.882  0.00  0.00    +0.000 OA
ENDBRANCH   7   9
ENDBRANCH   1   7
BRANCH   4  20
ATOM     20  C   UNL     1       3.061   6.425  19.818  0.00  0.00    +0.000 C 
BRANCH  20  21
ATOM     21  C   UNL     1       2.357   5.106  19.608  0.00  0.00    +0.000 A 
ATOM     22  C   UNL     1       1.347   4.686  20.489  0.00  0.00    +0.000 A 
ATOM     23  C   UNL     1       0.761   3.423  20.355  0.00  0.00    +0.000 A 
ATOM     24  C   UNL     1       1.178   2.565  19.338  0.00  0.00    +0.000 A 
ATOM     25  C   UNL     1       2.167   2.982  18.449  0.00  0.00    +0.000 A 
ATOM     26 CL   UNL     1       2.689   1.923  17.195  0.00  0.00    +0.000 Cl
ATOM     27  C   UNL     1       2.753   4.242  18.577  0.00  0.00    +0.000 A 
ENDBRANCH  20  21
ENDBRANCH   4  20
TORSDOF 4
ENDMDL
MODEL 3
REMARK VINA RESULT:      -7.5      2.119      2.916
REMARK  Name = 
REMARK  4 active torsions:
REMARK  status: ('A' for Active; 'I' for Inactive)
REMARK    1  A    between atoms: C_2  and  C_3
REMARK    2  A    between atoms: C_3  and  N_4
REMARK    3  A    between atoms: N_7  and  C_8
REMARK    4  A    between atoms: C_8  and  C_9
REMARK                            x       y       z     vdW  Elec       q    Type
REMARK                         _______ _______ _______ _____ _____    ______ ____
ROOT
ATOM      1  N   UNL     1       0.791   9.472  19.392  0.00  0.00    +0.000 N 
ATOM      2  C   UNL     1       1.043   9.463  17.966  0.00  0.00    +0.000 C 
ATOM      3  C   UNL     1       2.302   8.614  17.855  0.00  0.00    +0.000 C 
ATOM      4  N   UNL     1       2.235   7.792  19.044  0.00  0.00    +0.000 N 
ATOM      5  C   UNL     1       1.390   8.364  19.993  0.00  0.00    +0.000 C 
ATOM      6  O   UNL     1       1.215   7.979  21.138  0.00  0.00    +0.000 OA
ENDROOT
BRANCH   1   7
ATOM      7  C   UNL     1      -0.321  10.178  20.003  0.00  0.00    +0.000 C 
BRANCH   7   9
ATOM      8  O   UNL     1       0.157  12.323  18.978  0.00  0.00    +0.000 OA
ATOM      9  C   UNL     1      -0.183  11.710  19.994  0.00  0.00    +0.000 C 
ATOM     10  N   UNL     1      -0.413  12.372  21.198  0.00  0.00    +0.000 N 
ATOM     11  C   UNL     1      -0.748  11.738  22.474  0.00  0.00    +0.000 C 
ATOM     12  C   UNL     1      -1.979  12.387  23.096  0.00  0.00    +0.000 C 
ATOM     13  C   UNL     1      -1.818  13.905  23.192  0.00  0.00    +0.000 C 
ATOM     14  C   UNL     1      -1.428  14.511  21.844  0.00  0.00    +0.000 C 
ATOM     15  C   UNL     1      -0.206  13.817  21.263  0.00  0.00    +0.000 C 
ATOM     16  O   UNL     1      -0.808  14.205  24.173  0.00  0.00    +0.000 OA
ATOM     17  C   UNL     1      -1.361  15.270  24.947  0.00  0.00    +0.000 C 
ATOM     18  C   UNL     1      -2.836  14.982  24.924  0.00  0.00    +0.000 C 
ATOM     19  O   UNL     1      -3.065  14.491  23.605  0.00  0.00    +0.000 OA
ENDBRANCH   7   9
ENDBRANCH   1   7
BRANCH   4  20
ATOM     20  C   UNL     1       3.151   6.710  19.316  0.00  0.00    +0.000 C 
BRANCH  20  21
ATOM     21  C   UNL     1       2.502   5.349  19.249  0.00  0.00    +0.000 A 
ATOM     22  C   UNL     1       2.034   4.839  18.027  0.00  0.00    +0.000 A 
ATOM     23  C   UNL     1       1.344   3.622  17.978  0.00  0.00    +0.000 A 
ATOM     24  C   UNL     1       1.116   2.901  19.149  0.00  0.00    +0.000 A 
ATOM     25  C   UNL     1       1.594   3.392  20.362  0.00  0.00    +0.000 A 
ATOM     26 CL   UNL     1       1.309   2.507  21.812  0.00  0.00    +0.000 Cl
ATOM     27  C   UNL     1       2.284   4.604  20.418  0.00  0.00    +0.000 A 
ENDBRANCH  20  21
ENDBRANCH   4  20
TORSDOF 4
ENDMDL
MODEL 4
REMARK VINA RESULT:      -7.5      2.618      3.039
REMARK  Name = 
REMARK  4 active torsions:
REMARK  status: ('A' for Active; 'I' for Inactive)
REMARK    1  A    between atoms: C_2  and  C_3
REMARK    2  A    between atoms: C_3  and  N_4
REMARK    3  A    between atoms: N_7  and  C_8
REMARK    4  A    between atoms: C_8  and  C_9
REMARK                            x       y       z     vdW  Elec       q    Type
REMARK                         _______ _______ _______ _____ _____    ______ ____
ROOT
ATOM      1  N   UNL     1       1.295   9.223  19.288  0.00  0.00    +0.000 N 
ATOM      2  C   UNL     1       1.716   9.039  17.914  0.00  0.00    +0.000 C 
ATOM      3  C   UNL     1       2.786   7.961  18.036  0.00  0.00    +0.000 C 
ATOM      4  N   UNL     1       2.408   7.278  19.254  0.00  0.00    +0.000 N 
ATOM      5  C   UNL     1       1.581   8.081  20.037  0.00  0.00    +0.000 C 
ATOM      6  O   UNL     1       1.192   7.841  21.167  0.00  0.00    +0.000 OA
ENDROOT
BRANCH   1   7
ATOM      7  C   UNL     1       0.278  10.179  19.691  0.00  0.00    +0.000 C 
BRANCH   7   9
ATOM      8  O   UNL     1       0.724  11.122  21.880  0.00  0.00    +0.000 OA
ATOM      9  C   UNL     1       0.775  11.269  20.656  0.00  0.00    +0.000 C 
ATOM     10  N   UNL     1       1.242  12.451  20.086  0.00  0.00    +0.000 N 
ATOM     11  C   UNL     1       1.278  12.757  18.656  0.00  0.00    +0.000 C 
ATOM     12  C   UNL     1       2.660  13.247  18.240  0.00  0.00    +0.000 C 
ATOM     13  C   UNL     1       3.129  14.404  19.124  0.00  0.00    +0.000 C 
ATOM     14  C   UNL     1       3.032  14.046  20.607  0.00  0.00    +0.000 C 
ATOM     15  C   UNL     1       1.640  13.551  20.962  0.00  0.00    +0.000 C 
ATOM     16  O   UNL     1       2.318  15.561  18.846  0.00  0.00    +0.000 OA
ATOM     17  C   UNL     1       3.249  16.640  18.752  0.00  0.00    +0.000 C 
ATOM     18  C   UNL     1       4.480  15.985  18.191  0.00  0.00    +0.000 C 
ATOM     19  O   UNL     1       4.503  14.707  18.823  0.00  0.00    +0.000 OA
ENDBRANCH   7   9
ENDBRANCH   1   7
BRANCH   4  20
ATOM     20  C   UNL     1       3.050   6.071  19.720  0.00  0.00    +0.000 C 
BRANCH  20  21
ATOM     21  C   UNL     1       3.833   5.359  18.643  0.00  0.00    +0.000 A 
ATOM     22  C   UNL     1       3.174   4.597  17.665  0.00  0.00    +0.000 A 
ATOM     23  C   UNL     1       3.900   3.857  16.726  0.00  0.00    +0.000 A 
ATOM     24  C   UNL     1       5.293   3.870  16.753  0.00  0.00    +0.000 A 
ATOM     25  C   UNL     1       5.954   4.639  17.709  0.00  0.00    +0.000 A 
ATOM     26 CL   UNL     1       7.676   4.654  17.750  0.00  0.00    +0.000 Cl
ATOM     27  C   UNL     1       5.235   5.381  18.648  0.00  0.00    +0.000 A 
ENDBRANCH  20  21
ENDBRANCH   4  20
TORSDOF 4
ENDMDL
MODEL 5
REMARK VINA RESULT:      -7.4      1.331      1.778
REMARK  Name = 
REMARK  4 active torsions:
REMARK  status: ('A' for Active; 'I' for Inactive)
REMARK    1  A    between atoms: C_2  and  C_3
REMARK    2  A    between atoms: C_3  and  N_4
REMARK    3  A    between atoms: N_7  and  C_8
REMARK    4  A    between atoms: C_8  and  C_9
REMARK                            x       y       z     vdW  Elec       q    Type
REMARK                         _______ _______ _______ _____ _____    ______ ____
ROOT
ATOM      1  N   UNL     1       1.010   9.440  19.454  0.00  0.00    +0.000 N 
ATOM      2  C   UNL     1       1.131   9.401  18.011  0.00  0.00    +0.000 C 
ATOM      3  C   UNL     1       2.334   8.489  17.802  0.00  0.00    +0.000 C 
ATOM      4  N   UNL     1       2.336   7.688  19.007  0.00  0.00    +0.000 N 
ATOM      5  C   UNL     1       1.607   8.312  20.018  0.00  0.00    +0.000 C 
ATOM      6  O   UNL     1       1.518   7.951  21.180  0.00  0.00    +0.000 OA
ENDROOT
BRANCH   1   7
ATOM      7  C   UNL     1      -0.007  10.208  20.149  0.00  0.00    +0.000 C 
BRANCH   7   9
ATOM      8  O   UNL     1      -1.688  11.268  18.760  0.00  0.00    +0.000 OA
ATOM      9  C   UNL     1      -0.599  11.368  19.331  0.00  0.00    +0.000 C 
ATOM     10  N   UNL     1       0.173  12.523  19.223  0.00  0.00    +0.000 N 
ATOM     11  C   UNL     1       1.504  12.720  19.797  0.00  0.00    +0.000 C 
ATOM     12  C   UNL     1       1.566  14.018  20.592  0.00  0.00    +0.000 C 
ATOM     13  C   UNL     1       1.080  15.204  19.758  0.00  0.00    +0.000 C 
ATOM     14  C   UNL     1      -0.296  14.930  19.150  0.00  0.00    +0.000 C 
ATOM     15  C   UNL     1      -0.304  13.618  18.382  0.00  0.00    +0.000 C 
ATOM     16  O   UNL     1       2.034  15.462  18.712  0.00  0.00    +0.000 OA
ATOM     17  C   UNL     1       2.198  16.881  18.713  0.00  0.00    +0.000 C 
ATOM     18  C   UNL     1       2.007  17.248  20.158  0.00  0.00    +0.000 C 
ATOM     19  O   UNL     1       0.975  16.367  20.599  0.00  0.00    +0.000 OA
ENDBRANCH   7   9
ENDBRANCH   1   7
BRANCH   4  20
ATOM     20  C   UNL     1       3.220   6.566  19.214  0.00  0.00    +0.000 C 
BRANCH  20  21
ATOM     21  C   UNL     1       2.507   5.235  19.202  0.00  0.00    +0.000 A 
ATOM     22  C   UNL     1       1.979   4.717  18.009  0.00  0.00    +0.000 A 
ATOM     23  C   UNL     1       1.233   3.533  18.011  0.00  0.00    +0.000 A 
ATOM     24  C   UNL     1       1.008   2.853  19.207  0.00  0.00    +0.000 A 
ATOM     25  C   UNL     1       1.544   3.351  20.392  0.00  0.00    +0.000 A 
ATOM     26 CL   UNL     1       1.263   2.517  21.873  0.00  0.00    +0.000 Cl
ATOM     27  C   UNL     1       2.290   4.531  20.396  0.00  0.00    +0.000 A 
ENDBRANCH  20  21
ENDBRANCH   4  20
TORSDOF 4
ENDMDL
MODEL 6
REMARK VINA RESULT:      -7.4      2.332      2.699
REMARK  Name = 
REMARK  4 active torsions:
REMARK  status: ('A' for Active; 'I' for Inactive)
REMARK    1  A    between atoms: C_2  and  C_3
REMARK    2  A    between atoms: C_3  and  N_4
REMARK    3  A    between atoms: N_7  and  C_8
REMARK    4  A    between atoms: C_8  and  C_9
REMARK                            x       y       z     vdW  Elec       q    Type
REMARK                         _______ _______ _______ _____ _____    ______ ____
ROOT
ATOM      1  N   UNL     1       0.999   9.535  19.357  0.00  0.00    +0.000 N 
ATOM      2  C   UNL     1       1.262   9.334  17.947  0.00  0.00    +0.000 C 
ATOM      3  C   UNL     1       2.407   8.329  17.962  0.00  0.00    +0.000 C 
ATOM      4  N   UNL     1       2.226   7.662  19.233  0.00  0.00    +0.000 N 
ATOM      5  C   UNL     1       1.448   8.437  20.092  0.00  0.00    +0.000 C 
ATOM      6  O   UNL     1       1.214   8.209  21.267  0.00  0.00    +0.000 OA
ENDROOT
BRANCH   1   7
ATOM      7  C   UNL     1      -0.023  10.437  19.858  0.00  0.00    +0.000 C 
BRANCH   7   9
ATOM      8  O   UNL     1       0.411  11.432  22.027  0.00  0.00    +0.000 OA
ATOM      9  C   UNL     1       0.503  11.533  20.800  0.00  0.00    +0.000 C 
ATOM     10  N   UNL     1       1.043  12.671  20.205  0.00  0.00    +0.000 N 
ATOM     11  C   UNL     1       1.133  12.925  18.767  0.00  0.00    +0.000 C 
ATOM     12  C   UNL     1       2.549  13.331  18.374  0.00  0.00    +0.000 C 
ATOM     13  C   UNL     1       3.051  14.493  19.231  0.00  0.00    +0.000 C 
ATOM     14  C   UNL     1       2.898  14.193  20.722  0.00  0.00    +0.000 C 
ATOM     15  C   UNL     1       1.473  13.779  21.054  0.00  0.00    +0.000 C 
ATOM     16  O   UNL     1       2.308  15.678  18.892  0.00  0.00    +0.000 OA
ATOM     17  C   UNL     1       3.294  16.707  18.789  0.00  0.00    +0.000 C 
ATOM     18  C   UNL     1       4.505  15.972  18.285  0.00  0.00    +0.000 C 
ATOM     19  O   UNL     1       4.447  14.717  18.960  0.00  0.00    +0.000 OA
ENDBRANCH   7   9
ENDBRANCH   1   7
BRANCH   4  20
ATOM     20  C   UNL     1       2.997   6.514  19.646  0.00  0.00    +0.000 C 
BRANCH  20  21
ATOM     21  C   UNL     1       2.967   5.385  18.644  0.00  0.00    +0.000 A 
ATOM     22  C   UNL     1       1.848   4.540  18.551  0.00  0.00    +0.000 A 
ATOM     23  C   UNL     1       1.856   3.435  17.694  0.00  0.00    +0.000 A 
ATOM     24  C   UNL     1       2.982   3.162  16.918  0.00  0.00    +0.000 A 
ATOM     25  C   UNL     1       4.088   4.006  16.990  0.00  0.00    +0.000 A 
ATOM     26 CL   UNL     1       5.483   3.668  16.037  0.00  0.00    +0.000 Cl
ATOM     27  C   UNL     1       4.085   5.111  17.842  0.00  0.00    +0.000 A 
ENDBRANCH  20  21
ENDBRANCH   4  20
TORSDOF 4
ENDMDL
MODEL 7
REMARK VINA RESULT:      -7.4      3.386      9.227
REMARK  Name = 
REMARK  4 active torsions:
REMARK  status: ('A' for Active; 'I' for Inactive)
REMARK    1  A    between atoms: C_2  and  C_3
REMARK    2  A    between atoms: C_3  and  N_4
REMARK    3  A    between atoms: N_7  and  C_8
REMARK    4  A    between atoms: C_8  and  C_9
REMARK                            x       y       z     vdW  Elec       q    Type
REMARK                         _______ _______ _______ _____ _____    ______ ____
ROOT
ATOM      1  N   UNL     1       0.549  10.036  19.437  0.00  0.00    +0.000 N 
ATOM      2  C   UNL     1      -0.291  10.149  18.262  0.00  0.00    +0.000 C 
ATOM      3  C   UNL     1      -1.331  11.176  18.694  0.00  0.00    +0.000 C 
ATOM      4  N   UNL     1      -0.632  11.920  19.719  0.00  0.00    +0.000 N 
ATOM      5  C   UNL     1       0.444  11.188  20.217  0.00  0.00    +0.000 C 
ATOM      6  O   UNL     1       1.153  11.488  21.163  0.00  0.00    +0.000 OA
ENDROOT
BRANCH   1   7
ATOM      7  C   UNL     1       1.695   9.148  19.516  0.00  0.00    +0.000 C 
BRANCH   7   9
ATOM      8  O   UNL     1       0.889   7.985  21.485  0.00  0.00    +0.000 OA
ATOM      9  C   UNL     1       1.482   7.911  20.406  0.00  0.00    +0.000 C 
ATOM     10  N   UNL     1       2.033   6.711  19.961  0.00  0.00    +0.000 N 
ATOM     11  C   UNL     1       2.815   6.529  18.738  0.00  0.00    +0.000 C 
ATOM     12  C   UNL     1       2.271   5.368  17.914  0.00  0.00    +0.000 C 
ATOM     13  C   UNL     1       2.151   4.097  18.757  0.00  0.00    +0.000 C 
ATOM     14  C   UNL     1       1.361   4.352  20.040  0.00  0.00    +0.000 C 
ATOM     15  C   UNL     1       1.936   5.528  20.813  0.00  0.00    +0.000 C 
ATOM     16  O   UNL     1       3.472   3.626  19.081  0.00  0.00    +0.000 OA
ATOM     17  C   UNL     1       3.420   2.217  18.851  0.00  0.00    +0.000 C 
ATOM     18  C   UNL     1       2.443   2.090  17.716  0.00  0.00    +0.000 C 
ATOM     19  O   UNL     1       1.462   3.086  17.999  0.00  0.00    +0.000 OA
ENDBRANCH   7   9
ENDBRANCH   1   7
BRANCH   4  20
ATOM     20  C   UNL     1      -1.166  13.109  20.342  0.00  0.00    +0.000 C 
BRANCH  20  21
ATOM     21  C   UNL     1      -2.534  12.902  20.945  0.00  0.00    +0.000 A 
ATOM     22  C   UNL     1      -3.688  12.986  20.148  0.00  0.00    +0.000 A 
ATOM     23  C   UNL     1      -4.961  12.892  20.720  0.00  0.00    +0.000 A 
ATOM     24  C   UNL     1      -5.095  12.714  22.097  0.00  0.00    +0.000 A 
ATOM     25  C   UNL     1      -3.956  12.612  22.891  0.00  0.00    +0.000 A 
ATOM     26 CL   UNL     1      -4.118  12.396  24.593  0.00  0.00    +0.000 Cl
ATOM     27  C   UNL     1      -2.683  12.702  22.326  0.00  0.00    +0.000 A 
ENDBRANCH  20  21
ENDBRANCH   4  20
TORSDOF 4
ENDMDL
MODEL 8
REMARK VINA RESULT:      -7.3      1.892      2.157
REMARK  Name = 
REMARK  4 active torsions:
REMARK  status: ('A' for Active; 'I' for Inactive)
REMARK    1  A    between atoms: C_2  and  C_3
REMARK    2  A    between atoms: C_3  and  N_4
REMARK    3  A    between atoms: N_7  and  C_8
REMARK    4  A    between atoms: C_8  and  C_9
REMARK                            x       y       z     vdW  Elec       q    Type
REMARK                         _______ _______ _______ _____ _____    ______ ____
ROOT
ATOM      1  N   UNL     1       1.374   9.063  19.290  0.00  0.00    +0.000 N 
ATOM      2  C   UNL     1       1.675   8.879  17.884  0.00  0.00    +0.000 C 
ATOM      3  C   UNL     1       2.876   7.942  17.921  0.00  0.00    +0.000 C 
ATOM      4  N   UNL     1       2.710   7.264  19.188  0.00  0.00    +0.000 N 
ATOM      5  C   UNL     1       1.873   7.992  20.033  0.00  0.00    +0.000 C 
ATOM      6  O   UNL     1       1.631   7.749  21.203  0.00  0.00    +0.000 OA
ENDROOT
BRANCH   1   7
ATOM      7  C   UNL     1       0.293   9.904  19.772  0.00  0.00    +0.000 C 
BRANCH   7   9
ATOM      8  O   UNL     1       0.736  10.939  21.919  0.00  0.00    +0.000 OA
ATOM      9  C   UNL     1       0.742  11.053  20.690  0.00  0.00    +0.000 C 
ATOM     10  N   UNL     1       1.110  12.247  20.074  0.00  0.00    +0.000 N 
ATOM     11  C   UNL     1       1.084  12.512  18.636  0.00  0.00    +0.000 C 
ATOM     12  C   UNL     1       2.416  13.082  18.164  0.00  0.00    +0.000 C 
ATOM     13  C   UNL     1       2.830  14.294  19.001  0.00  0.00    +0.000 C 
ATOM     14  C   UNL     1       2.801  13.975  20.495  0.00  0.00    +0.000 C 
ATOM     15  C   UNL     1       1.456  13.397  20.907  0.00  0.00    +0.000 C 
ATOM     16  O   UNL     1       1.934  15.384  18.716  0.00  0.00    +0.000 OA
ATOM     17  C   UNL     1       2.785  16.521  18.564  0.00  0.00    +0.000 C 
ATOM     18  C   UNL     1       4.041  15.934  17.984  0.00  0.00    +0.000 C 
ATOM     19  O   UNL     1       4.171  14.680  18.650  0.00  0.00    +0.000 OA
ENDBRANCH   7   9
ENDBRANCH   1   7
BRANCH   4  20
ATOM     20  C   UNL     1       3.538   6.162  19.615  0.00  0.00    +0.000 C 
BRANCH  20  21
ATOM     21  C   UNL     1       3.236   4.873  18.888  0.00  0.00    +0.000 A 
ATOM     22  C   UNL     1       4.068   4.427  17.848  0.00  0.00    +0.000 A 
ATOM     23  C   UNL     1       3.738   3.287  17.108  0.00  0.00    +0.000 A 
ATOM     24  C   UNL     1       2.572   2.579  17.400  0.00  0.00    +0.000 A 
ATOM     25  C   UNL     1       1.753   3.005  18.443  0.00  0.00    +0.000 A 
ATOM     26 CL   UNL     1       0.309   2.136  18.803  0.00  0.00    +0.000 Cl
ATOM     27  C   UNL     1       2.078   4.141  19.186  0.00  0.00    +0.000 A 
ENDBRANCH  20  21
ENDBRANCH   4  20
TORSDOF 4
ENDMDL
MODEL 9
REMARK VINA RESULT:      -7.3      3.312      4.222
REMARK  Name = 
REMARK  4 active torsions:
REMARK  status: ('A' for Active; 'I' for Inactive)
REMARK    1  A    between atoms: C_2  and  C_3
REMARK    2  A    between atoms: C_3  and  N_4
REMARK    3  A    between atoms: N_7  and  C_8
REMARK    4  A    between atoms: C_8  and  C_9
REMARK                            x       y       z     vdW  Elec       q    Type
REMARK                         _______ _______ _______ _____ _____    ______ ____
ROOT
ATOM      1  N   UNL     1       0.183   9.769  19.261  0.00  0.00    +0.000 N 
ATOM      2  C   UNL     1       0.047   9.507  20.679  0.00  0.00    +0.000 C 
ATOM      3  C   UNL     1       0.832   8.213  20.856  0.00  0.00    +0.000 C 
ATOM      4  N   UNL     1       1.764   8.255  19.750  0.00  0.00    +0.000 N 
ATOM      5  C   UNL     1       1.319   9.130  18.760  0.00  0.00    +0.000 C 
ATOM      6  O   UNL     1       1.816   9.298  17.659  0.00  0.00    +0.000 OA
ENDROOT
BRANCH   1   7
ATOM      7  C   UNL     1      -0.418  10.913  18.599  0.00  0.00    +0.000 C 
BRANCH   7   9
ATOM      8  O   UNL     1      -1.875   9.745  17.051  0.00  0.00    +0.000 OA
ATOM      9  C   UNL     1      -1.765  10.618  17.917  0.00  0.00    +0.000 C 
ATOM     10  N   UNL     1      -2.846  11.415  18.285  0.00  0.00    +0.000 N 
ATOM     11  C   UNL     1      -2.809  12.521  19.243  0.00  0.00    +0.000 C 
ATOM     12  C   UNL     1      -3.912  12.376  20.283  0.00  0.00    +0.000 C 
ATOM     13  C   UNL     1      -5.278  12.187  19.622  0.00  0.00    +0.000 C 
ATOM     14  C   UNL     1      -5.252  11.048  18.604  0.00  0.00    +0.000 C 
ATOM     15  C   UNL     1      -4.125  11.236  17.601  0.00  0.00    +0.000 C 
ATOM     16  O   UNL     1      -5.656  13.415  18.973  0.00  0.00    +0.000 OA
ATOM     17  C   UNL     1      -7.026  13.605  19.327  0.00  0.00    +0.000 C 
ATOM     18  C   UNL     1      -7.113  13.003  20.702  0.00  0.00    +0.000 C 
ATOM     19  O   UNL     1      -6.255  11.866  20.630  0.00  0.00    +0.000 OA
ENDBRANCH   7   9
ENDBRANCH   1   7
BRANCH   4  20
ATOM     20  C   UNL     1       2.830   7.298  19.571  0.00  0.00    +0.000 C 
BRANCH  20  21
ATOM     21  C   UNL     1       2.334   5.902  19.279  0.00  0.00    +0.000 A 
ATOM     22  C   UNL     1       1.994   5.523  17.970  0.00  0.00    +0.000 A 
ATOM     23  C   UNL     1       1.443   4.264  17.711  0.00  0.00    +0.000 A 
ATOM     24  C   UNL     1       1.226   3.368  18.757  0.00  0.00    +0.000 A 
ATOM     25  C   UNL     1       1.578   3.730  20.055  0.00  0.00    +0.000 A 
ATOM     26 CL   UNL     1       1.307   2.628  21.352  0.00  0.00    +0.000 Cl
ATOM     27  C   UNL     1       2.130   4.984  20.320  0.00  0.00    +0.000 A 
ENDBRANCH  20  21
ENDBRANCH   4  20
TORSDOF 4
ENDMDL
