MODEL 1
REMARK VINA RESULT:      -7.7      0.000      0.000
REMARK  Name = 
REMARK  7 active torsions:
REMARK  status: ('A' for Active; 'I' for Inactive)
REMARK    1  A    between atoms: C_1  and  O_2
REMARK    2  A    between atoms: O_2  and  C_3
REMARK    3  A    between atoms: C_3  and  C_4
REMARK    4  A    between atoms: N_6  and  S_7
REMARK    5  A    between atoms: S_7  and  C_10
REMARK    6  A    between atoms: C_13  and  C_14
REMARK    7  A    between atoms: N_22  and  C_23
REMARK                            x       y       z     vdW  Elec       q    Type
REMARK                         _______ _______ _______ _____ _____    ______ ____
ROOT
ATOM      1  C   UNL     1       2.991   6.461  19.330  0.00  0.00    +0.000 C 
ATOM      2  C   UNL     1       3.727   6.306  17.970  0.00  0.00    +0.000 C 
ATOM      3  N   UNL     1       4.001   4.911  17.564  0.00  0.00    +0.000 NA
ATOM      4  C   UNL     1       2.847   3.994  17.513  0.00  0.00    +0.000 C 
ATOM      5  C   UNL     1       2.057   4.182  18.748  0.00  0.00    +0.000 A 
ATOM      6  C   UNL     1       2.128   5.254  19.618  0.00  0.00    +0.000 A 
ATOM      7  C   UNL     1       1.477   4.748  20.765  0.00  0.00    +0.000 A 
ATOM      8  N   UNL     1       0.826   3.607  20.537  0.00  0.00    +0.000 NA
ATOM      9  N   UNL     1       1.177   3.284  19.283  0.00  0.00    +0.000 N 
ATOM     10  C   UNL     1       0.671   2.066  18.696  0.00  0.00    +0.000 C 
ENDROOT
BRANCH   3  11
ATOM     11  S   UNL     1       5.564   4.324  17.613  0.00  0.00    +0.000 S 
ATOM     12  O   UNL     1       5.745   3.595  18.848  0.00  0.00    +0.000 OA
ATOM     13  O   UNL     1       5.857   3.701  16.343  0.00  0.00    +0.000 OA
BRANCH  11  14
ATOM     14  C   UNL     1       6.562   5.798  17.708  0.00  0.00    +0.000 A 
ATOM     15  C   UNL     1       6.246   6.888  16.896  0.00  0.00    +0.000 A 
ATOM     16  C   UNL     1       6.939   8.089  17.058  0.00  0.00    +0.000 A 
ATOM     17  C   UNL     1       7.940   8.208  18.032  0.00  0.00    +0.000 A 
ATOM     18  C   UNL     1       8.631   9.520  18.263  0.00  0.00    +0.000 C 
ATOM     19  C   UNL     1       8.253   7.100  18.834  0.00  0.00    +0.000 A 
ATOM     20  C   UNL     1       7.564   5.896  18.677  0.00  0.00    +0.000 A 
ENDBRANCH  11  14
ENDBRANCH   3  11
BRANCH   1  21
ATOM     21  C   UNL     1       2.292   7.845  19.267  0.00  0.00    +0.000 C 
BRANCH  21  23
ATOM     22  C   UNL     1       1.871   9.738  17.895  0.00  0.00    +0.000 C 
ATOM     23  O   UNL     1       2.353   8.397  17.950  0.00  0.00    +0.000 OA
ENDBRANCH  21  23
ENDBRANCH   1  21
TORSDOF 4
ENDMDL
MODEL 2
REMARK VINA RESULT:      -7.6      2.281      3.079
REMARK  Name = 
REMARK  7 active torsions:
REMARK  status: ('A' for Active; 'I' for Inactive)
REMARK    1  A    between atoms: C_1  and  O_2
REMARK    2  A    between atoms: O_2  and  C_3
REMARK    3  A    between atoms: C_3  and  C_4
REMARK    4  A    between atoms: N_6  and  S_7
REMARK    5  A    between atoms: S_7  and  C_10
REMARK    6  A    between atoms: C_13  and  C_14
REMARK    7  A    between atoms: N_22  and  C_23
REMARK                            x       y       z     vdW  Elec       q    Type
REMARK                         _______ _______ _______ _____ _____    ______ ____
ROOT
ATOM      1  C   UNL     1       2.720   6.952  19.292  0.00  0.00    +0.000 C 
ATOM      2  C   UNL     1       3.496   6.846  17.949  0.00  0.00    +0.000 C 
ATOM      3  N   UNL     1       4.011   5.497  17.631  0.00  0.00    +0.000 NA
ATOM      4  C   UNL     1       3.031   4.395  17.628  0.00  0.00    +0.000 C 
ATOM      5  C   UNL     1       2.199   4.517  18.843  0.00  0.00    +0.000 A 
ATOM      6  C   UNL     1       2.071   5.634  19.647  0.00  0.00    +0.000 A 
ATOM      7  C   UNL     1       1.496   5.093  20.818  0.00  0.00    +0.000 A 
ATOM      8  N   UNL     1       1.053   3.846  20.656  0.00  0.00    +0.000 NA
ATOM      9  N   UNL     1       1.476   3.515  19.426  0.00  0.00    +0.000 N 
ATOM     10  C   UNL     1       1.195   2.195  18.911  0.00  0.00    +0.000 C 
ENDROOT
BRANCH   3  11
ATOM     11  S   UNL     1       5.650   5.190  17.727  0.00  0.00    +0.000 S 
ATOM     12  O   UNL     1       6.335   6.430  18.015  0.00  0.00    +0.000 OA
ATOM     13  O   UNL     1       5.848   4.030  18.564  0.00  0.00    +0.000 OA
BRANCH  11  14
ATOM     14  C   UNL     1       6.084   4.710  16.066  0.00  0.00    +0.000 A 
ATOM     15  C   UNL     1       5.196   3.925  15.329  0.00  0.00    +0.000 A 
ATOM     16  C   UNL     1       5.468   3.654  13.987  0.00  0.00    +0.000 A 
ATOM     17  C   UNL     1       6.619   4.172  13.377  0.00  0.00    +0.000 A 
ATOM     18  C   UNL     1       6.874   3.950  11.914  0.00  0.00    +0.000 C 
ATOM     19  C   UNL     1       7.507   4.951  14.132  0.00  0.00    +0.000 A 
ATOM     20  C   UNL     1       7.241   5.225  15.475  0.00  0.00    +0.000 A 
ENDBRANCH  11  14
ENDBRANCH   3  11
BRANCH   1  21
ATOM     21  C   UNL     1       1.796   8.189  19.139  0.00  0.00    +0.000 C 
BRANCH  21  23
ATOM     22  C   UNL     1       1.977  10.262  17.991  0.00  0.00    +0.000 C 
ATOM     23  O   UNL     1       2.004   8.840  17.883  0.00  0.00    +0.000 OA
ENDBRANCH  21  23
ENDBRANCH   1  21
TORSDOF 4
ENDMDL
MODEL 3
REMARK VINA RESULT:      -7.5      2.289      3.133
REMARK  Name = 
REMARK  7 active torsions:
REMARK  status: ('A' for Active; 'I' for Inactive)
REMARK    1  A    between atoms: C_1  and  O_2
REMARK    2  A    between atoms: O_2  and  C_3
REMARK    3  A    between atoms: C_3  and  C_4
REMARK    4  A    between atoms: N_6  and  S_7
REMARK    5  A    between atoms: S_7  and  C_10
REMARK    6  A    between atoms: C_13  and  C_14
REMARK    7  A    between atoms: N_22  and  C_23
REMARK                            x       y       z     vdW  Elec       q    Type
REMARK                         _______ _______ _______ _____ _____    ______ ____
ROOT
ATOM      1  C   UNL     1       2.763   6.835  19.481  0.00  0.00    +0.000 C 
ATOM      2  C   UNL     1       3.475   6.812  18.099  0.00  0.00    +0.000 C 
ATOM      3  N   UNL     1       3.928   5.477  17.652  0.00  0.00    +0.000 NA
ATOM      4  C   UNL     1       2.911   4.410  17.609  0.00  0.00    +0.000 C 
ATOM      5  C   UNL     1       2.138   4.461  18.868  0.00  0.00    +0.000 A 
ATOM      6  C   UNL     1       2.085   5.514  19.761  0.00  0.00    +0.000 A 
ATOM      7  C   UNL     1       1.544   4.898  20.912  0.00  0.00    +0.000 A 
ATOM      8  N   UNL     1       1.050   3.682  20.673  0.00  0.00    +0.000 NA
ATOM      9  N   UNL     1       1.407   3.438  19.403  0.00  0.00    +0.000 N 
ATOM     10  C   UNL     1       1.058   2.173  18.800  0.00  0.00    +0.000 C 
ENDROOT
BRANCH   3  11
ATOM     11  S   UNL     1       5.558   5.113  17.647  0.00  0.00    +0.000 S 
ATOM     12  O   UNL     1       6.293   6.282  18.071  0.00  0.00    +0.000 OA
ATOM     13  O   UNL     1       5.744   3.846  18.316  0.00  0.00    +0.000 OA
BRANCH  11  14
ATOM     14  C   UNL     1       5.922   4.846  15.923  0.00  0.00    +0.000 A 
ATOM     15  C   UNL     1       7.117   5.336  15.394  0.00  0.00    +0.000 A 
ATOM     16  C   UNL     1       7.469   5.020  14.081  0.00  0.00    +0.000 A 
ATOM     17  C   UNL     1       6.637   4.210  13.297  0.00  0.00    +0.000 A 
ATOM     18  C   UNL     1       7.050   3.802  11.913  0.00  0.00    +0.000 C 
ATOM     19  C   UNL     1       5.434   3.732  13.838  0.00  0.00    +0.000 A 
ATOM     20  C   UNL     1       5.076   4.045  15.151  0.00  0.00    +0.000 A 
ENDBRANCH  11  14
ENDBRANCH   3  11
BRANCH   1  21
ATOM     21  C   UNL     1       1.877   8.108  19.469  0.00  0.00    +0.000 C 
BRANCH  21  23
ATOM     22  C   UNL     1       1.468  10.109  18.255  0.00  0.00    +0.000 C 
ATOM     23  O   UNL     1       1.918   8.758  18.196  0.00  0.00    +0.000 OA
ENDBRANCH  21  23
ENDBRANCH   1  21
TORSDOF 4
ENDMDL
MODEL 4
REMARK VINA RESULT:      -7.4      0.211      1.032
REMARK  Name = 
REMARK  7 active torsions:
REMARK  status: ('A' for Active; 'I' for Inactive)
REMARK    1  A    between atoms: C_1  and  O_2
REMARK    2  A    between atoms: O_2  and  C_3
REMARK    3  A    between atoms: C_3  and  C_4
REMARK    4  A    between atoms: N_6  and  S_7
REMARK    5  A    between atoms: S_7  and  C_10
REMARK    6  A    between atoms: C_13  and  C_14
REMARK    7  A    between atoms: N_22  and  C_23
REMARK                            x       y       z     vdW  Elec       q    Type
REMARK                         _______ _______ _______ _____ _____    ______ ____
ROOT
ATOM      1  C   UNL     1       2.910   6.490  19.383  0.00  0.00    +0.000 C 
ATOM      2  C   UNL     1       3.636   6.384  18.013  0.00  0.00    +0.000 C 
ATOM      3  N   UNL     1       3.981   5.009  17.593  0.00  0.00    +0.000 NA
ATOM      4  C   UNL     1       2.879   4.030  17.552  0.00  0.00    +0.000 C 
ATOM      5  C   UNL     1       2.096   4.166  18.798  0.00  0.00    +0.000 A 
ATOM      6  C   UNL     1       2.120   5.235  19.674  0.00  0.00    +0.000 A 
ATOM      7  C   UNL     1       1.513   4.687  20.826  0.00  0.00    +0.000 A 
ATOM      8  N   UNL     1       0.923   3.513  20.600  0.00  0.00    +0.000 NA
ATOM      9  N   UNL     1       1.275   3.218  19.339  0.00  0.00    +0.000 N 
ATOM     10  C   UNL     1       0.829   1.977  18.751  0.00  0.00    +0.000 C 
ENDROOT
BRANCH   3  11
ATOM     11  S   UNL     1       5.575   4.509  17.618  0.00  0.00    +0.000 S 
ATOM     12  O   UNL     1       5.775   3.662  18.772  0.00  0.00    +0.000 OA
ATOM     13  O   UNL     1       5.927   4.046  16.297  0.00  0.00    +0.000 OA
BRANCH  11  14
ATOM     14  C   UNL     1       6.482   6.019  17.896  0.00  0.00    +0.000 A 
ATOM     15  C   UNL     1       7.527   6.025  18.820  0.00  0.00    +0.000 A 
ATOM     16  C   UNL     1       8.324   7.164  18.949  0.00  0.00    +0.000 A 
ATOM     17  C   UNL     1       8.087   8.292  18.152  0.00  0.00    +0.000 A 
ATOM     18  C   UNL     1       8.991   9.487  18.230  0.00  0.00    +0.000 C 
ATOM     19  C   UNL     1       7.026   8.274  17.234  0.00  0.00    +0.000 A 
ATOM     20  C   UNL     1       6.225   7.139  17.101  0.00  0.00    +0.000 A 
ENDBRANCH  11  14
ENDBRANCH   3  11
BRANCH   1  21
ATOM     21  C   UNL     1       2.134   7.833  19.338  0.00  0.00    +0.000 C 
BRANCH  21  23
ATOM     22  C   UNL     1       1.900   9.702  17.890  0.00  0.00    +0.000 C 
ATOM     23  O   UNL     1       1.949   8.281  17.993  0.00  0.00    +0.000 OA
ENDBRANCH  21  23
ENDBRANCH   1  21
TORSDOF 4
ENDMDL
MODEL 5
REMARK VINA RESULT:      -7.4      2.448      5.504
REMARK  Name = 
REMARK  7 active torsions:
REMARK  status: ('A' for Active; 'I' for Inactive)
REMARK    1  A    between atoms: C_1  and  O_2
REMARK    2  A    between atoms: O_2  and  C_3
REMARK    3  A    between atoms: C_3  and  C_4
REMARK    4  A    between atoms: N_6  and  S_7
REMARK    5  A    between atoms: S_7  and  C_10
REMARK    6  A    between atoms: C_13  and  C_14
REMARK    7  A    between atoms: N_22  and  C_23
REMARK                            x       y       z     vdW  Elec       q    Type
REMARK                         _______ _______ _______ _____ _____    ______ ____
ROOT
ATOM      1  C   UNL     1       5.614   5.342  18.686  0.00  0.00    +0.000 C 
ATOM      2  C   UNL     1       5.091   3.938  19.102  0.00  0.00    +0.000 C 
ATOM      3  N   UNL     1       4.210   3.281  18.113  0.00  0.00    +0.000 NA
ATOM      4  C   UNL     1       4.740   3.133  16.745  0.00  0.00    +0.000 C 
ATOM      5  C   UNL     1       5.342   4.422  16.344  0.00  0.00    +0.000 A 
ATOM      6  C   UNL     1       5.703   5.460  17.182  0.00  0.00    +0.000 A 
ATOM      7  C   UNL     1       5.849   6.534  16.276  0.00  0.00    +0.000 A 
ATOM      8  N   UNL     1       5.861   6.146  15.000  0.00  0.00    +0.000 NA
ATOM      9  N   UNL     1       5.568   4.838  15.063  0.00  0.00    +0.000 N 
ATOM     10  C   UNL     1       5.466   4.077  13.840  0.00  0.00    +0.000 C 
ENDROOT
BRANCH   3  11
ATOM     11  S   UNL     1       2.574   3.145  18.421  0.00  0.00    +0.000 S 
ATOM     12  O   UNL     1       1.879   2.984  17.164  0.00  0.00    +0.000 OA
ATOM     13  O   UNL     1       2.390   2.190  19.489  0.00  0.00    +0.000 OA
BRANCH  11  14
ATOM     14  C   UNL     1       2.136   4.744  19.076  0.00  0.00    +0.000 A 
ATOM     15  C   UNL     1       1.761   4.854  20.415  0.00  0.00    +0.000 A 
ATOM     16  C   UNL     1       1.544   6.117  20.968  0.00  0.00    +0.000 A 
ATOM     17  C   UNL     1       1.709   7.271  20.190  0.00  0.00    +0.000 A 
ATOM     18  C   UNL     1       1.555   8.633  20.802  0.00  0.00    +0.000 C 
ATOM     19  C   UNL     1       2.077   7.145  18.843  0.00  0.00    +0.000 A 
ATOM     20  C   UNL     1       2.295   5.885  18.284  0.00  0.00    +0.000 A 
ENDBRANCH  11  14
ENDBRANCH   3  11
BRANCH   1  21
ATOM     21  C   UNL     1       6.916   5.556  19.502  0.00  0.00    +0.000 C 
BRANCH  21  23
ATOM     22  C   UNL     1       8.269   7.335  18.694  0.00  0.00    +0.000 C 
ATOM     23  O   UNL     1       8.004   5.934  18.655  0.00  0.00    +0.000 OA
ENDBRANCH  21  23
ENDBRANCH   1  21
TORSDOF 4
ENDMDL
MODEL 6
REMARK VINA RESULT:      -7.4      2.391      3.200
REMARK  Name = 
REMARK  7 active torsions:
REMARK  status: ('A' for Active; 'I' for Inactive)
REMARK    1  A    between atoms: C_1  and  O_2
REMARK    2  A    between atoms: O_2  and  C_3
REMARK    3  A    between atoms: C_3  and  C_4
REMARK    4  A    between atoms: N_6  and  S_7
REMARK    5  A    between atoms: S_7  and  C_10
REMARK    6  A    between atoms: C_13  and  C_14
REMARK    7  A    between atoms: N_22  and  C_23
REMARK                            x       y       z     vdW  Elec       q    Type
REMARK                         _______ _______ _______ _____ _____    ______ ____
ROOT
ATOM      1  C   UNL     1       2.724   6.722  19.648  0.00  0.00    +0.000 C 
ATOM      2  C   UNL     1       3.502   6.789  18.304  0.00  0.00    +0.000 C 
ATOM      3  N   UNL     1       4.012   5.491  17.812  0.00  0.00    +0.000 NA
ATOM      4  C   UNL     1       3.028   4.403  17.663  0.00  0.00    +0.000 C 
ATOM      5  C   UNL     1       2.194   4.368  18.883  0.00  0.00    +0.000 A 
ATOM      6  C   UNL     1       2.069   5.371  19.826  0.00  0.00    +0.000 A 
ATOM      7  C   UNL     1       1.490   4.683  20.915  0.00  0.00    +0.000 A 
ATOM      8  N   UNL     1       1.042   3.470  20.590  0.00  0.00    +0.000 NA
ATOM      9  N   UNL     1       1.466   3.301  19.328  0.00  0.00    +0.000 N 
ATOM     10  C   UNL     1       1.181   2.062  18.644  0.00  0.00    +0.000 C 
ENDROOT
BRANCH   3  11
ATOM     11  S   UNL     1       5.650   5.168  17.869  0.00  0.00    +0.000 S 
ATOM     12  O   UNL     1       6.354   6.399  18.146  0.00  0.00    +0.000 OA
ATOM     13  O   UNL     1       5.855   4.002  18.697  0.00  0.00    +0.000 OA
BRANCH  11  14
ATOM     14  C   UNL     1       6.041   4.690  16.197  0.00  0.00    +0.000 A 
ATOM     15  C   UNL     1       5.064   4.067  15.420  0.00  0.00    +0.000 A 
ATOM     16  C   UNL     1       5.319   3.808  14.072  0.00  0.00    +0.000 A 
ATOM     17  C   UNL     1       6.542   4.178  13.495  0.00  0.00    +0.000 A 
ATOM     18  C   UNL     1       6.788   3.976  12.029  0.00  0.00    +0.000 C 
ATOM     19  C   UNL     1       7.518   4.796  14.291  0.00  0.00    +0.000 A 
ATOM     20  C   UNL     1       7.270   5.056  15.640  0.00  0.00    +0.000 A 
ENDBRANCH  11  14
ENDBRANCH   3  11
BRANCH   1  21
ATOM     21  C   UNL     1       1.805   7.972  19.657  0.00  0.00    +0.000 C 
BRANCH  21  23
ATOM     22  C   UNL     1       0.181   8.740  21.211  0.00  0.00    +0.000 C 
ATOM     23  O   UNL     1       1.553   8.422  20.989  0.00  0.00    +0.000 OA
ENDBRANCH  21  23
ENDBRANCH   1  21
TORSDOF 4
ENDMDL
MODEL 7
REMARK VINA RESULT:      -7.4      2.395      5.428
REMARK  Name = 
REMARK  7 active torsions:
REMARK  status: ('A' for Active; 'I' for Inactive)
REMARK    1  A    between atoms: C_1  and  O_2
REMARK    2  A    between atoms: O_2  and  C_3
REMARK    3  A    between atoms: C_3  and  C_4
REMARK    4  A    between atoms: N_6  and  S_7
REMARK    5  A    between atoms: S_7  and  C_10
REMARK    6  A    between atoms: C_13  and  C_14
REMARK    7  A    between atoms: N_22  and  C_23
REMARK                            x       y       z     vdW  Elec       q    Type
REMARK                         _______ _______ _______ _____ _____    ______ ____
ROOT
ATOM      1  C   UNL     1       5.741   5.484  18.680  0.00  0.00    +0.000 C 
ATOM      2  C   UNL     1       5.056   4.185  19.189  0.00  0.00    +0.000 C 
ATOM      3  N   UNL     1       4.075   3.589  18.257  0.00  0.00    +0.000 NA
ATOM      4  C   UNL     1       4.547   3.296  16.892  0.00  0.00    +0.000 C 
ATOM      5  C   UNL     1       5.296   4.473  16.403  0.00  0.00    +0.000 A 
ATOM      6  C   UNL     1       5.806   5.503  17.170  0.00  0.00    +0.000 A 
ATOM      7  C   UNL     1       6.063   6.496  16.199  0.00  0.00    +0.000 A 
ATOM      8  N   UNL     1       5.994   6.037  14.949  0.00  0.00    +0.000 NA
ATOM      9  N   UNL     1       5.541   4.782  15.095  0.00  0.00    +0.000 N 
ATOM     10  C   UNL     1       5.313   3.970  13.923  0.00  0.00    +0.000 C 
ENDROOT
BRANCH   3  11
ATOM     11  S   UNL     1       2.443   3.679  18.602  0.00  0.00    +0.000 S 
ATOM     12  O   UNL     1       1.702   3.530  17.371  0.00  0.00    +0.000 OA
ATOM     13  O   UNL     1       2.168   2.824  19.733  0.00  0.00    +0.000 OA
BRANCH  11  14
ATOM     14  C   UNL     1       2.225   5.359  19.159  0.00  0.00    +0.000 A 
ATOM     15  C   UNL     1       2.362   6.403  18.244  0.00  0.00    +0.000 A 
ATOM     16  C   UNL     1       2.066   7.709  18.640  0.00  0.00    +0.000 A 
ATOM     17  C   UNL     1       1.626   7.973  19.944  0.00  0.00    +0.000 A 
ATOM     18  C   UNL     1       1.230   9.363  20.350  0.00  0.00    +0.000 C 
ATOM     19  C   UNL     1       1.502   6.915  20.856  0.00  0.00    +0.000 A 
ATOM     20  C   UNL     1       1.797   5.607  20.466  0.00  0.00    +0.000 A 
ENDBRANCH  11  14
ENDBRANCH   3  11
BRANCH   1  21
ATOM     21  C   UNL     1       7.080   5.578  19.458  0.00  0.00    +0.000 C 
BRANCH  21  23
ATOM     22  C   UNL     1       8.297   7.472  18.699  0.00  0.00    +0.000 C 
ATOM     23  O   UNL     1       8.134   6.057  18.621  0.00  0.00    +0.000 OA
ENDBRANCH  21  23
ENDBRANCH   1  21
TORSDOF 4
ENDMDL
MODEL 8
REMARK VINA RESULT:      -6.9      2.494      3.356
REMARK  Name = 
REMARK  7 active torsions:
REMARK  status: ('A' for Active; 'I' for Inactive)
REMARK    1  A    between atoms: C_1  and  O_2
REMARK    2  A    between atoms: O_2  and  C_3
REMARK    3  A    between atoms: C_3  and  C_4
REMARK    4  A    between atoms: N_6  and  S_7
REMARK    5  A    between atoms: S_7  and  C_10
REMARK    6  A    between atoms: C_13  and  C_14
REMARK    7  A    between atoms: N_22  and  C_23
REMARK                            x       y       z     vdW  Elec       q    Type
REMARK                         _______ _______ _______ _____ _____    ______ ____
ROOT
ATOM      1  C   UNL     1       2.200   6.464  20.443  0.00  0.00    +0.000 C 
ATOM      2  C   UNL     1       2.709   6.990  19.071  0.00  0.00    +0.000 C 
ATOM      3  N   UNL     1       3.382   5.980  18.226  0.00  0.00    +0.000 NA
ATOM      4  C   UNL     1       2.630   4.744  17.940  0.00  0.00    +0.000 C 
ATOM      5  C   UNL     1       2.040   4.262  19.206  0.00  0.00    +0.000 A 
ATOM      6  C   UNL     1       1.875   4.990  20.369  0.00  0.00    +0.000 A 
ATOM      7  C   UNL     1       1.641   3.975  21.323  0.00  0.00    +0.000 A 
ATOM      8  N   UNL     1       1.402   2.784  20.773  0.00  0.00    +0.000 NA
ATOM      9  N   UNL     1       1.631   2.985  19.467  0.00  0.00    +0.000 N 
ATOM     10  C   UNL     1       1.494   1.881  18.545  0.00  0.00    +0.000 C 
ENDROOT
BRANCH   3  11
ATOM     11  S   UNL     1       5.037   6.050  18.010  0.00  0.00    +0.000 S 
ATOM     12  O   UNL     1       5.426   7.434  17.868  0.00  0.00    +0.000 OA
ATOM     13  O   UNL     1       5.662   5.210  19.005  0.00  0.00    +0.000 OA
BRANCH  11  14
ATOM     14  C   UNL     1       5.287   5.257  16.433  0.00  0.00    +0.000 A 
ATOM     15  C   UNL     1       5.232   6.024  15.268  0.00  0.00    +0.000 A 
ATOM     16  C   UNL     1       5.554   5.438  14.043  0.00  0.00    +0.000 A 
ATOM     17  C   UNL     1       5.940   4.092  13.978  0.00  0.00    +0.000 A 
ATOM     18  C   UNL     1       6.365   3.481  12.675  0.00  0.00    +0.000 C 
ATOM     19  C   UNL     1       5.982   3.332  15.155  0.00  0.00    +0.000 A 
ATOM     20  C   UNL     1       5.660   3.911  16.384  0.00  0.00    +0.000 A 
ENDBRANCH  11  14
ENDBRANCH   3  11
BRANCH   1  21
ATOM     21  C   UNL     1       1.061   7.432  20.859  0.00  0.00    +0.000 C 
BRANCH  21  23
ATOM     22  C   UNL     1       1.004   9.213  22.430  0.00  0.00    +0.000 C 
ATOM     23  O   UNL     1       1.575   8.714  21.222  0.00  0.00    +0.000 OA
ENDBRANCH  21  23
ENDBRANCH   1  21
TORSDOF 4
ENDMDL
MODEL 9
REMARK VINA RESULT:      -6.9      2.511      3.362
REMARK  Name = 
REMARK  7 active torsions:
REMARK  status: ('A' for Active; 'I' for Inactive)
REMARK    1  A    between atoms: C_1  and  O_2
REMARK    2  A    between atoms: O_2  and  C_3
REMARK    3  A    between atoms: C_3  and  C_4
REMARK    4  A    between atoms: N_6  and  S_7
REMARK    5  A    between atoms: S_7  and  C_10
REMARK    6  A    between atoms: C_13  and  C_14
REMARK    7  A    between atoms: N_22  and  C_23
REMARK                            x       y       z     vdW  Elec       q    Type
REMARK                         _______ _______ _______ _____ _____    ______ ____
ROOT
ATOM      1  C   UNL     1       3.102   7.885  18.312  0.00  0.00    +0.000 C 
ATOM      2  C   UNL     1       3.723   7.059  17.151  0.00  0.00    +0.000 C 
ATOM      3  N   UNL     1       4.070   5.663  17.493  0.00  0.00    +0.000 NA
ATOM      4  C   UNL     1       2.993   4.831  18.060  0.00  0.00    +0.000 C 
ATOM      5  C   UNL     1       2.305   5.618  19.105  0.00  0.00    +0.000 A 
ATOM      6  C   UNL     1       2.369   6.987  19.281  0.00  0.00    +0.000 A 
ATOM      7  C   UNL     1       1.866   7.140  20.593  0.00  0.00    +0.000 A 
ATOM      8  N   UNL     1       1.291   6.034  21.066  0.00  0.00    +0.000 NA
ATOM      9  N   UNL     1       1.552   5.112  20.126  0.00  0.00    +0.000 N 
ATOM     10  C   UNL     1       1.094   3.756  20.317  0.00  0.00    +0.000 C 
ENDROOT
BRANCH   3  11
ATOM     11  S   UNL     1       5.673   5.222  17.652  0.00  0.00    +0.000 S 
ATOM     12  O   UNL     1       6.447   6.401  17.968  0.00  0.00    +0.000 OA
ATOM     13  O   UNL     1       5.742   4.051  18.495  0.00  0.00    +0.000 OA
BRANCH  11  14
ATOM     14  C   UNL     1       6.130   4.704  16.008  0.00  0.00    +0.000 A 
ATOM     15  C   UNL     1       5.225   3.957  15.253  0.00  0.00    +0.000 A 
ATOM     16  C   UNL     1       5.521   3.660  13.922  0.00  0.00    +0.000 A 
ATOM     17  C   UNL     1       6.713   4.114  13.340  0.00  0.00    +0.000 A 
ATOM     18  C   UNL     1       6.997   3.865  11.887  0.00  0.00    +0.000 C 
ATOM     19  C   UNL     1       7.617   4.855  14.114  0.00  0.00    +0.000 A 
ATOM     20  C   UNL     1       7.327   5.155  15.446  0.00  0.00    +0.000 A 
ENDBRANCH  11  14
ENDBRANCH   3  11
BRANCH   1  21
ATOM     21  C   UNL     1       2.292   9.017  17.627  0.00  0.00    +0.000 C 
BRANCH  21  23
ATOM     22  C   UNL     1       0.284   9.974  18.462  0.00  0.00    +0.000 C 
ATOM     23  O   UNL     1       0.887   8.847  17.831  0.00  0.00    +0.000 OA
ENDBRANCH  21  23
ENDBRANCH   1  21
TORSDOF 4
ENDMDL
