MODEL 1
REMARK VINA RESULT:      -7.2      0.000      0.000
REMARK  Name = 
REMARK  10 active torsions:
REMARK  status: ('A' for Active; 'I' for Inactive)
REMARK    1  A    between atoms: C_1  and  O_2
REMARK    2  A    between atoms: O_2  and  C_3
REMARK    3  A    between atoms: C_6  and  C_7
REMARK    4  A    between atoms: C_7  and  C_8
REMARK    5  A    between atoms: C_8  and  O_9
REMARK    6  A    between atoms: O_9  and  C_10
REMARK    7  A    between atoms: C_15  and  N_16
REMARK    8  A    between atoms: C_19  and  O_20
REMARK    9  A    between atoms: C_23  and  O_24
REMARK   10  A    between atoms: O_24  and  C_25
REMARK                            x       y       z     vdW  Elec       q    Type
REMARK                         _______ _______ _______ _____ _____    ______ ____
ROOT
ATOM      1  O   UNL     1       2.400   6.548  18.062  0.00  0.00    +0.000 OA
ENDROOT
BRANCH   1   2
ATOM      2  C   UNL     1       2.820   5.463  18.903  0.00  0.00    +0.000 C 
ATOM      3  C   UNL     1       1.723   4.387  18.934  0.00  0.00    +0.000 C 
ATOM      4  C   UNL     1       2.128   3.204  19.797  0.00  0.00    +0.000 C 
ATOM      5  C   UNL     1       3.414   2.573  19.287  0.00  0.00    +0.000 C 
ATOM      6  C   UNL     1       4.544   3.596  19.183  0.00  0.00    +0.000 C 
ATOM      7  C   UNL     1       4.163   4.858  18.367  0.00  0.00    +0.000 C 
BRANCH   7   8
ATOM      8  N   UNL     1       5.360   5.739  18.251  0.00  0.00    +0.000 NA
ATOM      9  C   UNL     1       6.585   5.168  18.836  0.00  0.00    +0.000 C 
ATOM     10  C   UNL     1       7.524   4.798  17.685  0.00  0.00    +0.000 C 
ATOM     11  C   UNL     1       6.755   5.128  16.419  0.00  0.00    +0.000 C 
ATOM     12  C   UNL     1       5.743   6.158  16.898  0.00  0.00    +0.000 C 
BRANCH  11  13
ATOM     13  O   UNL     1       7.606   5.612  15.389  0.00  0.00    +0.000 OA
ATOM     14  H   UNL     1       7.078   5.683  14.574  0.00  0.00    +0.000 HD
ENDBRANCH  11  13
ENDBRANCH   7   8
ENDBRANCH   1   2
BRANCH   1  15
ATOM     15  C   UNL     1       2.396   7.819  18.713  0.00  0.00    +0.000 C 
BRANCH  15  16
ATOM     16  C   UNL     1       1.577   8.804  17.883  0.00  0.00    +0.000 C 
BRANCH  16  20
ATOM     17  C   UNL     1      -0.941  11.211  20.434  0.00  0.00    +0.000 A 
ATOM     18  C   UNL     1      -1.168  11.167  19.048  0.00  0.00    +0.000 A 
ATOM     19  C   UNL     1      -0.366  10.378  18.215  0.00  0.00    +0.000 A 
ATOM     20  C   UNL     1       0.680   9.636  18.757  0.00  0.00    +0.000 A 
ATOM     21  C   UNL     1       0.935   9.717  20.126  0.00  0.00    +0.000 A 
ATOM     22  C   UNL     1       0.140  10.507  20.976  0.00  0.00    +0.000 A 
BRANCH  17  24
ATOM     23  C   UNL     1      -1.682  13.367  21.088  0.00  0.00    +0.000 C 
ATOM     24  O   UNL     1      -1.739  11.957  21.261  0.00  0.00    +0.000 OA
ENDBRANCH  17  24
BRANCH  22  25
ATOM     25  O   UNL     1       0.581  10.450  22.272  0.00  0.00    +0.000 OA
ATOM     26  C   UNL     1      -0.058   9.568  23.177  0.00  0.00    +0.000 C 
ENDBRANCH  22  25
ENDBRANCH  16  20
ENDBRANCH  15  16
ENDBRANCH   1  15
TORSDOF 8
ENDMDL
MODEL 2
REMARK VINA RESULT:      -7.2      3.589      8.430
REMARK  Name = 
REMARK  10 active torsions:
REMARK  status: ('A' for Active; 'I' for Inactive)
REMARK    1  A    between atoms: C_1  and  O_2
REMARK    2  A    between atoms: O_2  and  C_3
REMARK    3  A    between atoms: C_6  and  C_7
REMARK    4  A    between atoms: C_7  and  C_8
REMARK    5  A    between atoms: C_8  and  O_9
REMARK    6  A    between atoms: O_9  and  C_10
REMARK    7  A    between atoms: C_15  and  N_16
REMARK    8  A    between atoms: C_19  and  O_20
REMARK    9  A    between atoms: C_23  and  O_24
REMARK   10  A    between atoms: O_24  and  C_25
REMARK                            x       y       z     vdW  Elec       q    Type
REMARK                         _______ _______ _______ _____ _____    ______ ____
ROOT
ATOM      1  O   UNL     1       0.684   9.235  18.072  0.00  0.00    +0.000 OA
ENDROOT
BRANCH   1   2
ATOM      2  C   UNL     1       0.034  10.178  18.937  0.00  0.00    +0.000 C 
ATOM      3  C   UNL     1       1.053  11.229  19.404  0.00  0.00    +0.000 C 
ATOM      4  C   UNL     1       0.407  12.265  20.310  0.00  0.00    +0.000 C 
ATOM      5  C   UNL     1      -0.733  12.975  19.598  0.00  0.00    +0.000 C 
ATOM      6  C   UNL     1      -1.767  11.988  19.060  0.00  0.00    +0.000 C 
ATOM      7  C   UNL     1      -1.155  10.867  18.182  0.00  0.00    +0.000 C 
BRANCH   7   8
ATOM      8  N   UNL     1      -2.255  10.023  17.638  0.00  0.00    +0.000 NA
ATOM      9  C   UNL     1      -3.600  10.597  17.819  0.00  0.00    +0.000 C 
ATOM     10  C   UNL     1      -4.106  11.041  16.444  0.00  0.00    +0.000 C 
ATOM     11  C   UNL     1      -2.969  10.748  15.484  0.00  0.00    +0.000 C 
ATOM     12  C   UNL     1      -2.179   9.673  16.215  0.00  0.00    +0.000 C 
BRANCH  11  13
ATOM     13  O   UNL     1      -3.441  10.331  14.210  0.00  0.00    +0.000 OA
ATOM     14  H   UNL     1      -3.169  11.002  13.557  0.00  0.00    +0.000 HD
ENDBRANCH  11  13
ENDBRANCH   7   8
ENDBRANCH   1   2
BRANCH   1  15
ATOM     15  C   UNL     1       2.107   9.218  18.195  0.00  0.00    +0.000 C 
BRANCH  15  16
ATOM     16  C   UNL     1       2.644   7.908  17.624  0.00  0.00    +0.000 C 
BRANCH  16  20
ATOM     17  C   UNL     1       1.557   4.509  20.055  0.00  0.00    +0.000 A 
ATOM     18  C   UNL     1       1.867   5.742  20.654  0.00  0.00    +0.000 A 
ATOM     19  C   UNL     1       2.204   6.853  19.874  0.00  0.00    +0.000 A 
ATOM     20  C   UNL     1       2.253   6.740  18.487  0.00  0.00    +0.000 A 
ATOM     21  C   UNL     1       1.993   5.504  17.895  0.00  0.00    +0.000 A 
ATOM     22  C   UNL     1       1.654   4.377  18.666  0.00  0.00    +0.000 A 
BRANCH  17  24
ATOM     23  C   UNL     1       2.246   2.756  21.498  0.00  0.00    +0.000 C 
ATOM     24  O   UNL     1       1.196   3.424  20.809  0.00  0.00    +0.000 OA
ENDBRANCH  17  24
BRANCH  22  25
ATOM     25  O   UNL     1       1.458   3.272  17.880  0.00  0.00    +0.000 OA
ATOM     26  C   UNL     1       2.520   2.349  17.714  0.00  0.00    +0.000 C 
ENDBRANCH  22  25
ENDBRANCH  16  20
ENDBRANCH  15  16
ENDBRANCH   1  15
TORSDOF 8
ENDMDL
MODEL 3
REMARK VINA RESULT:      -7.1      1.148      2.001
REMARK  Name = 
REMARK  10 active torsions:
REMARK  status: ('A' for Active; 'I' for Inactive)
REMARK    1  A    between atoms: C_1  and  O_2
REMARK    2  A    between atoms: O_2  and  C_3
REMARK    3  A    between atoms: C_6  and  C_7
REMARK    4  A    between atoms: C_7  and  C_8
REMARK    5  A    between atoms: C_8  and  O_9
REMARK    6  A    between atoms: O_9  and  C_10
REMARK    7  A    between atoms: C_15  and  N_16
REMARK    8  A    between atoms: C_19  and  O_20
REMARK    9  A    between atoms: C_23  and  O_24
REMARK   10  A    between atoms: O_24  and  C_25
REMARK                            x       y       z     vdW  Elec       q    Type
REMARK                         _______ _______ _______ _____ _____    ______ ____
ROOT
ATOM      1  O   UNL     1       2.489   6.594  17.729  0.00  0.00    +0.000 OA
ENDROOT
BRANCH   1   2
ATOM      2  C   UNL     1       2.600   5.274  18.281  0.00  0.00    +0.000 C 
ATOM      3  C   UNL     1       1.488   4.384  17.703  0.00  0.00    +0.000 C 
ATOM      4  C   UNL     1       1.575   2.965  18.242  0.00  0.00    +0.000 C 
ATOM      5  C   UNL     1       2.920   2.339  17.912  0.00  0.00    +0.000 C 
ATOM      6  C   UNL     1       4.081   3.194  18.415  0.00  0.00    +0.000 C 
ATOM      7  C   UNL     1       4.009   4.672  17.951  0.00  0.00    +0.000 C 
BRANCH   7   8
ATOM      8  N   UNL     1       5.231   5.386  18.416  0.00  0.00    +0.000 NA
ATOM      9  C   UNL     1       6.354   4.497  18.760  0.00  0.00    +0.000 C 
ATOM     10  C   UNL     1       7.428   4.664  17.683  0.00  0.00    +0.000 C 
ATOM     11  C   UNL     1       6.843   5.642  16.682  0.00  0.00    +0.000 C 
ATOM     12  C   UNL     1       5.801   6.385  17.505  0.00  0.00    +0.000 C 
BRANCH  11  13
ATOM     13  O   UNL     1       7.836   6.496  16.128  0.00  0.00    +0.000 OA
ATOM     14  H   UNL     1       8.579   5.939  15.836  0.00  0.00    +0.000 HD
ENDBRANCH  11  13
ENDBRANCH   7   8
ENDBRANCH   1   2
BRANCH   1  15
ATOM     15  C   UNL     1       2.358   7.624  18.709  0.00  0.00    +0.000 C 
BRANCH  15  16
ATOM     16  C   UNL     1       1.739   8.859  18.059  0.00  0.00    +0.000 C 
BRANCH  16  20
ATOM     17  C   UNL     1      -0.676  11.107  20.844  0.00  0.00    +0.000 A 
ATOM     18  C   UNL     1      -0.030   9.929  21.254  0.00  0.00    +0.000 A 
ATOM     19  C   UNL     1       0.767   9.202  20.362  0.00  0.00    +0.000 A 
ATOM     20  C   UNL     1       0.914   9.637  19.048  0.00  0.00    +0.000 A 
ATOM     21  C   UNL     1       0.234  10.780  18.629  0.00  0.00    +0.000 A 
ATOM     22  C   UNL     1      -0.573  11.520  19.511  0.00  0.00    +0.000 A 
BRANCH  17  24
ATOM     23  C   UNL     1      -1.458  11.390  23.066  0.00  0.00    +0.000 C 
ATOM     24  O   UNL     1      -1.434  11.842  21.718  0.00  0.00    +0.000 OA
ENDBRANCH  17  24
BRANCH  22  25
ATOM     25  O   UNL     1      -1.154  12.590  18.883  0.00  0.00    +0.000 OA
ATOM     26  C   UNL     1      -0.355  13.712  18.554  0.00  0.00    +0.000 C 
ENDBRANCH  22  25
ENDBRANCH  16  20
ENDBRANCH  15  16
ENDBRANCH   1  15
TORSDOF 8
ENDMDL
MODEL 4
REMARK VINA RESULT:      -7.1      1.564      2.077
REMARK  Name = 
REMARK  10 active torsions:
REMARK  status: ('A' for Active; 'I' for Inactive)
REMARK    1  A    between atoms: C_1  and  O_2
REMARK    2  A    between atoms: O_2  and  C_3
REMARK    3  A    between atoms: C_6  and  C_7
REMARK    4  A    between atoms: C_7  and  C_8
REMARK    5  A    between atoms: C_8  and  O_9
REMARK    6  A    between atoms: O_9  and  C_10
REMARK    7  A    between atoms: C_15  and  N_16
REMARK    8  A    between atoms: C_19  and  O_20
REMARK    9  A    between atoms: C_23  and  O_24
REMARK   10  A    between atoms: O_24  and  C_25
REMARK                            x       y       z     vdW  Elec       q    Type
REMARK                         _______ _______ _______ _____ _____    ______ ____
ROOT
ATOM      1  O   UNL     1       2.248   6.454  17.654  0.00  0.00    +0.000 OA
ENDROOT
BRANCH   1   2
ATOM      2  C   UNL     1       2.616   5.181  18.205  0.00  0.00    +0.000 C 
ATOM      3  C   UNL     1       1.482   4.173  17.963  0.00  0.00    +0.000 C 
ATOM      4  C   UNL     1       1.832   2.799  18.511  0.00  0.00    +0.000 C 
ATOM      5  C   UNL     1       3.103   2.265  17.869  0.00  0.00    +0.000 C 
ATOM      6  C   UNL     1       4.269   3.238  18.026  0.00  0.00    +0.000 C 
ATOM      7  C   UNL     1       3.946   4.676  17.545  0.00  0.00    +0.000 C 
BRANCH   7   8
ATOM      8  N   UNL     1       5.174   5.512  17.656  0.00  0.00    +0.000 NA
ATOM      9  C   UNL     1       6.305   4.835  18.315  0.00  0.00    +0.000 C 
ATOM     10  C   UNL     1       7.360   4.541  17.246  0.00  0.00    +0.000 C 
ATOM     11  C   UNL     1       6.755   5.026  15.942  0.00  0.00    +0.000 C 
ATOM     12  C   UNL     1       5.726   6.046  16.406  0.00  0.00    +0.000 C 
BRANCH  11  13
ATOM     13  O   UNL     1       7.736   5.573  15.070  0.00  0.00    +0.000 OA
ATOM     14  H   UNL     1       7.317   6.292  14.564  0.00  0.00    +0.000 HD
ENDBRANCH  11  13
ENDBRANCH   7   8
ENDBRANCH   1   2
BRANCH   1  15
ATOM     15  C   UNL     1       2.409   7.547  18.560  0.00  0.00    +0.000 C 
BRANCH  15  16
ATOM     16  C   UNL     1       1.748   8.789  17.968  0.00  0.00    +0.000 C 
BRANCH  16  20
ATOM     17  C   UNL     1       0.551  11.602  21.017  0.00  0.00    +0.000 A 
ATOM     18  C   UNL     1       0.456  10.219  21.248  0.00  0.00    +0.000 A 
ATOM     19  C   UNL     1       0.857   9.300  20.272  0.00  0.00    +0.000 A 
ATOM     20  C   UNL     1       1.341   9.753  19.047  0.00  0.00    +0.000 A 
ATOM     21  C   UNL     1       1.389  11.125  18.800  0.00  0.00    +0.000 A 
ATOM     22  C   UNL     1       0.989  12.062  19.770  0.00  0.00    +0.000 A 
BRANCH  17  24
ATOM     23  C   UNL     1      -0.936  12.167  22.777  0.00  0.00    +0.000 C 
ATOM     24  O   UNL     1       0.190  12.510  21.978  0.00  0.00    +0.000 OA
ENDBRANCH  17  24
BRANCH  22  25
ATOM     25  O   UNL     1       1.105  13.346  19.307  0.00  0.00    +0.000 OA
ATOM     26  C   UNL     1       2.257  13.708  18.566  0.00  0.00    +0.000 C 
ENDBRANCH  22  25
ENDBRANCH  16  20
ENDBRANCH  15  16
ENDBRANCH   1  15
TORSDOF 8
ENDMDL
MODEL 5
REMARK VINA RESULT:      -7.0      0.913      1.899
REMARK  Name = 
REMARK  10 active torsions:
REMARK  status: ('A' for Active; 'I' for Inactive)
REMARK    1  A    between atoms: C_1  and  O_2
REMARK    2  A    between atoms: O_2  and  C_3
REMARK    3  A    between atoms: C_6  and  C_7
REMARK    4  A    between atoms: C_7  and  C_8
REMARK    5  A    between atoms: C_8  and  O_9
REMARK    6  A    between atoms: O_9  and  C_10
REMARK    7  A    between atoms: C_15  and  N_16
REMARK    8  A    between atoms: C_19  and  O_20
REMARK    9  A    between atoms: C_23  and  O_24
REMARK   10  A    between atoms: O_24  and  C_25
REMARK                            x       y       z     vdW  Elec       q    Type
REMARK                         _______ _______ _______ _____ _____    ______ ____
ROOT
ATOM      1  O   UNL     1       2.317   6.380  17.918  0.00  0.00    +0.000 OA
ENDROOT
BRANCH   1   2
ATOM      2  C   UNL     1       2.697   5.338  18.828  0.00  0.00    +0.000 C 
ATOM      3  C   UNL     1       1.659   4.207  18.771  0.00  0.00    +0.000 C 
ATOM      4  C   UNL     1       2.027   3.066  19.705  0.00  0.00    +0.000 C 
ATOM      5  C   UNL     1       3.391   2.493  19.353  0.00  0.00    +0.000 C 
ATOM      6  C   UNL     1       4.472   3.571  19.342  0.00  0.00    +0.000 C 
ATOM      7  C   UNL     1       4.120   4.794  18.456  0.00  0.00    +0.000 C 
BRANCH   7   8
ATOM      8  N   UNL     1       5.276   5.733  18.444  0.00  0.00    +0.000 NA
ATOM      9  C   UNL     1       6.513   5.171  19.013  0.00  0.00    +0.000 C 
ATOM     10  C   UNL     1       7.494   4.941  17.859  0.00  0.00    +0.000 C 
ATOM     11  C   UNL     1       6.739   5.341  16.606  0.00  0.00    +0.000 C 
ATOM     12  C   UNL     1       5.669   6.281  17.141  0.00  0.00    +0.000 C 
BRANCH  11  13
ATOM     13  O   UNL     1       7.590   5.947  15.642  0.00  0.00    +0.000 OA
ATOM     14  H   UNL     1       7.384   6.898  15.619  0.00  0.00    +0.000 HD
ENDBRANCH  11  13
ENDBRANCH   7   8
ENDBRANCH   1   2
BRANCH   1  15
ATOM     15  C   UNL     1       2.279   7.681  18.507  0.00  0.00    +0.000 C 
BRANCH  15  16
ATOM     16  C   UNL     1       2.041   7.544  20.009  0.00  0.00    +0.000 C 
BRANCH  16  20
ATOM     17  C   UNL     1      -0.474  10.753  21.429  0.00  0.00    +0.000 A 
ATOM     18  C   UNL     1      -0.089   9.715  22.294  0.00  0.00    +0.000 A 
ATOM     19  C   UNL     1       0.739   8.679  21.847  0.00  0.00    +0.000 A 
ATOM     20  C   UNL     1       1.177   8.661  20.525  0.00  0.00    +0.000 A 
ATOM     21  C   UNL     1       0.756   9.665  19.655  0.00  0.00    +0.000 A 
ATOM     22  C   UNL     1      -0.078  10.712  20.088  0.00  0.00    +0.000 A 
BRANCH  17  24
ATOM     23  C   UNL     1      -0.576  12.960  22.295  0.00  0.00    +0.000 C 
ATOM     24  O   UNL     1      -1.259  11.788  21.866  0.00  0.00    +0.000 OA
ENDBRANCH  17  24
BRANCH  22  25
ATOM     25  O   UNL     1      -0.377  11.572  19.064  0.00  0.00    +0.000 OA
ATOM     26  C   UNL     1      -1.562  11.366  18.316  0.00  0.00    +0.000 C 
ENDBRANCH  22  25
ENDBRANCH  16  20
ENDBRANCH  15  16
ENDBRANCH   1  15
TORSDOF 8
ENDMDL
MODEL 6
REMARK VINA RESULT:      -7.0      1.170      2.185
REMARK  Name = 
REMARK  10 active torsions:
REMARK  status: ('A' for Active; 'I' for Inactive)
REMARK    1  A    between atoms: C_1  and  O_2
REMARK    2  A    between atoms: O_2  and  C_3
REMARK    3  A    between atoms: C_6  and  C_7
REMARK    4  A    between atoms: C_7  and  C_8
REMARK    5  A    between atoms: C_8  and  O_9
REMARK    6  A    between atoms: O_9  and  C_10
REMARK    7  A    between atoms: C_15  and  N_16
REMARK    8  A    between atoms: C_19  and  O_20
REMARK    9  A    between atoms: C_23  and  O_24
REMARK   10  A    between atoms: O_24  and  C_25
REMARK                            x       y       z     vdW  Elec       q    Type
REMARK                         _______ _______ _______ _____ _____    ______ ____
ROOT
ATOM      1  O   UNL     1       2.549   6.728  18.114  0.00  0.00    +0.000 OA
ENDROOT
BRANCH   1   2
ATOM      2  C   UNL     1       2.958   5.657  18.978  0.00  0.00    +0.000 C 
ATOM      3  C   UNL     1       1.816   4.636  19.102  0.00  0.00    +0.000 C 
ATOM      4  C   UNL     1       2.209   3.469  19.992  0.00  0.00    +0.000 C 
ATOM      5  C   UNL     1       3.439   2.759  19.449  0.00  0.00    +0.000 C 
ATOM      6  C   UNL     1       4.607   3.723  19.252  0.00  0.00    +0.000 C 
ATOM      7  C   UNL     1       4.246   4.970  18.405  0.00  0.00    +0.000 C 
BRANCH   7   8
ATOM      8  N   UNL     1       5.474   5.788  18.199  0.00  0.00    +0.000 NA
ATOM      9  C   UNL     1       6.699   5.182  18.748  0.00  0.00    +0.000 C 
ATOM     10  C   UNL     1       7.563   4.726  17.569  0.00  0.00    +0.000 C 
ATOM     11  C   UNL     1       6.749   5.045  16.329  0.00  0.00    +0.000 C 
ATOM     12  C   UNL     1       5.810   6.139  16.814  0.00  0.00    +0.000 C 
BRANCH  11  13
ATOM     13  O   UNL     1       7.571   5.450  15.242  0.00  0.00    +0.000 OA
ATOM     14  H   UNL     1       7.001   5.889  14.585  0.00  0.00    +0.000 HD
ENDBRANCH  11  13
ENDBRANCH   7   8
ENDBRANCH   1   2
BRANCH   1  15
ATOM     15  C   UNL     1       2.236   7.941  18.801  0.00  0.00    +0.000 C 
BRANCH  15  16
ATOM     16  C   UNL     1       1.685   8.954  17.801  0.00  0.00    +0.000 C 
BRANCH  16  20
ATOM     17  C   UNL     1      -1.430  11.363  19.573  0.00  0.00    +0.000 A 
ATOM     18  C   UNL     1      -0.225  11.142  20.260  0.00  0.00    +0.000 A 
ATOM     19  C   UNL     1       0.797  10.376  19.687  0.00  0.00    +0.000 A 
ATOM     20  C   UNL     1       0.617   9.808  18.428  0.00  0.00    +0.000 A 
ATOM     21  C   UNL     1      -0.598   9.988  17.768  0.00  0.00    +0.000 A 
ATOM     22  C   UNL     1      -1.635  10.754  18.330  0.00  0.00    +0.000 A 
BRANCH  17  24
ATOM     23  C   UNL     1      -2.218  12.589  21.446  0.00  0.00    +0.000 C 
ATOM     24  O   UNL     1      -2.424  12.137  20.113  0.00  0.00    +0.000 OA
ENDBRANCH  17  24
BRANCH  22  25
ATOM     25  O   UNL     1      -2.737  10.781  17.517  0.00  0.00    +0.000 OA
ATOM     26  C   UNL     1      -2.575  10.540  16.131  0.00  0.00    +0.000 C 
ENDBRANCH  22  25
ENDBRANCH  16  20
ENDBRANCH  15  16
ENDBRANCH   1  15
TORSDOF 8
ENDMDL
MODEL 7
REMARK VINA RESULT:      -7.0      3.145      8.973
REMARK  Name = 
REMARK  10 active torsions:
REMARK  status: ('A' for Active; 'I' for Inactive)
REMARK    1  A    between atoms: C_1  and  O_2
REMARK    2  A    between atoms: O_2  and  C_3
REMARK    3  A    between atoms: C_6  and  C_7
REMARK    4  A    between atoms: C_7  and  C_8
REMARK    5  A    between atoms: C_8  and  O_9
REMARK    6  A    between atoms: O_9  and  C_10
REMARK    7  A    between atoms: C_15  and  N_16
REMARK    8  A    between atoms: C_19  and  O_20
REMARK    9  A    between atoms: C_23  and  O_24
REMARK   10  A    between atoms: O_24  and  C_25
REMARK                            x       y       z     vdW  Elec       q    Type
REMARK                         _______ _______ _______ _____ _____    ______ ____
ROOT
ATOM      1  O   UNL     1       0.464   9.622  18.182  0.00  0.00    +0.000 OA
ENDROOT
BRANCH   1   2
ATOM      2  C   UNL     1      -0.206  10.532  19.065  0.00  0.00    +0.000 C 
ATOM      3  C   UNL     1       0.778  11.621  19.519  0.00  0.00    +0.000 C 
ATOM      4  C   UNL     1       0.109  12.625  20.444  0.00  0.00    +0.000 C 
ATOM      5  C   UNL     1      -1.072  13.293  19.758  0.00  0.00    +0.000 C 
ATOM      6  C   UNL     1      -2.076  12.268  19.234  0.00  0.00    +0.000 C 
ATOM      7  C   UNL     1      -1.437  11.177  18.337  0.00  0.00    +0.000 C 
BRANCH   7   8
ATOM      8  N   UNL     1      -2.512  10.292  17.809  0.00  0.00    +0.000 NA
ATOM      9  C   UNL     1      -3.860  10.883  17.868  0.00  0.00    +0.000 C 
ATOM     10  C   UNL     1      -4.290  11.209  16.435  0.00  0.00    +0.000 C 
ATOM     11  C   UNL     1      -3.105  10.832  15.566  0.00  0.00    +0.000 C 
ATOM     12  C   UNL     1      -2.362   9.822  16.427  0.00  0.00    +0.000 C 
BRANCH  11  13
ATOM     13  O   UNL     1      -3.511  10.309  14.308  0.00  0.00    +0.000 OA
ATOM     14  H   UNL     1      -2.965  10.729  13.620  0.00  0.00    +0.000 HD
ENDBRANCH  11  13
ENDBRANCH   7   8
ENDBRANCH   1   2
BRANCH   1  15
ATOM     15  C   UNL     1       1.604   8.985  18.759  0.00  0.00    +0.000 C 
BRANCH  15  16
ATOM     16  C   UNL     1       2.416   8.313  17.655  0.00  0.00    +0.000 C 
BRANCH  16  20
ATOM     17  C   UNL     1       4.407   4.755  19.076  0.00  0.00    +0.000 A 
ATOM     18  C   UNL     1       3.353   5.322  19.812  0.00  0.00    +0.000 A 
ATOM     19  C   UNL     1       2.691   6.466  19.351  0.00  0.00    +0.000 A 
ATOM     20  C   UNL     1       3.088   7.065  18.158  0.00  0.00    +0.000 A 
ATOM     21  C   UNL     1       4.166   6.530  17.454  0.00  0.00    +0.000 A 
ATOM     22  C   UNL     1       4.842   5.382  17.904  0.00  0.00    +0.000 A 
BRANCH  17  24
ATOM     23  C   UNL     1       4.245   2.440  19.569  0.00  0.00    +0.000 C 
ATOM     24  O   UNL     1       5.041   3.618  19.503  0.00  0.00    +0.000 OA
ENDBRANCH  17  24
BRANCH  22  25
ATOM     25  O   UNL     1       5.874   5.047  17.067  0.00  0.00    +0.000 OA
ATOM     26  C   UNL     1       5.644   4.104  16.035  0.00  0.00    +0.000 C 
ENDBRANCH  22  25
ENDBRANCH  16  20
ENDBRANCH  15  16
ENDBRANCH   1  15
TORSDOF 8
ENDMDL
MODEL 8
REMARK VINA RESULT:      -7.0      1.270      1.323
REMARK  Name = 
REMARK  10 active torsions:
REMARK  status: ('A' for Active; 'I' for Inactive)
REMARK    1  A    between atoms: C_1  and  O_2
REMARK    2  A    between atoms: O_2  and  C_3
REMARK    3  A    between atoms: C_6  and  C_7
REMARK    4  A    between atoms: C_7  and  C_8
REMARK    5  A    between atoms: C_8  and  O_9
REMARK    6  A    between atoms: O_9  and  C_10
REMARK    7  A    between atoms: C_15  and  N_16
REMARK    8  A    between atoms: C_19  and  O_20
REMARK    9  A    between atoms: C_23  and  O_24
REMARK   10  A    between atoms: O_24  and  C_25
REMARK                            x       y       z     vdW  Elec       q    Type
REMARK                         _______ _______ _______ _____ _____    ______ ____
ROOT
ATOM      1  O   UNL     1       2.083   6.189  17.760  0.00  0.00    +0.000 OA
ENDROOT
BRANCH   1   2
ATOM      2  C   UNL     1       2.515   4.930  18.296  0.00  0.00    +0.000 C 
ATOM      3  C   UNL     1       1.428   3.871  18.053  0.00  0.00    +0.000 C 
ATOM      4  C   UNL     1       1.848   2.511  18.585  0.00  0.00    +0.000 C 
ATOM      5  C   UNL     1       3.138   2.044  17.929  0.00  0.00    +0.000 C 
ATOM      6  C   UNL     1       4.257   3.070  18.086  0.00  0.00    +0.000 C 
ATOM      7  C   UNL     1       3.862   4.495  17.621  0.00  0.00    +0.000 C 
BRANCH   7   8
ATOM      8  N   UNL     1       5.050   5.387  17.730  0.00  0.00    +0.000 NA
ATOM      9  C   UNL     1       6.226   4.750  18.347  0.00  0.00    +0.000 C 
ATOM     10  C   UNL     1       7.271   4.537  17.249  0.00  0.00    +0.000 C 
ATOM     11  C   UNL     1       6.615   5.027  15.971  0.00  0.00    +0.000 C 
ATOM     12  C   UNL     1       5.548   5.982  16.485  0.00  0.00    +0.000 C 
BRANCH  11  13
ATOM     13  O   UNL     1       7.549   5.645  15.096  0.00  0.00    +0.000 OA
ATOM     14  H   UNL     1       7.543   6.601  15.280  0.00  0.00    +0.000 HD
ENDBRANCH  11  13
ENDBRANCH   7   8
ENDBRANCH   1   2
BRANCH   1  15
ATOM     15  C   UNL     1       2.428   7.314  18.569  0.00  0.00    +0.000 C 
BRANCH  15  16
ATOM     16  C   UNL     1       2.433   8.571  17.704  0.00  0.00    +0.000 C 
BRANCH  16  20
ATOM     17  C   UNL     1       0.601  11.854  19.827  0.00  0.00    +0.000 A 
ATOM     18  C   UNL     1       1.464  12.100  18.745  0.00  0.00    +0.000 A 
ATOM     19  C   UNL     1       2.050  11.042  18.042  0.00  0.00    +0.000 A 
ATOM     20  C   UNL     1       1.793   9.727  18.421  0.00  0.00    +0.000 A 
ATOM     21  C   UNL     1       0.975   9.485  19.525  0.00  0.00    +0.000 A 
ATOM     22  C   UNL     1       0.379  10.537  20.244  0.00  0.00    +0.000 A 
BRANCH  17  24
ATOM     23  C   UNL     1      -0.845  13.733  19.735  0.00  0.00    +0.000 C 
ATOM     24  O   UNL     1      -0.002  12.882  20.503  0.00  0.00    +0.000 OA
ENDBRANCH  17  24
BRANCH  22  25
ATOM     25  O   UNL     1      -0.366  10.069  21.293  0.00  0.00    +0.000 OA
ATOM     26  C   UNL     1      -0.272   8.701  21.648  0.00  0.00    +0.000 C 
ENDBRANCH  22  25
ENDBRANCH  16  20
ENDBRANCH  15  16
ENDBRANCH   1  15
TORSDOF 8
ENDMDL
MODEL 9
REMARK VINA RESULT:      -6.9      1.325      1.652
REMARK  Name = 
REMARK  10 active torsions:
REMARK  status: ('A' for Active; 'I' for Inactive)
REMARK    1  A    between atoms: C_1  and  O_2
REMARK    2  A    between atoms: O_2  and  C_3
REMARK    3  A    between atoms: C_6  and  C_7
REMARK    4  A    between atoms: C_7  and  C_8
REMARK    5  A    between atoms: C_8  and  O_9
REMARK    6  A    between atoms: O_9  and  C_10
REMARK    7  A    between atoms: C_15  and  N_16
REMARK    8  A    between atoms: C_19  and  O_20
REMARK    9  A    between atoms: C_23  and  O_24
REMARK   10  A    between atoms: O_24  and  C_25
REMARK                            x       y       z     vdW  Elec       q    Type
REMARK                         _______ _______ _______ _____ _____    ______ ____
ROOT
ATOM      1  O   UNL     1       3.273   6.007  19.841  0.00  0.00    +0.000 OA
ENDROOT
BRANCH   1   2
ATOM      2  C   UNL     1       2.925   4.616  19.781  0.00  0.00    +0.000 C 
ATOM      3  C   UNL     1       1.419   4.454  20.043  0.00  0.00    +0.000 C 
ATOM      4  C   UNL     1       0.995   2.996  19.970  0.00  0.00    +0.000 C 
ATOM      5  C   UNL     1       1.318   2.403  18.607  0.00  0.00    +0.000 C 
ATOM      6  C   UNL     1       2.794   2.569  18.253  0.00  0.00    +0.000 C 
ATOM      7  C   UNL     1       3.301   4.029  18.376  0.00  0.00    +0.000 C 
BRANCH   7   8
ATOM      8  N   UNL     1       4.718   4.091  17.919  0.00  0.00    +0.000 NA
ATOM      9  C   UNL     1       4.905   3.771  16.494  0.00  0.00    +0.000 C 
ATOM     10  C   UNL     1       5.272   5.068  15.769  0.00  0.00    +0.000 C 
ATOM     11  C   UNL     1       5.228   6.148  16.833  0.00  0.00    +0.000 C 
ATOM     12  C   UNL     1       5.423   5.362  18.121  0.00  0.00    +0.000 C 
BRANCH  11  13
ATOM     13  O   UNL     1       6.222   7.143  16.625  0.00  0.00    +0.000 OA
ATOM     14  H   UNL     1       5.775   8.007  16.582  0.00  0.00    +0.000 HD
ENDBRANCH  11  13
ENDBRANCH   7   8
ENDBRANCH   1   2
BRANCH   1  15
ATOM     15  C   UNL     1       2.157   6.877  20.031  0.00  0.00    +0.000 C 
BRANCH  15  16
ATOM     16  C   UNL     1       2.118   7.897  18.896  0.00  0.00    +0.000 C 
BRANCH  16  20
ATOM     17  C   UNL     1      -0.250  11.330  20.015  0.00  0.00    +0.000 A 
ATOM     18  C   UNL     1      -0.034  11.026  18.660  0.00  0.00    +0.000 A 
ATOM     19  C   UNL     1       0.719   9.907  18.288  0.00  0.00    +0.000 A 
ATOM     20  C   UNL     1       1.278   9.089  19.267  0.00  0.00    +0.000 A 
ATOM     21  C   UNL     1       1.104   9.418  20.611  0.00  0.00    +0.000 A 
ATOM     22  C   UNL     1       0.351  10.540  21.001  0.00  0.00    +0.000 A 
BRANCH  17  24
ATOM     23  C   UNL     1      -2.398  12.336  20.079  0.00  0.00    +0.000 C 
ATOM     24  O   UNL     1      -1.011  12.406  20.389  0.00  0.00    +0.000 OA
ENDBRANCH  17  24
BRANCH  22  25
ATOM     25  O   UNL     1       0.328  10.679  22.364  0.00  0.00    +0.000 OA
ATOM     26  C   UNL     1      -0.750  10.121  23.094  0.00  0.00    +0.000 C 
ENDBRANCH  22  25
ENDBRANCH  16  20
ENDBRANCH  15  16
ENDBRANCH   1  15
TORSDOF 8
ENDMDL
