MODEL 1
REMARK VINA RESULT:      -7.6      0.000      0.000
REMARK  Name = 
REMARK  3 active torsions:
REMARK  status: ('A' for Active; 'I' for Inactive)
REMARK    1  A    between atoms: C_1  and  C_2
REMARK    2  A    between atoms: N_12  and  C_13
REMARK    3  A    between atoms: C_17  and  C_18
REMARK                            x       y       z     vdW  Elec       q    Type
REMARK                         _______ _______ _______ _____ _____    ______ ____
ROOT
ATOM      1  C   UNL     1      -0.414   9.863  22.576  0.00  0.00    +0.000 C 
ATOM      2  C   UNL     1       0.378   9.229  21.463  0.00  0.00    +0.000 A 
ATOM      3  C   UNL     1       0.776   7.891  21.571  0.00  0.00    +0.000 A 
ATOM      4  C   UNL     1       1.517   7.280  20.554  0.00  0.00    +0.000 A 
ATOM      5  O   UNL     1       1.851   5.962  20.780  0.00  0.00    +0.000 OA
ATOM      6  C   UNL     1       2.572   5.277  19.818  0.00  0.00    +0.000 A 
ATOM      7  C   UNL     1       2.986   5.834  18.668  0.00  0.00    +0.000 A 
ATOM      8  C   UNL     1       3.735   5.061  17.706  0.00  0.00    +0.000 A 
ATOM      9  C   UNL     1       4.036   3.780  17.944  0.00  0.00    +0.000 A 
ATOM     10  C   UNL     1       3.597   3.138  19.207  0.00  0.00    +0.000 A 
ATOM     11  O   UNL     1       3.893   1.960  19.397  0.00  0.00    +0.000 OA
ATOM     12  N   UNL     1       2.872   3.941  20.091  0.00  0.00    +0.000 N 
ATOM     13  C   UNL     1       2.430   3.338  21.340  0.00  0.00    +0.000 C 
ATOM     14  C   UNL     1       2.678   7.255  18.397  0.00  0.00    +0.000 A 
ATOM     15  O   UNL     1       3.104   7.767  17.367  0.00  0.00    +0.000 OA
ATOM     16  C   UNL     1       1.875   7.996  19.403  0.00  0.00    +0.000 A 
ATOM     17  C   UNL     1       1.480   9.351  19.258  0.00  0.00    +0.000 A 
ATOM     18  C   UNL     1       1.801  10.209  18.055  0.00  0.00    +0.000 C 
ATOM     19  C   UNL     1       0.734   9.949  20.307  0.00  0.00    +0.000 A 
ATOM     20 CL   UNL     1       0.238  11.617  20.183  0.00  0.00    +0.000 Cl
ENDROOT
TORSDOF 0
ENDMDL
MODEL 2
REMARK VINA RESULT:      -7.5      3.074      5.838
REMARK  Name = 
REMARK  3 active torsions:
REMARK  status: ('A' for Active; 'I' for Inactive)
REMARK    1  A    between atoms: C_1  and  C_2
REMARK    2  A    between atoms: N_12  and  C_13
REMARK    3  A    between atoms: C_17  and  C_18
REMARK                            x       y       z     vdW  Elec       q    Type
REMARK                         _______ _______ _______ _____ _____    ______ ____
ROOT
ATOM      1  C   UNL     1       2.406   2.507  21.570  0.00  0.00    +0.000 C 
ATOM      2  C   UNL     1       2.537   3.716  20.682  0.00  0.00    +0.000 A 
ATOM      3  C   UNL     1       1.913   4.915  21.048  0.00  0.00    +0.000 A 
ATOM      4  C   UNL     1       2.015   6.051  20.239  0.00  0.00    +0.000 A 
ATOM      5  O   UNL     1       1.354   7.167  20.705  0.00  0.00    +0.000 OA
ATOM      6  C   UNL     1       1.415   8.340  19.972  0.00  0.00    +0.000 A 
ATOM      7  C   UNL     1       2.074   8.450  18.808  0.00  0.00    +0.000 A 
ATOM      8  C   UNL     1       2.097   9.705  18.095  0.00  0.00    +0.000 A 
ATOM      9  C   UNL     1       1.458  10.777  18.575  0.00  0.00    +0.000 A 
ATOM     10  C   UNL     1       0.716  10.685  19.855  0.00  0.00    +0.000 A 
ATOM     11  O   UNL     1       0.135  11.686  20.267  0.00  0.00    +0.000 OA
ATOM     12  N   UNL     1       0.739   9.443  20.497  0.00  0.00    +0.000 N 
ATOM     13  C   UNL     1       0.016   9.322  21.755  0.00  0.00    +0.000 C 
ATOM     14  C   UNL     1       2.772   7.270  18.253  0.00  0.00    +0.000 A 
ATOM     15  O   UNL     1       3.330   7.370  17.165  0.00  0.00    +0.000 OA
ATOM     16  C   UNL     1       2.747   6.013  19.044  0.00  0.00    +0.000 A 
ATOM     17  C   UNL     1       3.400   4.817  18.648  0.00  0.00    +0.000 A 
ATOM     18  C   UNL     1       4.222   4.670  17.389  0.00  0.00    +0.000 C 
ATOM     19  C   UNL     1       3.275   3.676  19.485  0.00  0.00    +0.000 A 
ATOM     20 CL   UNL     1       4.045   2.177  19.035  0.00  0.00    +0.000 Cl
ENDROOT
TORSDOF 0
ENDMDL
MODEL 3
REMARK VINA RESULT:      -7.5      0.950      1.057
REMARK  Name = 
REMARK  3 active torsions:
REMARK  status: ('A' for Active; 'I' for Inactive)
REMARK    1  A    between atoms: C_1  and  C_2
REMARK    2  A    between atoms: N_12  and  C_13
REMARK    3  A    between atoms: C_17  and  C_18
REMARK                            x       y       z     vdW  Elec       q    Type
REMARK                         _______ _______ _______ _____ _____    ______ ____
ROOT
ATOM      1  C   UNL     1      -0.791  10.349  23.076  0.00  0.00    +0.000 C 
ATOM      2  C   UNL     1      -0.032   9.861  21.871  0.00  0.00    +0.000 A 
ATOM      3  C   UNL     1       0.457   8.549  21.844  0.00  0.00    +0.000 A 
ATOM      4  C   UNL     1       1.169   8.073  20.739  0.00  0.00    +0.000 A 
ATOM      5  O   UNL     1       1.600   6.767  20.835  0.00  0.00    +0.000 OA
ATOM      6  C   UNL     1       2.302   6.212  19.779  0.00  0.00    +0.000 A 
ATOM      7  C   UNL     1       2.606   6.885  18.658  0.00  0.00    +0.000 A 
ATOM      8  C   UNL     1       3.341   6.244  17.593  0.00  0.00    +0.000 A 
ATOM      9  C   UNL     1       3.737   4.972  17.706  0.00  0.00    +0.000 A 
ATOM     10  C   UNL     1       3.421   4.203  18.934  0.00  0.00    +0.000 A 
ATOM     11  O   UNL     1       3.803   3.037  19.008  0.00  0.00    +0.000 OA
ATOM     12  N   UNL     1       2.702   4.881  19.922  0.00  0.00    +0.000 N 
ATOM     13  C   UNL     1       2.379   4.153  21.140  0.00  0.00    +0.000 C 
ATOM     14  C   UNL     1       2.192   8.299  18.524  0.00  0.00    +0.000 A 
ATOM     15  O   UNL     1       2.519   8.919  17.517  0.00  0.00    +0.000 OA
ATOM     16  C   UNL     1       1.408   8.901  19.633  0.00  0.00    +0.000 A 
ATOM     17  C   UNL     1       0.919  10.233  19.624  0.00  0.00    +0.000 A 
ATOM     18  C   UNL     1       1.109  11.203  18.480  0.00  0.00    +0.000 C 
ATOM     19  C   UNL     1       0.204  10.693  20.760  0.00  0.00    +0.000 A 
ATOM     20 CL   UNL     1      -0.404  12.327  20.805  0.00  0.00    +0.000 Cl
ENDROOT
TORSDOF 0
ENDMDL
MODEL 4
REMARK VINA RESULT:      -7.0      1.693      3.278
REMARK  Name = 
REMARK  3 active torsions:
REMARK  status: ('A' for Active; 'I' for Inactive)
REMARK    1  A    between atoms: C_1  and  C_2
REMARK    2  A    between atoms: N_12  and  C_13
REMARK    3  A    between atoms: C_17  and  C_18
REMARK                            x       y       z     vdW  Elec       q    Type
REMARK                         _______ _______ _______ _____ _____    ______ ____
ROOT
ATOM      1  C   UNL     1       0.962  11.993  18.330  0.00  0.00    +0.000 C 
ATOM      2  C   UNL     1       1.269  10.586  18.769  0.00  0.00    +0.000 A 
ATOM      3  C   UNL     1       2.132   9.793  18.002  0.00  0.00    +0.000 A 
ATOM      4  C   UNL     1       2.429   8.482  18.385  0.00  0.00    +0.000 A 
ATOM      5  O   UNL     1       3.287   7.804  17.546  0.00  0.00    +0.000 OA
ATOM      6  C   UNL     1       3.646   6.504  17.859  0.00  0.00    +0.000 A 
ATOM      7  C   UNL     1       3.185   5.849  18.936  0.00  0.00    +0.000 A 
ATOM      8  C   UNL     1       3.600   4.492  19.203  0.00  0.00    +0.000 A 
ATOM      9  C   UNL     1       4.444   3.861  18.380  0.00  0.00    +0.000 A 
ATOM     10  C   UNL     1       4.966   4.556  17.179  0.00  0.00    +0.000 A 
ATOM     11  O   UNL     1       5.737   3.947  16.440  0.00  0.00    +0.000 OA
ATOM     12  N   UNL     1       4.529   5.869  16.983  0.00  0.00    +0.000 N 
ATOM     13  C   UNL     1       5.023   6.576  15.810  0.00  0.00    +0.000 C 
ATOM     14  C   UNL     1       2.236   6.526  19.847  0.00  0.00    +0.000 A 
ATOM     15  O   UNL     1       1.783   5.900  20.801  0.00  0.00    +0.000 OA
ATOM     16  C   UNL     1       1.868   7.933  19.547  0.00  0.00    +0.000 A 
ATOM     17  C   UNL     1       0.997   8.712  20.352  0.00  0.00    +0.000 A 
ATOM     18  C   UNL     1       0.349   8.223  21.627  0.00  0.00    +0.000 C 
ATOM     19  C   UNL     1       0.707  10.038  19.937  0.00  0.00    +0.000 A 
ATOM     20 CL   UNL     1      -0.371  11.031  20.883  0.00  0.00    +0.000 Cl
ENDROOT
TORSDOF 0
ENDMDL
MODEL 5
REMARK VINA RESULT:      -6.9      3.062      5.876
REMARK  Name = 
REMARK  3 active torsions:
REMARK  status: ('A' for Active; 'I' for Inactive)
REMARK    1  A    between atoms: C_1  and  C_2
REMARK    2  A    between atoms: N_12  and  C_13
REMARK    3  A    between atoms: C_17  and  C_18
REMARK                            x       y       z     vdW  Elec       q    Type
REMARK                         _______ _______ _______ _____ _____    ______ ____
ROOT
ATOM      1  C   UNL     1       3.485   2.961  20.329  0.00  0.00    +0.000 C 
ATOM      2  C   UNL     1       3.236   4.337  19.770  0.00  0.00    +0.000 A 
ATOM      3  C   UNL     1       2.400   5.225  20.459  0.00  0.00    +0.000 A 
ATOM      4  C   UNL     1       2.150   6.506  19.959  0.00  0.00    +0.000 A 
ATOM      5  O   UNL     1       1.309   7.283  20.726  0.00  0.00    +0.000 OA
ATOM      6  C   UNL     1       1.019   8.571  20.311  0.00  0.00    +0.000 A 
ATOM      7  C   UNL     1       1.502   9.110  19.180  0.00  0.00    +0.000 A 
ATOM      8  C   UNL     1       1.158  10.461  18.806  0.00  0.00    +0.000 A 
ATOM      9  C   UNL     1       0.350  11.199  19.574  0.00  0.00    +0.000 A 
ATOM     10  C   UNL     1      -0.204  10.630  20.827  0.00  0.00    +0.000 A 
ATOM     11  O   UNL     1      -0.948  11.332  21.508  0.00  0.00    +0.000 OA
ATOM     12  N   UNL     1       0.172   9.319  21.132  0.00  0.00    +0.000 N 
ATOM     13  C   UNL     1      -0.358   8.733  22.355  0.00  0.00    +0.000 C 
ATOM     14  C   UNL     1       2.383   8.302  18.309  0.00  0.00    +0.000 A 
ATOM     15  O   UNL     1       2.778   8.787  17.253  0.00  0.00    +0.000 OA
ATOM     16  C   UNL     1       2.733   6.930  18.756  0.00  0.00    +0.000 A 
ATOM     17  C   UNL     1       3.593   6.059  18.038  0.00  0.00    +0.000 A 
ATOM     18  C   UNL     1       4.281   6.418  16.741  0.00  0.00    +0.000 C 
ATOM     19  C   UNL     1       3.825   4.761  18.564  0.00  0.00    +0.000 A 
ATOM     20 CL   UNL     1       4.861   3.647  17.710  0.00  0.00    +0.000 Cl
ENDROOT
TORSDOF 0
ENDMDL
MODEL 6
REMARK VINA RESULT:      -6.7      3.169      6.509
REMARK  Name = 
REMARK  3 active torsions:
REMARK  status: ('A' for Active; 'I' for Inactive)
REMARK    1  A    between atoms: C_1  and  C_2
REMARK    2  A    between atoms: N_12  and  C_13
REMARK    3  A    between atoms: C_17  and  C_18
REMARK                            x       y       z     vdW  Elec       q    Type
REMARK                         _______ _______ _______ _____ _____    ______ ____
ROOT
ATOM      1  C   UNL     1       5.253   6.216  15.629  0.00  0.00    +0.000 C 
ATOM      2  C   UNL     1       4.368   6.294  16.845  0.00  0.00    +0.000 A 
ATOM      3  C   UNL     1       3.731   7.500  17.162  0.00  0.00    +0.000 A 
ATOM      4  C   UNL     1       2.908   7.599  18.289  0.00  0.00    +0.000 A 
ATOM      5  O   UNL     1       2.342   8.838  18.496  0.00  0.00    +0.000 OA
ATOM      6  C   UNL     1       1.501   9.020  19.581  0.00  0.00    +0.000 A 
ATOM      7  C   UNL     1       1.216   8.052  20.465  0.00  0.00    +0.000 A 
ATOM      8  C   UNL     1       0.330   8.310  21.576  0.00  0.00    +0.000 A 
ATOM      9  C   UNL     1      -0.217   9.518  21.748  0.00  0.00    +0.000 A 
ATOM     10  C   UNL     1       0.084  10.610  20.791  0.00  0.00    +0.000 A 
ATOM     11  O   UNL     1      -0.431  11.710  20.979  0.00  0.00    +0.000 OA
ATOM     12  N   UNL     1       0.943  10.291  19.736  0.00  0.00    +0.000 N 
ATOM     13  C   UNL     1       1.259  11.345  18.782  0.00  0.00    +0.000 C 
ATOM     14  C   UNL     1       1.826   6.714  20.301  0.00  0.00    +0.000 A 
ATOM     15  O   UNL     1       1.597   5.852  21.143  0.00  0.00    +0.000 OA
ATOM     16  C   UNL     1       2.703   6.491  19.123  0.00  0.00    +0.000 A 
ATOM     17  C   UNL     1       3.325   5.251  18.824  0.00  0.00    +0.000 A 
ATOM     18  C   UNL     1       3.162   3.994  19.648  0.00  0.00    +0.000 C 
ATOM     19  C   UNL     1       4.161   5.179  17.679  0.00  0.00    +0.000 A 
ATOM     20 CL   UNL     1       4.962   3.683  17.278  0.00  0.00    +0.000 Cl
ENDROOT
TORSDOF 0
ENDMDL
MODEL 7
REMARK VINA RESULT:      -6.5      3.352      6.218
REMARK  Name = 
REMARK  3 active torsions:
REMARK  status: ('A' for Active; 'I' for Inactive)
REMARK    1  A    between atoms: C_1  and  C_2
REMARK    2  A    between atoms: N_12  and  C_13
REMARK    3  A    between atoms: C_17  and  C_18
REMARK                            x       y       z     vdW  Elec       q    Type
REMARK                         _______ _______ _______ _____ _____    ______ ____
ROOT
ATOM      1  C   UNL     1       2.304   4.126  21.020  0.00  0.00    +0.000 C 
ATOM      2  C   UNL     1       2.201   5.483  20.376  0.00  0.00    +0.000 A 
ATOM      3  C   UNL     1       1.499   6.507  21.025  0.00  0.00    +0.000 A 
ATOM      4  C   UNL     1       1.384   7.775  20.446  0.00  0.00    +0.000 A 
ATOM      5  O   UNL     1       0.667   8.694  21.180  0.00  0.00    +0.000 OA
ATOM      6  C   UNL     1       0.516   9.979  20.686  0.00  0.00    +0.000 A 
ATOM      7  C   UNL     1       1.020  10.382  19.509  0.00  0.00    +0.000 A 
ATOM      8  C   UNL     1       0.826  11.738  19.054  0.00  0.00    +0.000 A 
ATOM      9  C   UNL     1       0.136  12.615  19.791  0.00  0.00    +0.000 A 
ATOM     10  C   UNL     1      -0.438  12.198  21.093  0.00  0.00    +0.000 A 
ATOM     11  O   UNL     1      -1.070  13.026  21.745  0.00  0.00    +0.000 OA
ATOM     12  N   UNL     1      -0.208  10.874  21.477  0.00  0.00    +0.000 N 
ATOM     13  C   UNL     1      -0.762  10.435  22.750  0.00  0.00    +0.000 C 
ATOM     14  C   UNL     1       1.771   9.420  18.672  0.00  0.00    +0.000 A 
ATOM     15  O   UNL     1       2.184   9.786  17.576  0.00  0.00    +0.000 OA
ATOM     16  C   UNL     1       1.972   8.047  19.202  0.00  0.00    +0.000 A 
ATOM     17  C   UNL     1       2.698   7.035  18.522  0.00  0.00    +0.000 A 
ATOM     18  C   UNL     1       3.379   7.226  17.186  0.00  0.00    +0.000 C 
ATOM     19  C   UNL     1       2.794   5.756  19.129  0.00  0.00    +0.000 A 
ATOM     20 CL   UNL     1       3.662   4.473  18.326  0.00  0.00    +0.000 Cl
ENDROOT
TORSDOF 0
ENDMDL
MODEL 8
REMARK VINA RESULT:      -6.4      3.252      6.583
REMARK  Name = 
REMARK  3 active torsions:
REMARK  status: ('A' for Active; 'I' for Inactive)
REMARK    1  A    between atoms: C_1  and  C_2
REMARK    2  A    between atoms: N_12  and  C_13
REMARK    3  A    between atoms: C_17  and  C_18
REMARK                            x       y       z     vdW  Elec       q    Type
REMARK                         _______ _______ _______ _____ _____    ______ ____
ROOT
ATOM      1  C   UNL     1       5.953   5.656  14.803  0.00  0.00    +0.000 C 
ATOM      2  C   UNL     1       5.123   5.673  16.060  0.00  0.00    +0.000 A 
ATOM      3  C   UNL     1       4.431   6.837  16.418  0.00  0.00    +0.000 A 
ATOM      4  C   UNL     1       3.658   6.879  17.583  0.00  0.00    +0.000 A 
ATOM      5  O   UNL     1       3.030   8.081  17.828  0.00  0.00    +0.000 OA
ATOM      6  C   UNL     1       2.232   8.206  18.953  0.00  0.00    +0.000 A 
ATOM      7  C   UNL     1       2.046   7.216  19.840  0.00  0.00    +0.000 A 
ATOM      8  C   UNL     1       1.200   7.413  20.993  0.00  0.00    +0.000 A 
ATOM      9  C   UNL     1       0.591   8.586  21.202  0.00  0.00    +0.000 A 
ATOM     10  C   UNL     1       0.782   9.700  20.242  0.00  0.00    +0.000 A 
ATOM     11  O   UNL     1       0.212  10.766  20.465  0.00  0.00    +0.000 OA
ATOM     12  N   UNL     1       1.608   9.440  19.146  0.00  0.00    +0.000 N 
ATOM     13  C   UNL     1       1.816  10.517  18.188  0.00  0.00    +0.000 C 
ATOM     14  C   UNL     1       2.726   5.918  19.635  0.00  0.00    +0.000 A 
ATOM     15  O   UNL     1       2.588   5.038  20.478  0.00  0.00    +0.000 OA
ATOM     16  C   UNL     1       3.558   5.755  18.415  0.00  0.00    +0.000 A 
ATOM     17  C   UNL     1       4.238   4.557  18.075  0.00  0.00    +0.000 A 
ATOM     18  C   UNL     1       4.188   3.287  18.894  0.00  0.00    +0.000 C 
ATOM     19  C   UNL     1       5.021   4.542  16.892  0.00  0.00    +0.000 A 
ATOM     20 CL   UNL     1       5.890   3.099  16.439  0.00  0.00    +0.000 Cl
ENDROOT
TORSDOF 0
ENDMDL
MODEL 9
REMARK VINA RESULT:      -6.2      3.078      6.577
REMARK  Name = 
REMARK  3 active torsions:
REMARK  status: ('A' for Active; 'I' for Inactive)
REMARK    1  A    between atoms: C_1  and  C_2
REMARK    2  A    between atoms: N_12  and  C_13
REMARK    3  A    between atoms: C_17  and  C_18
REMARK                            x       y       z     vdW  Elec       q    Type
REMARK                         _______ _______ _______ _____ _____    ______ ____
ROOT
ATOM      1  C   UNL     1       5.063   4.108  15.971  0.00  0.00    +0.000 C 
ATOM      2  C   UNL     1       4.223   4.593  17.124  0.00  0.00    +0.000 A 
ATOM      3  C   UNL     1       3.832   5.937  17.180  0.00  0.00    +0.000 A 
ATOM      4  C   UNL     1       3.057   6.413  18.242  0.00  0.00    +0.000 A 
ATOM      5  O   UNL     1       2.741   7.753  18.185  0.00  0.00    +0.000 OA
ATOM      6  C   UNL     1       1.964   8.304  19.189  0.00  0.00    +0.000 A 
ATOM      7  C   UNL     1       1.509   7.603  20.240  0.00  0.00    +0.000 A 
ATOM      8  C   UNL     1       0.702   8.241  21.253  0.00  0.00    +0.000 A 
ATOM      9  C   UNL     1       0.399   9.540  21.168  0.00  0.00    +0.000 A 
ATOM     10  C   UNL     1       0.891  10.342  20.022  0.00  0.00    +0.000 A 
ATOM     11  O   UNL     1       0.598  11.535  19.976  0.00  0.00    +0.000 OA
ATOM     12  N   UNL     1       1.661   9.663  19.075  0.00  0.00    +0.000 N 
ATOM     13  C   UNL     1       2.161  10.425  17.940  0.00  0.00    +0.000 C 
ATOM     14  C   UNL     1       1.850   6.168  20.360  0.00  0.00    +0.000 A 
ATOM     15  O   UNL     1       1.470   5.550  21.349  0.00  0.00    +0.000 OA
ATOM     16  C   UNL     1       2.654   5.553  19.273  0.00  0.00    +0.000 A 
ATOM     17  C   UNL     1       3.024   4.183  19.242  0.00  0.00    +0.000 A 
ATOM     18  C   UNL     1       2.633   3.170  20.293  0.00  0.00    +0.000 C 
ATOM     19  C   UNL     1       3.816   3.727  18.156  0.00  0.00    +0.000 A 
ATOM     20 CL   UNL     1       4.312   2.056  18.080  0.00  0.00    +0.000 Cl
ENDROOT
TORSDOF 0
ENDMDL
