MODEL 1
REMARK VINA RESULT:      -9.0      0.000      0.000
REMARK  Name = 
REMARK  6 active torsions:
REMARK  status: ('A' for Active; 'I' for Inactive)
REMARK    1  A    between atoms: C_1  and  C_2
REMARK    2  A    between atoms: C_7  and  O_8
REMARK    3  A    between atoms: C_11  and  C_12
REMARK    4  A    between atoms: C_12  and  C_13
REMARK    5  A    between atoms: C_13  and  N_14
REMARK    6  A    between atoms: N_17  and  C_18
REMARK                            x       y       z     vdW  Elec       q    Type
REMARK                         _______ _______ _______ _____ _____    ______ ____
ROOT
ATOM      1  N   UNL     1       2.093   7.699  20.005  0.00  0.00    +0.000 NA
ATOM      2  C   UNL     1       1.047   7.958  21.047  0.00  0.00    +0.000 C 
ATOM      3  C   UNL     1       0.615   9.495  21.327  0.00  0.00    +0.000 C 
ATOM      4  N   UNL     1       0.554  10.463  20.162  0.00  0.00    +0.000 N 
ATOM      5  C   UNL     1       1.402   9.937  19.006  0.00  0.00    +0.000 C 
ATOM      6  C   UNL     1       1.540   8.367  18.811  0.00  0.00    +0.000 C 
ENDROOT
BRANCH   4   7
ATOM      7  C   UNL     1      -0.716  11.039  19.817  0.00  0.00    +0.000 A 
ATOM      8  C   UNL     1      -1.309  11.770  20.837  0.00  0.00    +0.000 A 
ATOM      9  C   UNL     1      -2.055  12.851  20.435  0.00  0.00    +0.000 A 
ATOM     10  C   UNL     1      -3.092  12.552  19.585  0.00  0.00    +0.000 A 
ATOM     11  C   UNL     1      -2.887  11.559  18.639  0.00  0.00    +0.000 A 
ATOM     12  C   UNL     1      -3.948  11.427  17.712  0.00  0.00    +0.000 A 
ATOM     13  C   UNL     1      -3.832  10.636  16.588  0.00  0.00    +0.000 A 
ATOM     14  C   UNL     1      -2.623   9.986  16.392  0.00  0.00    +0.000 A 
ATOM     15  C   UNL     1      -1.559  10.066  17.359  0.00  0.00    +0.000 A 
ATOM     16  C   UNL     1      -1.625  10.841  18.597  0.00  0.00    +0.000 A 
ENDBRANCH   4   7
BRANCH   1  17
ATOM     17  C   UNL     1       2.482   6.223  19.855  0.00  0.00    +0.000 C 
BRANCH  17  18
ATOM     18  C   UNL     1       2.201   5.458  18.485  0.00  0.00    +0.000 C 
BRANCH  18  28
ATOM     19  C   UNL     1       2.578   2.220  17.741  0.00  0.00    +0.000 C 
ATOM     20  C   UNL     1       3.488   3.367  17.483  0.00  0.00    +0.000 A 
ATOM     21  N   UNL     1       4.721   3.104  16.926  0.00  0.00    +0.000 N 
ATOM     22  C   UNL     1       5.459   4.235  16.869  0.00  0.00    +0.000 A 
ATOM     23  C   UNL     1       6.790   4.384  16.419  0.00  0.00    +0.000 A 
ATOM     24  C   UNL     1       7.377   5.648  16.493  0.00  0.00    +0.000 A 
ATOM     25  C   UNL     1       6.651   6.706  17.011  0.00  0.00    +0.000 A 
ATOM     26  C   UNL     1       5.323   6.548  17.458  0.00  0.00    +0.000 A 
ATOM     27  C   UNL     1       4.696   5.281  17.375  0.00  0.00    +0.000 A 
ATOM     28  C   UNL     1       3.384   4.737  17.740  0.00  0.00    +0.000 A 
ATOM     29  H   UNL     1       5.048   2.187  16.654  0.00  0.00    +0.000 HD
BRANCH  25  30
ATOM     30  O   UNL     1       7.220   7.948  17.100  0.00  0.00    +0.000 OA
ATOM     31  H   UNL     1       7.009   8.328  17.973  0.00  0.00    +0.000 HD
ENDBRANCH  25  30
ENDBRANCH  18  28
ENDBRANCH  17  18
ENDBRANCH   1  17
TORSDOF 5
ENDMDL
MODEL 2
REMARK VINA RESULT:      -8.9      3.377      9.714
REMARK  Name = 
REMARK  6 active torsions:
REMARK  status: ('A' for Active; 'I' for Inactive)
REMARK    1  A    between atoms: C_1  and  C_2
REMARK    2  A    between atoms: C_7  and  O_8
REMARK    3  A    between atoms: C_11  and  C_12
REMARK    4  A    between atoms: C_12  and  C_13
REMARK    5  A    between atoms: C_13  and  N_14
REMARK    6  A    between atoms: N_17  and  C_18
REMARK                            x       y       z     vdW  Elec       q    Type
REMARK                         _______ _______ _______ _____ _____    ______ ____
ROOT
ATOM      1  N   UNL     1       0.062  10.296  19.742  0.00  0.00    +0.000 NA
ATOM      2  C   UNL     1       0.549   9.673  18.469  0.00  0.00    +0.000 C 
ATOM      3  C   UNL     1       1.910   8.795  18.523  0.00  0.00    +0.000 C 
ATOM      4  N   UNL     1       2.187   7.949  19.750  0.00  0.00    +0.000 N 
ATOM      5  C   UNL     1       1.376   8.470  20.933  0.00  0.00    +0.000 C 
ATOM      6  C   UNL     1      -0.036   9.142  20.656  0.00  0.00    +0.000 C 
ENDROOT
BRANCH   4   7
ATOM      7  C   UNL     1       2.256   6.523  19.596  0.00  0.00    +0.000 A 
ATOM      8  C   UNL     1       1.687   5.805  20.639  0.00  0.00    +0.000 A 
ATOM      9  C   UNL     1       1.094   4.617  20.288  0.00  0.00    +0.000 A 
ATOM     10  C   UNL     1       1.929   3.716  19.672  0.00  0.00    +0.000 A 
ATOM     11  C   UNL     1       2.881   4.212  18.795  0.00  0.00    +0.000 A 
ATOM     12  C   UNL     1       3.589   3.206  18.094  0.00  0.00    +0.000 A 
ATOM     13  C   UNL     1       4.426   3.511  17.042  0.00  0.00    +0.000 A 
ATOM     14  C   UNL     1       4.535   4.847  16.685  0.00  0.00    +0.000 A 
ATOM     15  C   UNL     1       3.868   5.883  17.430  0.00  0.00    +0.000 A 
ATOM     16  C   UNL     1       3.005   5.643  18.586  0.00  0.00    +0.000 A 
ENDBRANCH   4   7
BRANCH   1  17
ATOM     17  C   UNL     1      -1.196  11.159  19.581  0.00  0.00    +0.000 C 
BRANCH  17  18
ATOM     18  C   UNL     1      -1.673  11.615  18.130  0.00  0.00    +0.000 C 
BRANCH  18  28
ATOM     19  C   UNL     1      -2.917  10.609  15.193  0.00  0.00    +0.000 C 
ATOM     20  C   UNL     1      -3.624  11.001  16.441  0.00  0.00    +0.000 A 
ATOM     21  N   UNL     1      -5.001  11.051  16.418  0.00  0.00    +0.000 N 
ATOM     22  C   UNL     1      -5.471  11.536  17.590  0.00  0.00    +0.000 A 
ATOM     23  C   UNL     1      -6.813  11.793  17.948  0.00  0.00    +0.000 A 
ATOM     24  C   UNL     1      -7.069  12.343  19.206  0.00  0.00    +0.000 A 
ATOM     25  C   UNL     1      -6.010  12.627  20.052  0.00  0.00    +0.000 A 
ATOM     26  C   UNL     1      -4.674  12.367  19.684  0.00  0.00    +0.000 A 
ATOM     27  C   UNL     1      -4.388  11.791  18.423  0.00  0.00    +0.000 A 
ATOM     28  C   UNL     1      -3.172  11.403  17.702  0.00  0.00    +0.000 A 
ATOM     29  H   UNL     1      -5.574  10.817  15.619  0.00  0.00    +0.000 HD
BRANCH  25  30
ATOM     30  O   UNL     1      -6.247  13.177  21.283  0.00  0.00    +0.000 OA
ATOM     31  H   UNL     1      -7.017  13.772  21.218  0.00  0.00    +0.000 HD
ENDBRANCH  25  30
ENDBRANCH  18  28
ENDBRANCH  17  18
ENDBRANCH   1  17
TORSDOF 5
ENDMDL
MODEL 3
REMARK VINA RESULT:      -8.8      5.164      8.935
REMARK  Name = 
REMARK  6 active torsions:
REMARK  status: ('A' for Active; 'I' for Inactive)
REMARK    1  A    between atoms: C_1  and  C_2
REMARK    2  A    between atoms: C_7  and  O_8
REMARK    3  A    between atoms: C_11  and  C_12
REMARK    4  A    between atoms: C_12  and  C_13
REMARK    5  A    between atoms: C_13  and  N_14
REMARK    6  A    between atoms: N_17  and  C_18
REMARK                            x       y       z     vdW  Elec       q    Type
REMARK                         _______ _______ _______ _____ _____    ______ ____
ROOT
ATOM      1  N   UNL     1       7.822   7.308  17.901  0.00  0.00    +0.000 NA
ATOM      2  C   UNL     1       6.403   7.730  17.661  0.00  0.00    +0.000 C 
ATOM      3  C   UNL     1       5.456   6.750  16.784  0.00  0.00    +0.000 C 
ATOM      4  N   UNL     1       5.620   5.250  16.929  0.00  0.00    +0.000 N 
ATOM      5  C   UNL     1       6.999   4.932  17.502  0.00  0.00    +0.000 C 
ATOM      6  C   UNL     1       7.669   5.968  18.501  0.00  0.00    +0.000 C 
ENDROOT
BRANCH   4   7
ATOM      7  C   UNL     1       4.518   4.489  17.446  0.00  0.00    +0.000 A 
ATOM      8  C   UNL     1       4.202   3.360  16.703  0.00  0.00    +0.000 A 
ATOM      9  C   UNL     1       3.729   2.289  17.422  0.00  0.00    +0.000 A 
ATOM     10  C   UNL     1       2.593   2.542  18.153  0.00  0.00    +0.000 A 
ATOM     11  C   UNL     1       2.474   3.787  18.751  0.00  0.00    +0.000 A 
ATOM     12  C   UNL     1       1.352   3.903  19.606  0.00  0.00    +0.000 A 
ATOM     13  C   UNL     1       1.185   4.992  20.436  0.00  0.00    +0.000 A 
ATOM     14  C   UNL     1       2.173   5.965  20.412  0.00  0.00    +0.000 A 
ATOM     15  C   UNL     1       3.286   5.887  19.502  0.00  0.00    +0.000 A 
ATOM     16  C   UNL     1       3.505   4.792  18.559  0.00  0.00    +0.000 A 
ENDBRANCH   4   7
BRANCH   1  17
ATOM     17  C   UNL     1       8.658   8.327  18.685  0.00  0.00    +0.000 C 
BRANCH  17  18
ATOM     18  C   UNL     1       8.481   9.887  18.413  0.00  0.00    +0.000 C 
BRANCH  18  28
ATOM     19  C   UNL     1       8.589  10.890  21.601  0.00  0.00    +0.000 C 
ATOM     20  C   UNL     1       9.427  11.305  20.445  0.00  0.00    +0.000 A 
ATOM     21  N   UNL     1      10.351  12.308  20.640  0.00  0.00    +0.000 N 
ATOM     22  C   UNL     1      10.937  12.639  19.468  0.00  0.00    +0.000 A 
ATOM     23  C   UNL     1      11.894  13.650  19.229  0.00  0.00    +0.000 A 
ATOM     24  C   UNL     1      12.333  13.851  17.919  0.00  0.00    +0.000 A 
ATOM     25  C   UNL     1      11.815  13.069  16.901  0.00  0.00    +0.000 A 
ATOM     26  C   UNL     1      10.861  12.062  17.149  0.00  0.00    +0.000 A 
ATOM     27  C   UNL     1      10.413  11.823  18.472  0.00  0.00    +0.000 A 
ATOM     28  C   UNL     1       9.454  10.912  19.103  0.00  0.00    +0.000 A 
ATOM     29  H   UNL     1      10.523  12.771  21.522  0.00  0.00    +0.000 HD
BRANCH  25  30
ATOM     30  O   UNL     1      12.229  13.263  15.610  0.00  0.00    +0.000 OA
ATOM     31  H   UNL     1      11.948  14.151  15.321  0.00  0.00    +0.000 HD
ENDBRANCH  25  30
ENDBRANCH  18  28
ENDBRANCH  17  18
ENDBRANCH   1  17
TORSDOF 5
ENDMDL
MODEL 4
REMARK VINA RESULT:      -8.7      1.912      3.128
REMARK  Name = 
REMARK  6 active torsions:
REMARK  status: ('A' for Active; 'I' for Inactive)
REMARK    1  A    between atoms: C_1  and  C_2
REMARK    2  A    between atoms: C_7  and  O_8
REMARK    3  A    between atoms: C_11  and  C_12
REMARK    4  A    between atoms: C_12  and  C_13
REMARK    5  A    between atoms: C_13  and  N_14
REMARK    6  A    between atoms: N_17  and  C_18
REMARK                            x       y       z     vdW  Elec       q    Type
REMARK                         _______ _______ _______ _____ _____    ______ ____
ROOT
ATOM      1  N   UNL     1       2.694   8.607  18.297  0.00  0.00    +0.000 NA
ATOM      2  C   UNL     1       1.603   8.123  19.203  0.00  0.00    +0.000 C 
ATOM      3  C   UNL     1       0.954   9.181  20.246  0.00  0.00    +0.000 C 
ATOM      4  N   UNL     1       0.780  10.623  19.813  0.00  0.00    +0.000 N 
ATOM      5  C   UNL     1       1.714  10.931  18.646  0.00  0.00    +0.000 C 
ATOM      6  C   UNL     1       2.074   9.768  17.627  0.00  0.00    +0.000 C 
ENDROOT
BRANCH   4   7
ATOM      7  C   UNL     1      -0.552  11.154  19.729  0.00  0.00    +0.000 A 
ATOM      8  C   UNL     1      -0.990  11.790  20.882  0.00  0.00    +0.000 A 
ATOM      9  C   UNL     1      -1.836  12.855  20.687  0.00  0.00    +0.000 A 
ATOM     10  C   UNL     1      -2.991  12.557  20.005  0.00  0.00    +0.000 A 
ATOM     11  C   UNL     1      -2.911  11.637  18.972  0.00  0.00    +0.000 A 
ATOM     12  C   UNL     1      -4.110  11.509  18.230  0.00  0.00    +0.000 A 
ATOM     13  C   UNL     1      -4.157  10.796  17.050  0.00  0.00    +0.000 A 
ATOM     14  C   UNL     1      -2.975  10.221  16.609  0.00  0.00    +0.000 A 
ATOM     15  C   UNL     1      -1.765  10.294  17.386  0.00  0.00    +0.000 A 
ATOM     16  C   UNL     1      -1.649  10.986  18.668  0.00  0.00    +0.000 A 
ENDBRANCH   4   7
BRANCH   1  17
ATOM     17  C   UNL     1       3.289   7.522  17.391  0.00  0.00    +0.000 C 
BRANCH  17  18
ATOM     18  C   UNL     1       4.546   6.672  17.879  0.00  0.00    +0.000 C 
BRANCH  18  28
ATOM     19  C   UNL     1       6.425   4.518  16.144  0.00  0.00    +0.000 C 
ATOM     20  C   UNL     1       5.291   4.259  17.071  0.00  0.00    +0.000 A 
ATOM     21  N   UNL     1       4.854   2.960  17.214  0.00  0.00    +0.000 N 
ATOM     22  C   UNL     1       3.751   2.921  17.995  0.00  0.00    +0.000 A 
ATOM     23  C   UNL     1       2.970   1.796  18.340  0.00  0.00    +0.000 A 
ATOM     24  C   UNL     1       1.834   1.995  19.128  0.00  0.00    +0.000 A 
ATOM     25  C   UNL     1       1.504   3.276  19.534  0.00  0.00    +0.000 A 
ATOM     26  C   UNL     1       2.290   4.393  19.184  0.00  0.00    +0.000 A 
ATOM     27  C   UNL     1       3.458   4.217  18.403  0.00  0.00    +0.000 A 
ATOM     28  C   UNL     1       4.484   5.101  17.843  0.00  0.00    +0.000 A 
ATOM     29  H   UNL     1       5.264   2.159  16.754  0.00  0.00    +0.000 HD
BRANCH  25  30
ATOM     30  O   UNL     1       0.387   3.485  20.297  0.00  0.00    +0.000 OA
ATOM     31  H   UNL     1       0.475   2.981  21.127  0.00  0.00    +0.000 HD
ENDBRANCH  25  30
ENDBRANCH  18  28
ENDBRANCH  17  18
ENDBRANCH   1  17
TORSDOF 5
ENDMDL
MODEL 5
REMARK VINA RESULT:      -8.7      2.572      4.297
REMARK  Name = 
REMARK  6 active torsions:
REMARK  status: ('A' for Active; 'I' for Inactive)
REMARK    1  A    between atoms: C_1  and  C_2
REMARK    2  A    between atoms: C_7  and  O_8
REMARK    3  A    between atoms: C_11  and  C_12
REMARK    4  A    between atoms: C_12  and  C_13
REMARK    5  A    between atoms: C_13  and  N_14
REMARK    6  A    between atoms: N_17  and  C_18
REMARK                            x       y       z     vdW  Elec       q    Type
REMARK                         _______ _______ _______ _____ _____    ______ ____
ROOT
ATOM      1  N   UNL     1       1.333   8.946  20.604  0.00  0.00    +0.000 NA
ATOM      2  C   UNL     1       0.299   8.848  21.685  0.00  0.00    +0.000 C 
ATOM      3  C   UNL     1      -0.252  10.224  22.339  0.00  0.00    +0.000 C 
ATOM      4  N   UNL     1      -0.427  11.439  21.449  0.00  0.00    +0.000 N 
ATOM      5  C   UNL     1       0.428  11.290  20.193  0.00  0.00    +0.000 C 
ATOM      6  C   UNL     1       0.692   9.834  19.616  0.00  0.00    +0.000 C 
ENDROOT
BRANCH   4   7
ATOM      7  C   UNL     1      -1.750  11.967  21.266  0.00  0.00    +0.000 A 
ATOM      8  C   UNL     1      -2.005  12.445  19.988  0.00  0.00    +0.000 A 
ATOM      9  C   UNL     1      -3.296  12.293  19.545  0.00  0.00    +0.000 A 
ATOM     10  C   UNL     1      -4.250  12.896  20.329  0.00  0.00    +0.000 A 
ATOM     11  C   UNL     1      -4.065  12.876  21.702  0.00  0.00    +0.000 A 
ATOM     12  C   UNL     1      -5.167  13.380  22.433  0.00  0.00    +0.000 A 
ATOM     13  C   UNL     1      -5.243  13.253  23.805  0.00  0.00    +0.000 A 
ATOM     14  C   UNL     1      -4.202  12.594  24.440  0.00  0.00    +0.000 A 
ATOM     15  C   UNL     1      -3.048  12.132  23.713  0.00  0.00    +0.000 A 
ATOM     16  C   UNL     1      -2.871  12.274  22.269  0.00  0.00    +0.000 A 
ENDBRANCH   4   7
BRANCH   1  17
ATOM     17  C   UNL     1       1.840   7.592  20.091  0.00  0.00    +0.000 C 
BRANCH  17  18
ATOM     18  C   UNL     1       2.494   7.479  18.642  0.00  0.00    +0.000 C 
BRANCH  18  28
ATOM     19  C   UNL     1       5.454   7.118  17.130  0.00  0.00    +0.000 C 
ATOM     20  C   UNL     1       4.481   6.085  17.574  0.00  0.00    +0.000 A 
ATOM     21  N   UNL     1       4.750   4.767  17.274  0.00  0.00    +0.000 N 
ATOM     22  C   UNL     1       3.714   3.982  17.643  0.00  0.00    +0.000 A 
ATOM     23  C   UNL     1       3.572   2.588  17.463  0.00  0.00    +0.000 A 
ATOM     24  C   UNL     1       2.387   1.983  17.884  0.00  0.00    +0.000 A 
ATOM     25  C   UNL     1       1.390   2.760  18.449  0.00  0.00    +0.000 A 
ATOM     26  C   UNL     1       1.542   4.150  18.625  0.00  0.00    +0.000 A 
ATOM     27  C   UNL     1       2.742   4.786  18.226  0.00  0.00    +0.000 A 
ATOM     28  C   UNL     1       3.248   6.162  18.230  0.00  0.00    +0.000 A 
ATOM     29  H   UNL     1       5.578   4.443  16.792  0.00  0.00    +0.000 HD
BRANCH  25  30
ATOM     30  O   UNL     1       0.218   2.180  18.856  0.00  0.00    +0.000 OA
ATOM     31  H   UNL     1      -0.097   2.638  19.656  0.00  0.00    +0.000 HD
ENDBRANCH  25  30
ENDBRANCH  18  28
ENDBRANCH  17  18
ENDBRANCH   1  17
TORSDOF 5
ENDMDL
MODEL 6
REMARK VINA RESULT:      -8.6      2.162      3.322
REMARK  Name = 
REMARK  6 active torsions:
REMARK  status: ('A' for Active; 'I' for Inactive)
REMARK    1  A    between atoms: C_1  and  C_2
REMARK    2  A    between atoms: C_7  and  O_8
REMARK    3  A    between atoms: C_11  and  C_12
REMARK    4  A    between atoms: C_12  and  C_13
REMARK    5  A    between atoms: C_13  and  N_14
REMARK    6  A    between atoms: N_17  and  C_18
REMARK                            x       y       z     vdW  Elec       q    Type
REMARK                         _______ _______ _______ _____ _____    ______ ____
ROOT
ATOM      1  N   UNL     1       1.489   9.191  19.578  0.00  0.00    +0.000 NA
ATOM      2  C   UNL     1       0.719   9.367  20.853  0.00  0.00    +0.000 C 
ATOM      3  C   UNL     1       0.125  10.836  21.187  0.00  0.00    +0.000 C 
ATOM      4  N   UNL     1      -0.395  11.692  20.049  0.00  0.00    +0.000 N 
ATOM      5  C   UNL     1       0.200  11.215  18.727  0.00  0.00    +0.000 C 
ATOM      6  C   UNL     1       0.542   9.675  18.554  0.00  0.00    +0.000 C 
ENDROOT
BRANCH   4   7
ATOM      7  C   UNL     1      -1.789  12.041  20.038  0.00  0.00    +0.000 A 
ATOM      8  C   UNL     1      -2.292  12.433  21.271  0.00  0.00    +0.000 A 
ATOM      9  C   UNL     1      -3.279  13.387  21.233  0.00  0.00    +0.000 A 
ATOM     10  C   UNL     1      -4.393  13.036  20.509  0.00  0.00    +0.000 A 
ATOM     11  C   UNL     1      -4.204  12.298  19.351  0.00  0.00    +0.000 A 
ATOM     12  C   UNL     1      -5.386  12.116  18.593  0.00  0.00    +0.000 A 
ATOM     13  C   UNL     1      -5.353  11.585  17.320  0.00  0.00    +0.000 A 
ATOM     14  C   UNL     1      -4.111  11.251  16.804  0.00  0.00    +0.000 A 
ATOM     15  C   UNL     1      -2.910  11.375  17.589  0.00  0.00    +0.000 A 
ATOM     16  C   UNL     1      -2.869  11.881  18.960  0.00  0.00    +0.000 A 
ENDBRANCH   4   7
BRANCH   1  17
ATOM     17  C   UNL     1       2.065   7.784  19.378  0.00  0.00    +0.000 C 
BRANCH  17  18
ATOM     18  C   UNL     1       2.858   7.427  18.042  0.00  0.00    +0.000 C 
BRANCH  18  28
ATOM     19  C   UNL     1       5.389   6.322  16.157  0.00  0.00    +0.000 C 
ATOM     20  C   UNL     1       4.410   5.560  16.976  0.00  0.00    +0.000 A 
ATOM     21  N   UNL     1       4.456   4.183  16.927  0.00  0.00    +0.000 N 
ATOM     22  C   UNL     1       3.430   3.656  17.631  0.00  0.00    +0.000 A 
ATOM     23  C   UNL     1       3.090   2.293  17.785  0.00  0.00    +0.000 A 
ATOM     24  C   UNL     1       1.950   1.973  18.525  0.00  0.00    +0.000 A 
ATOM     25  C   UNL     1       1.187   2.991  19.072  0.00  0.00    +0.000 A 
ATOM     26  C   UNL     1       1.534   4.348  18.913  0.00  0.00    +0.000 A 
ATOM     27  C   UNL     1       2.697   4.699  18.184  0.00  0.00    +0.000 A 
ATOM     28  C   UNL     1       3.352   5.953  17.801  0.00  0.00    +0.000 A 
ATOM     29  H   UNL     1       5.125   3.647  16.392  0.00  0.00    +0.000 HD
BRANCH  25  30
ATOM     30  O   UNL     1       0.061   2.691  19.790  0.00  0.00    +0.000 OA
ATOM     31  H   UNL     1      -0.675   3.242  19.464  0.00  0.00    +0.000 HD
ENDBRANCH  25  30
ENDBRANCH  18  28
ENDBRANCH  17  18
ENDBRANCH   1  17
TORSDOF 5
ENDMDL
MODEL 7
REMARK VINA RESULT:      -8.5      2.085      3.519
REMARK  Name = 
REMARK  6 active torsions:
REMARK  status: ('A' for Active; 'I' for Inactive)
REMARK    1  A    between atoms: C_1  and  C_2
REMARK    2  A    between atoms: C_7  and  O_8
REMARK    3  A    between atoms: C_11  and  C_12
REMARK    4  A    between atoms: C_12  and  C_13
REMARK    5  A    between atoms: C_13  and  N_14
REMARK    6  A    between atoms: N_17  and  C_18
REMARK                            x       y       z     vdW  Elec       q    Type
REMARK                         _______ _______ _______ _____ _____    ______ ____
ROOT
ATOM      1  N   UNL     1       1.246   9.676  19.686  0.00  0.00    +0.000 NA
ATOM      2  C   UNL     1       0.373   9.360  20.863  0.00  0.00    +0.000 C 
ATOM      3  C   UNL     1      -0.271  10.598  21.687  0.00  0.00    +0.000 C 
ATOM      4  N   UNL     1      -0.712  11.833  20.928  0.00  0.00    +0.000 N 
ATOM      5  C   UNL     1      -0.004  11.892  19.577  0.00  0.00    +0.000 C 
ATOM      6  C   UNL     1       0.377  10.531  18.853  0.00  0.00    +0.000 C 
ENDROOT
BRANCH   4   7
ATOM      7  C   UNL     1      -2.105  12.181  20.940  0.00  0.00    +0.000 A 
ATOM      8  C   UNL     1      -2.606  12.583  19.709  0.00  0.00    +0.000 A 
ATOM      9  C   UNL     1      -3.916  12.252  19.465  0.00  0.00    +0.000 A 
ATOM     10  C   UNL     1      -4.816  12.751  20.376  0.00  0.00    +0.000 A 
ATOM     11  C   UNL     1      -4.430  12.797  21.706  0.00  0.00    +0.000 A 
ATOM     12  C   UNL     1      -5.470  13.178  22.588  0.00  0.00    +0.000 A 
ATOM     13  C   UNL     1      -5.327  13.084  23.957  0.00  0.00    +0.000 A 
ATOM     14  C   UNL     1      -4.126  12.584  24.436  0.00  0.00    +0.000 A 
ATOM     15  C   UNL     1      -3.041  12.252  23.551  0.00  0.00    +0.000 A 
ATOM     16  C   UNL     1      -3.097  12.372  22.095  0.00  0.00    +0.000 A 
ENDBRANCH   4   7
BRANCH   1  17
ATOM     17  C   UNL     1       1.860   8.446  19.007  0.00  0.00    +0.000 C 
BRANCH  17  18
ATOM     18  C   UNL     1       2.184   7.139  19.862  0.00  0.00    +0.000 C 
BRANCH  18  28
ATOM     19  C   UNL     1       1.224   4.036  20.656  0.00  0.00    +0.000 C 
ATOM     20  C   UNL     1       2.070   4.511  19.529  0.00  0.00    +0.000 A 
ATOM     21  N   UNL     1       2.635   3.567  18.699  0.00  0.00    +0.000 N 
ATOM     22  C   UNL     1       3.461   4.161  17.809  0.00  0.00    +0.000 A 
ATOM     23  C   UNL     1       4.268   3.545  16.827  0.00  0.00    +0.000 A 
ATOM     24  C   UNL     1       5.087   4.356  16.038  0.00  0.00    +0.000 A 
ATOM     25  C   UNL     1       5.092   5.724  16.247  0.00  0.00    +0.000 A 
ATOM     26  C   UNL     1       4.283   6.329  17.230  0.00  0.00    +0.000 A 
ATOM     27  C   UNL     1       3.428   5.532  18.029  0.00  0.00    +0.000 A 
ATOM     28  C   UNL     1       2.486   5.783  19.124  0.00  0.00    +0.000 A 
ATOM     29  H   UNL     1       2.499   2.569  18.783  0.00  0.00    +0.000 HD
BRANCH  25  30
ATOM     30  O   UNL     1       5.899   6.529  15.488  0.00  0.00    +0.000 OA
ATOM     31  H   UNL     1       6.789   6.132  15.448  0.00  0.00    +0.000 HD
ENDBRANCH  25  30
ENDBRANCH  18  28
ENDBRANCH  17  18
ENDBRANCH   1  17
TORSDOF 5
ENDMDL
MODEL 8
REMARK VINA RESULT:      -8.5      3.507      9.761
REMARK  Name = 
REMARK  6 active torsions:
REMARK  status: ('A' for Active; 'I' for Inactive)
REMARK    1  A    between atoms: C_1  and  C_2
REMARK    2  A    between atoms: C_7  and  O_8
REMARK    3  A    between atoms: C_11  and  C_12
REMARK    4  A    between atoms: C_12  and  C_13
REMARK    5  A    between atoms: C_13  and  N_14
REMARK    6  A    between atoms: N_17  and  C_18
REMARK                            x       y       z     vdW  Elec       q    Type
REMARK                         _______ _______ _______ _____ _____    ______ ____
ROOT
ATOM      1  N   UNL     1       0.015  10.297  19.802  0.00  0.00    +0.000 NA
ATOM      2  C   UNL     1       0.659  10.086  18.465  0.00  0.00    +0.000 C 
ATOM      3  C   UNL     1       2.090   9.328  18.421  0.00  0.00    +0.000 C 
ATOM      4  N   UNL     1       2.352   8.200  19.399  0.00  0.00    +0.000 N 
ATOM      5  C   UNL     1       1.404   8.315  20.589  0.00  0.00    +0.000 C 
ATOM      6  C   UNL     1      -0.041   8.932  20.360  0.00  0.00    +0.000 C 
ENDROOT
BRANCH   4   7
ATOM      7  C   UNL     1       2.572   6.880  18.876  0.00  0.00    +0.000 A 
ATOM      8  C   UNL     1       3.117   6.852  17.600  0.00  0.00    +0.000 A 
ATOM      9  C   UNL     1       3.962   5.802  17.338  0.00  0.00    +0.000 A 
ATOM     10  C   UNL     1       3.400   4.557  17.494  0.00  0.00    +0.000 A 
ATOM     11  C   UNL     1       2.501   4.380  18.534  0.00  0.00    +0.000 A 
ATOM     12  C   UNL     1       2.094   3.036  18.712  0.00  0.00    +0.000 A 
ATOM     13  C   UNL     1       1.365   2.642  19.815  0.00  0.00    +0.000 A 
ATOM     14  C   UNL     1       1.060   3.615  20.755  0.00  0.00    +0.000 A 
ATOM     15  C   UNL     1       1.416   4.995  20.553  0.00  0.00    +0.000 A 
ATOM     16  C   UNL     1       2.143   5.499  19.388  0.00  0.00    +0.000 A 
ENDBRANCH   4   7
BRANCH   1  17
ATOM     17  C   UNL     1      -1.305  11.077  19.751  0.00  0.00    +0.000 C 
BRANCH  17  18
ATOM     18  C   UNL     1      -1.797  11.727  18.381  0.00  0.00    +0.000 C 
BRANCH  18  28
ATOM     19  C   UNL     1      -2.922  10.768  15.382  0.00  0.00    +0.000 C 
ATOM     20  C   UNL     1      -3.678  11.115  16.614  0.00  0.00    +0.000 A 
ATOM     21  N   UNL     1      -5.054  11.139  16.546  0.00  0.00    +0.000 N 
ATOM     22  C   UNL     1      -5.572  11.586  17.712  0.00  0.00    +0.000 A 
ATOM     23  C   UNL     1      -6.931  11.808  18.032  0.00  0.00    +0.000 A 
ATOM     24  C   UNL     1      -7.239  12.322  19.293  0.00  0.00    +0.000 A 
ATOM     25  C   UNL     1      -6.215  12.607  20.180  0.00  0.00    +0.000 A 
ATOM     26  C   UNL     1      -4.863  12.382  19.851  0.00  0.00    +0.000 A 
ATOM     27  C   UNL     1      -4.524  11.842  18.587  0.00  0.00    +0.000 A 
ATOM     28  C   UNL     1      -3.276  11.496  17.898  0.00  0.00    +0.000 A 
ATOM     29  H   UNL     1      -5.595  10.912  15.723  0.00  0.00    +0.000 HD
BRANCH  25  30
ATOM     30  O   UNL     1      -6.504  13.122  21.415  0.00  0.00    +0.000 OA
ATOM     31  H   UNL     1      -6.092  12.557  22.094  0.00  0.00    +0.000 HD
ENDBRANCH  25  30
ENDBRANCH  18  28
ENDBRANCH  17  18
ENDBRANCH   1  17
TORSDOF 5
ENDMDL
MODEL 9
REMARK VINA RESULT:      -8.5      2.519      4.370
REMARK  Name = 
REMARK  6 active torsions:
REMARK  status: ('A' for Active; 'I' for Inactive)
REMARK    1  A    between atoms: C_1  and  C_2
REMARK    2  A    between atoms: C_7  and  O_8
REMARK    3  A    between atoms: C_11  and  C_12
REMARK    4  A    between atoms: C_12  and  C_13
REMARK    5  A    between atoms: C_13  and  N_14
REMARK    6  A    between atoms: N_17  and  C_18
REMARK                            x       y       z     vdW  Elec       q    Type
REMARK                         _______ _______ _______ _____ _____    ______ ____
ROOT
ATOM      1  N   UNL     1       3.274   5.252  18.170  0.00  0.00    +0.000 NA
ATOM      2  C   UNL     1       2.139   5.210  19.148  0.00  0.00    +0.000 C 
ATOM      3  C   UNL     1       2.005   6.426  20.212  0.00  0.00    +0.000 C 
ATOM      4  N   UNL     1       2.363   7.830  19.768  0.00  0.00    +0.000 N 
ATOM      5  C   UNL     1       3.271   7.771  18.542  0.00  0.00    +0.000 C 
ATOM      6  C   UNL     1       3.100   6.566  17.522  0.00  0.00    +0.000 C 
ENDROOT
BRANCH   4   7
ATOM      7  C   UNL     1       1.330   8.827  19.756  0.00  0.00    +0.000 A 
ATOM      8  C   UNL     1       1.184   9.487  18.543  0.00  0.00    +0.000 A 
ATOM      9  C   UNL     1      -0.096   9.869  18.225  0.00  0.00    +0.000 A 
ATOM     10  C   UNL     1      -0.692  10.704  19.139  0.00  0.00    +0.000 A 
ATOM     11  C   UNL     1      -0.430  10.484  20.483  0.00  0.00    +0.000 A 
ATOM     12  C   UNL     1      -1.204  11.289  21.353  0.00  0.00    +0.000 A 
ATOM     13  C   UNL     1      -1.225  11.068  22.714  0.00  0.00    +0.000 A 
ATOM     14  C   UNL     1      -0.469  10.010  23.197  0.00  0.00    +0.000 A 
ATOM     15  C   UNL     1       0.369   9.225  22.328  0.00  0.00    +0.000 A 
ATOM     16  C   UNL     1       0.484   9.430  20.885  0.00  0.00    +0.000 A 
ENDBRANCH   4   7
BRANCH   1  17
ATOM     17  C   UNL     1       3.356   4.030  17.247  0.00  0.00    +0.000 C 
BRANCH  17  18
ATOM     18  C   UNL     1       4.757   3.315  16.989  0.00  0.00    +0.000 C 
BRANCH  18  28
ATOM     19  C   UNL     1       6.786   5.810  17.903  0.00  0.00    +0.000 C 
ATOM     20  C   UNL     1       6.666   5.112  16.595  0.00  0.00    +0.000 A 
ATOM     21  N   UNL     1       7.426   5.573  15.542  0.00  0.00    +0.000 N 
ATOM     22  C   UNL     1       7.109   4.905  14.410  0.00  0.00    +0.000 A 
ATOM     23  C   UNL     1       7.617   5.111  13.108  0.00  0.00    +0.000 A 
ATOM     24  C   UNL     1       7.110   4.331  12.067  0.00  0.00    +0.000 A 
ATOM     25  C   UNL     1       6.124   3.396  12.336  0.00  0.00    +0.000 A 
ATOM     26  C   UNL     1       5.623   3.199  13.639  0.00  0.00    +0.000 A 
ATOM     27  C   UNL     1       6.135   3.962  14.716  0.00  0.00    +0.000 A 
ATOM     28  C   UNL     1       5.866   4.053  16.154  0.00  0.00    +0.000 A 
ATOM     29  H   UNL     1       8.083   6.339  15.596  0.00  0.00    +0.000 HD
BRANCH  25  30
ATOM     30  O   UNL     1       5.610   2.633  11.322  0.00  0.00    +0.000 OA
ATOM     31  H   UNL     1       5.257   1.807  11.700  0.00  0.00    +0.000 HD
ENDBRANCH  25  30
ENDBRANCH  18  28
ENDBRANCH  17  18
ENDBRANCH   1  17
TORSDOF 5
ENDMDL
