MODEL 1
REMARK VINA RESULT:      -8.4      0.000      0.000
REMARK  Name = 
REMARK  4 active torsions:
REMARK  status: ('A' for Active; 'I' for Inactive)
REMARK    1  A    between atoms: C_1  and  C_2
REMARK    2  A    between atoms: C_6  and  C_8
REMARK    3  A    between atoms: C_11  and  N_12
REMARK    4  A    between atoms: C_18  and  C_19
REMARK                            x       y       z     vdW  Elec       q    Type
REMARK                         _______ _______ _______ _____ _____    ______ ____
ROOT
ATOM      1  C   UNL     1       2.641   7.592  18.373  0.00  0.00    +0.000 A 
ATOM      2  C   UNL     1       2.225   8.652  17.573  0.00  0.00    +0.000 A 
ATOM      3  C   UNL     1       1.461   9.681  18.098  0.00  0.00    +0.000 A 
ATOM      4  C   UNL     1       0.963   9.626  19.402  0.00  0.00    +0.000 A 
ATOM      5  C   UNL     1       1.334   8.530  20.200  0.00  0.00    +0.000 A 
ATOM      6  C   UNL     1       2.164   7.518  19.688  0.00  0.00    +0.000 A 
ENDROOT
BRANCH   4   7
ATOM      7  N   UNL     1       0.073  10.623  19.834  0.00  0.00    +0.000 N 
ATOM      8  C   UNL     1      -1.203  10.818  19.296  0.00  0.00    +0.000 C 
ATOM      9  O   UNL     1      -1.840  10.123  18.521  0.00  0.00    +0.000 OA
ATOM     10  C   UNL     1      -1.692  12.108  19.855  0.00  0.00    +0.000 C 
ATOM     11  C   UNL     1      -3.184  12.373  19.907  0.00  0.00    +0.000 C 
ATOM     12  C   UNL     1      -3.403  13.678  20.690  0.00  0.00    +0.000 C 
ATOM     13  C   UNL     1      -2.764  13.632  22.096  0.00  0.00    +0.000 C 
ATOM     14  C   UNL     1      -3.478  12.591  22.977  0.00  0.00    +0.000 C 
ATOM     15  C   UNL     1      -1.248  13.340  21.977  0.00  0.00    +0.000 C 
ATOM     16  C   UNL     1      -1.070  12.033  21.238  0.00  0.00    +0.000 C 
ATOM     17  C   UNL     1       0.288  11.487  20.911  0.00  0.00    +0.000 C 
ATOM     18  O   UNL     1       1.302  11.721  21.541  0.00  0.00    +0.000 OA
ENDBRANCH   4   7
BRANCH   1  24
ATOM     19  C   UNL     1       2.278   1.262  19.131  0.00  0.00    +0.000 C 
ATOM     20  C   UNL     1       2.381   2.448  18.175  0.00  0.00    +0.000 C 
ATOM     21  C   UNL     1       3.838   2.922  18.036  0.00  0.00    +0.000 C 
ATOM     22  C   UNL     1       3.953   4.192  17.185  0.00  0.00    +0.000 C 
ATOM     23  N   UNL     1       3.037   5.225  17.658  0.00  0.00    +0.000 N 
ATOM     24  C   UNL     1       3.525   6.524  17.837  0.00  0.00    +0.000 C 
ATOM     25  O   UNL     1       4.687   6.842  17.581  0.00  0.00    +0.000 OA
ATOM     26  C   UNL     1       1.636   4.790  17.684  0.00  0.00    +0.000 C 
ATOM     27  C   UNL     1       1.484   3.606  18.637  0.00  0.00    +0.000 C 
ENDBRANCH   1  24
TORSDOF 2
ENDMDL
MODEL 2
REMARK VINA RESULT:      -8.1      0.774      1.879
REMARK  Name = 
REMARK  4 active torsions:
REMARK  status: ('A' for Active; 'I' for Inactive)
REMARK    1  A    between atoms: C_1  and  C_2
REMARK    2  A    between atoms: C_6  and  C_8
REMARK    3  A    between atoms: C_11  and  N_12
REMARK    4  A    between atoms: C_18  and  C_19
REMARK                            x       y       z     vdW  Elec       q    Type
REMARK                         _______ _______ _______ _____ _____    ______ ____
ROOT
ATOM      1  C   UNL     1       2.686   7.674  18.416  0.00  0.00    +0.000 A 
ATOM      2  C   UNL     1       2.168   8.789  17.765  0.00  0.00    +0.000 A 
ATOM      3  C   UNL     1       1.340   9.678  18.429  0.00  0.00    +0.000 A 
ATOM      4  C   UNL     1       0.882   9.420  19.724  0.00  0.00    +0.000 A 
ATOM      5  C   UNL     1       1.358   8.265  20.369  0.00  0.00    +0.000 A 
ATOM      6  C   UNL     1       2.250   7.396  19.719  0.00  0.00    +0.000 A 
ENDROOT
BRANCH   4   7
ATOM      7  N   UNL     1      -0.072  10.280  20.293  0.00  0.00    +0.000 N 
ATOM      8  C   UNL     1      -0.069  10.670  21.636  0.00  0.00    +0.000 C 
ATOM      9  O   UNL     1       0.780  10.506  22.497  0.00  0.00    +0.000 OA
ATOM     10  C   UNL     1      -1.367  11.360  21.865  0.00  0.00    +0.000 C 
ATOM     11  C   UNL     1      -1.491  12.341  23.016  0.00  0.00    +0.000 C 
ATOM     12  C   UNL     1      -2.860  13.031  22.902  0.00  0.00    +0.000 C 
ATOM     13  C   UNL     1      -3.061  13.708  21.528  0.00  0.00    +0.000 C 
ATOM     14  C   UNL     1      -2.080  14.883  21.358  0.00  0.00    +0.000 C 
ATOM     15  C   UNL     1      -2.905  12.663  20.397  0.00  0.00    +0.000 C 
ATOM     16  C   UNL     1      -1.536  12.032  20.515  0.00  0.00    +0.000 C 
ATOM     17  C   UNL     1      -1.086  10.938  19.593  0.00  0.00    +0.000 C 
ATOM     18  O   UNL     1      -1.499  10.767  18.461  0.00  0.00    +0.000 OA
ENDBRANCH   4   7
BRANCH   1  24
ATOM     19  C   UNL     1       3.206   1.323  18.835  0.00  0.00    +0.000 C 
ATOM     20  C   UNL     1       3.057   2.554  17.944  0.00  0.00    +0.000 C 
ATOM     21  C   UNL     1       4.420   3.222  17.690  0.00  0.00    +0.000 C 
ATOM     22  C   UNL     1       4.284   4.533  16.908  0.00  0.00    +0.000 C 
ATOM     23  N   UNL     1       3.300   5.414  17.529  0.00  0.00    +0.000 N 
ATOM     24  C   UNL     1       3.636   6.757  17.734  0.00  0.00    +0.000 C 
ATOM     25  O   UNL     1       4.716   7.235  17.385  0.00  0.00    +0.000 OA
ATOM     26  C   UNL     1       1.976   4.798  17.666  0.00  0.00    +0.000 C 
ATOM     27  C   UNL     1       2.076   3.562  18.559  0.00  0.00    +0.000 C 
ENDBRANCH   1  24
TORSDOF 2
ENDMDL
MODEL 3
REMARK VINA RESULT:      -7.9      1.835      2.742
REMARK  Name = 
REMARK  4 active torsions:
REMARK  status: ('A' for Active; 'I' for Inactive)
REMARK    1  A    between atoms: C_1  and  C_2
REMARK    2  A    between atoms: C_6  and  C_8
REMARK    3  A    between atoms: C_11  and  N_12
REMARK    4  A    between atoms: C_18  and  C_19
REMARK                            x       y       z     vdW  Elec       q    Type
REMARK                         _______ _______ _______ _____ _____    ______ ____
ROOT
ATOM      1  C   UNL     1       2.607   6.047  18.882  0.00  0.00    +0.000 A 
ATOM      2  C   UNL     1       2.492   7.141  18.031  0.00  0.00    +0.000 A 
ATOM      3  C   UNL     1       1.959   8.338  18.480  0.00  0.00    +0.000 A 
ATOM      4  C   UNL     1       1.393   8.452  19.752  0.00  0.00    +0.000 A 
ATOM      5  C   UNL     1       1.457   7.333  20.600  0.00  0.00    +0.000 A 
ATOM      6  C   UNL     1       2.056   6.137  20.167  0.00  0.00    +0.000 A 
ENDROOT
BRANCH   4   7
ATOM      7  N   UNL     1       0.736   9.643  20.102  0.00  0.00    +0.000 N 
ATOM      8  C   UNL     1      -0.110  10.350  19.242  0.00  0.00    +0.000 C 
ATOM      9  O   UNL     1      -0.564  10.032  18.154  0.00  0.00    +0.000 OA
ATOM     10  C   UNL     1      -0.382  11.651  19.911  0.00  0.00    +0.000 C 
ATOM     11  C   UNL     1      -1.628  12.430  19.536  0.00  0.00    +0.000 C 
ATOM     12  C   UNL     1      -1.748  13.621  20.501  0.00  0.00    +0.000 C 
ATOM     13  C   UNL     1      -1.755  13.176  21.981  0.00  0.00    +0.000 C 
ATOM     14  C   UNL     1      -3.025  12.365  22.294  0.00  0.00    +0.000 C 
ATOM     15  C   UNL     1      -0.469  12.372  22.297  0.00  0.00    +0.000 C 
ATOM     16  C   UNL     1      -0.403  11.190  21.357  0.00  0.00    +0.000 C 
ATOM     17  C   UNL     1       0.752  10.233  21.369  0.00  0.00    +0.000 C 
ATOM     18  O   UNL     1       1.459  10.006  22.333  0.00  0.00    +0.000 OA
ENDBRANCH   4   7
BRANCH   1  24
ATOM     19  C   UNL     1       7.027   5.130  14.366  0.00  0.00    +0.000 C 
ATOM     20  C   UNL     1       6.590   4.915  15.812  0.00  0.00    +0.000 C 
ATOM     21  C   UNL     1       5.638   3.711  15.931  0.00  0.00    +0.000 C 
ATOM     22  C   UNL     1       5.082   3.553  17.351  0.00  0.00    +0.000 C 
ATOM     23  N   UNL     1       4.513   4.807  17.834  0.00  0.00    +0.000 N 
ATOM     24  C   UNL     1       3.248   4.784  18.430  0.00  0.00    +0.000 C 
ATOM     25  O   UNL     1       2.605   3.746  18.593  0.00  0.00    +0.000 OA
ATOM     26  C   UNL     1       5.467   5.922  17.815  0.00  0.00    +0.000 C 
ATOM     27  C   UNL     1       5.927   6.178  16.380  0.00  0.00    +0.000 C 
ENDBRANCH   1  24
TORSDOF 2
ENDMDL
MODEL 4
REMARK VINA RESULT:      -7.9      0.827      1.250
REMARK  Name = 
REMARK  4 active torsions:
REMARK  status: ('A' for Active; 'I' for Inactive)
REMARK    1  A    between atoms: C_1  and  C_2
REMARK    2  A    between atoms: C_6  and  C_8
REMARK    3  A    between atoms: C_11  and  N_12
REMARK    4  A    between atoms: C_18  and  C_19
REMARK                            x       y       z     vdW  Elec       q    Type
REMARK                         _______ _______ _______ _____ _____    ______ ____
ROOT
ATOM      1  C   UNL     1       2.555   7.771  18.436  0.00  0.00    +0.000 A 
ATOM      2  C   UNL     1       2.074   7.765  19.742  0.00  0.00    +0.000 A 
ATOM      3  C   UNL     1       1.133   8.692  20.156  0.00  0.00    +0.000 A 
ATOM      4  C   UNL     1       0.736   9.747  19.330  0.00  0.00    +0.000 A 
ATOM      5  C   UNL     1       1.261   9.791  18.027  0.00  0.00    +0.000 A 
ATOM      6  C   UNL     1       2.167   8.813  17.584  0.00  0.00    +0.000 A 
ENDROOT
BRANCH   4   7
ATOM      7  N   UNL     1      -0.108  10.741  19.852  0.00  0.00    +0.000 N 
ATOM      8  C   UNL     1      -1.388  11.016  19.361  0.00  0.00    +0.000 C 
ATOM      9  O   UNL     1      -2.067  10.399  18.556  0.00  0.00    +0.000 OA
ATOM     10  C   UNL     1      -1.818  12.279  20.020  0.00  0.00    +0.000 C 
ATOM     11  C   UNL     1      -3.298  12.590  20.129  0.00  0.00    +0.000 C 
ATOM     12  C   UNL     1      -3.453  13.844  21.005  0.00  0.00    +0.000 C 
ATOM     13  C   UNL     1      -2.784  13.678  22.388  0.00  0.00    +0.000 C 
ATOM     14  C   UNL     1      -3.514  12.603  23.213  0.00  0.00    +0.000 C 
ATOM     15  C   UNL     1      -1.283  13.344  22.211  0.00  0.00    +0.000 C 
ATOM     16  C   UNL     1      -1.168  12.087  21.379  0.00  0.00    +0.000 C 
ATOM     17  C   UNL     1       0.163  11.519  20.981  0.00  0.00    +0.000 C 
ATOM     18  O   UNL     1       1.198  11.675  21.599  0.00  0.00    +0.000 OA
ENDBRANCH   4   7
BRANCH   1  24
ATOM     19  C   UNL     1       3.869   2.035  20.916  0.00  0.00    +0.000 C 
ATOM     20  C   UNL     1       3.460   2.855  19.696  0.00  0.00    +0.000 C 
ATOM     21  C   UNL     1       4.689   3.472  19.005  0.00  0.00    +0.000 C 
ATOM     22  C   UNL     1       4.296   4.406  17.855  0.00  0.00    +0.000 C 
ATOM     23  N   UNL     1       3.307   5.387  18.289  0.00  0.00    +0.000 N 
ATOM     24  C   UNL     1       3.508   6.733  17.963  0.00  0.00    +0.000 C 
ATOM     25  O   UNL     1       4.468   7.122  17.296  0.00  0.00    +0.000 OA
ATOM     26  C   UNL     1       2.094   4.779  18.848  0.00  0.00    +0.000 C 
ATOM     27  C   UNL     1       2.457   3.952  20.081  0.00  0.00    +0.000 C 
ENDBRANCH   1  24
TORSDOF 2
ENDMDL
MODEL 5
REMARK VINA RESULT:      -7.8      2.266      3.213
REMARK  Name = 
REMARK  4 active torsions:
REMARK  status: ('A' for Active; 'I' for Inactive)
REMARK    1  A    between atoms: C_1  and  C_2
REMARK    2  A    between atoms: C_6  and  C_8
REMARK    3  A    between atoms: C_11  and  N_12
REMARK    4  A    between atoms: C_18  and  C_19
REMARK                            x       y       z     vdW  Elec       q    Type
REMARK                         _______ _______ _______ _____ _____    ______ ____
ROOT
ATOM      1  C   UNL     1       2.232   7.271  18.897  0.00  0.00    +0.000 A 
ATOM      2  C   UNL     1       1.916   7.875  20.110  0.00  0.00    +0.000 A 
ATOM      3  C   UNL     1       1.404   9.161  20.152  0.00  0.00    +0.000 A 
ATOM      4  C   UNL     1       1.316   9.948  19.001  0.00  0.00    +0.000 A 
ATOM      5  C   UNL     1       1.686   9.364  17.777  0.00  0.00    +0.000 A 
ATOM      6  C   UNL     1       2.144   8.036  17.726  0.00  0.00    +0.000 A 
ENDROOT
BRANCH   4   7
ATOM      7  N   UNL     1       0.929  11.293  19.123  0.00  0.00    +0.000 N 
ATOM      8  C   UNL     1      -0.271  11.711  19.705  0.00  0.00    +0.000 C 
ATOM      9  O   UNL     1      -1.099  11.073  20.336  0.00  0.00    +0.000 OA
ATOM     10  C   UNL     1      -0.390  13.163  19.404  0.00  0.00    +0.000 C 
ATOM     11  C   UNL     1      -1.265  14.033  20.287  0.00  0.00    +0.000 C 
ATOM     12  C   UNL     1      -1.056  15.495  19.862  0.00  0.00    +0.000 C 
ATOM     13  C   UNL     1       0.431  15.913  19.913  0.00  0.00    +0.000 C 
ATOM     14  C   UNL     1       0.941  15.911  21.365  0.00  0.00    +0.000 C 
ATOM     15  C   UNL     1       1.272  14.979  19.009  0.00  0.00    +0.000 C 
ATOM     16  C   UNL     1       1.074  13.555  19.477  0.00  0.00    +0.000 C 
ATOM     17  C   UNL     1       1.716  12.395  18.776  0.00  0.00    +0.000 C 
ATOM     18  O   UNL     1       2.746  12.454  18.131  0.00  0.00    +0.000 OA
ENDBRANCH   4   7
BRANCH   1  24
ATOM     19  C   UNL     1       5.831   4.389  14.480  0.00  0.00    +0.000 C 
ATOM     20  C   UNL     1       5.610   4.723  15.953  0.00  0.00    +0.000 C 
ATOM     21  C   UNL     1       4.609   3.748  16.598  0.00  0.00    +0.000 C 
ATOM     22  C   UNL     1       4.269   4.140  18.040  0.00  0.00    +0.000 C 
ATOM     23  N   UNL     1       3.867   5.541  18.122  0.00  0.00    +0.000 N 
ATOM     24  C   UNL     1       2.709   5.865  18.838  0.00  0.00    +0.000 C 
ATOM     25  O   UNL     1       2.032   5.023  19.429  0.00  0.00    +0.000 OA
ATOM     26  C   UNL     1       4.878   6.466  17.600  0.00  0.00    +0.000 C 
ATOM     27  C   UNL     1       5.127   6.172  16.122  0.00  0.00    +0.000 C 
ENDBRANCH   1  24
TORSDOF 2
ENDMDL
MODEL 6
REMARK VINA RESULT:      -7.7      1.682      2.684
REMARK  Name = 
REMARK  4 active torsions:
REMARK  status: ('A' for Active; 'I' for Inactive)
REMARK    1  A    between atoms: C_1  and  C_2
REMARK    2  A    between atoms: C_6  and  C_8
REMARK    3  A    between atoms: C_11  and  N_12
REMARK    4  A    between atoms: C_18  and  C_19
REMARK                            x       y       z     vdW  Elec       q    Type
REMARK                         _______ _______ _______ _____ _____    ______ ____
ROOT
ATOM      1  C   UNL     1       2.633   6.365  19.280  0.00  0.00    +0.000 A 
ATOM      2  C   UNL     1       1.954   6.521  20.484  0.00  0.00    +0.000 A 
ATOM      3  C   UNL     1       1.162   7.633  20.716  0.00  0.00    +0.000 A 
ATOM      4  C   UNL     1       1.125   8.701  19.815  0.00  0.00    +0.000 A 
ATOM      5  C   UNL     1       1.853   8.575  18.619  0.00  0.00    +0.000 A 
ATOM      6  C   UNL     1       2.605   7.418  18.355  0.00  0.00    +0.000 A 
ENDROOT
BRANCH   4   7
ATOM      7  N   UNL     1       0.423   9.866  20.167  0.00  0.00    +0.000 N 
ATOM      8  C   UNL     1      -0.540  10.473  19.356  0.00  0.00    +0.000 C 
ATOM      9  O   UNL     1      -1.065  10.072  18.329  0.00  0.00    +0.000 OA
ATOM     10  C   UNL     1      -0.838  11.787  19.987  0.00  0.00    +0.000 C 
ATOM     11  C   UNL     1      -2.162  12.467  19.691  0.00  0.00    +0.000 C 
ATOM     12  C   UNL     1      -2.276  13.696  20.607  0.00  0.00    +0.000 C 
ATOM     13  C   UNL     1      -2.124  13.328  22.101  0.00  0.00    +0.000 C 
ATOM     14  C   UNL     1      -3.305  12.457  22.563  0.00  0.00    +0.000 C 
ATOM     15  C   UNL     1      -0.765  12.623  22.335  0.00  0.00    +0.000 C 
ATOM     16  C   UNL     1      -0.703  11.400  21.449  0.00  0.00    +0.000 C 
ATOM     17  C   UNL     1       0.511  10.519  21.399  0.00  0.00    +0.000 C 
ATOM     18  O   UNL     1       1.312  10.387  22.305  0.00  0.00    +0.000 OA
ENDBRANCH   4   7
BRANCH   1  24
ATOM     19  C   UNL     1       6.158   4.911  14.159  0.00  0.00    +0.000 C 
ATOM     20  C   UNL     1       6.073   5.043  15.677  0.00  0.00    +0.000 C 
ATOM     21  C   UNL     1       5.440   3.790  16.308  0.00  0.00    +0.000 C 
ATOM     22  C   UNL     1       5.224   3.949  17.816  0.00  0.00    +0.000 C 
ATOM     23  N   UNL     1       4.511   5.187  18.116  0.00  0.00    +0.000 N 
ATOM     24  C   UNL     1       3.423   5.139  18.994  0.00  0.00    +0.000 C 
ATOM     25  O   UNL     1       3.059   4.102  19.551  0.00  0.00    +0.000 OA
ATOM     26  C   UNL     1       5.184   6.384  17.599  0.00  0.00    +0.000 C 
ATOM     27  C   UNL     1       5.285   6.298  16.077  0.00  0.00    +0.000 C 
ENDBRANCH   1  24
TORSDOF 2
ENDMDL
MODEL 7
REMARK VINA RESULT:      -7.7      2.067      9.157
REMARK  Name = 
REMARK  4 active torsions:
REMARK  status: ('A' for Active; 'I' for Inactive)
REMARK    1  A    between atoms: C_1  and  C_2
REMARK    2  A    between atoms: C_6  and  C_8
REMARK    3  A    between atoms: C_11  and  N_12
REMARK    4  A    between atoms: C_18  and  C_19
REMARK                            x       y       z     vdW  Elec       q    Type
REMARK                         _______ _______ _______ _____ _____    ______ ____
ROOT
ATOM      1  C   UNL     1      -0.885  12.648  20.479  0.00  0.00    +0.000 A 
ATOM      2  C   UNL     1       0.398  12.418  20.965  0.00  0.00    +0.000 A 
ATOM      3  C   UNL     1       1.112  11.293  20.584  0.00  0.00    +0.000 A 
ATOM      4  C   UNL     1       0.524  10.284  19.817  0.00  0.00    +0.000 A 
ATOM      5  C   UNL     1      -0.793  10.484  19.368  0.00  0.00    +0.000 A 
ATOM      6  C   UNL     1      -1.494  11.655  19.700  0.00  0.00    +0.000 A 
ENDROOT
BRANCH   4   7
ATOM      7  N   UNL     1       1.243   9.099  19.584  0.00  0.00    +0.000 N 
ATOM      8  C   UNL     1       1.331   8.046  20.500  0.00  0.00    +0.000 C 
ATOM      9  O   UNL     1       0.719   7.859  21.539  0.00  0.00    +0.000 OA
ATOM     10  C   UNL     1       2.371   7.125  19.967  0.00  0.00    +0.000 C 
ATOM     11  C   UNL     1       2.365   5.672  20.401  0.00  0.00    +0.000 C 
ATOM     12  C   UNL     1       3.418   4.926  19.566  0.00  0.00    +0.000 C 
ATOM     13  C   UNL     1       3.182   5.088  18.047  0.00  0.00    +0.000 C 
ATOM     14  C   UNL     1       1.874   4.395  17.628  0.00  0.00    +0.000 C 
ATOM     15  C   UNL     1       3.182   6.590  17.670  0.00  0.00    +0.000 C 
ATOM     16  C   UNL     1       2.110   7.284  18.480  0.00  0.00    +0.000 C 
ATOM     17  C   UNL     1       1.882   8.764  18.388  0.00  0.00    +0.000 C 
ATOM     18  O   UNL     1       2.144   9.449  17.417  0.00  0.00    +0.000 OA
ENDBRANCH   4   7
BRANCH   1  24
ATOM     19  C   UNL     1      -6.213  13.375  23.923  0.00  0.00    +0.000 C 
ATOM     20  C   UNL     1      -4.758  13.774  23.689  0.00  0.00    +0.000 C 
ATOM     21  C   UNL     1      -4.647  14.836  22.580  0.00  0.00    +0.000 C 
ATOM     22  C   UNL     1      -3.189  15.158  22.234  0.00  0.00    +0.000 C 
ATOM     23  N   UNL     1      -2.431  13.940  21.965  0.00  0.00    +0.000 N 
ATOM     24  C   UNL     1      -1.626  13.890  20.822  0.00  0.00    +0.000 C 
ATOM     25  O   UNL     1      -1.503  14.841  20.049  0.00  0.00    +0.000 OA
ATOM     26  C   UNL     1      -2.460  12.983  23.076  0.00  0.00    +0.000 C 
ATOM     27  C   UNL     1      -3.900  12.548  23.342  0.00  0.00    +0.000 C 
ENDBRANCH   1  24
TORSDOF 2
ENDMDL
MODEL 8
REMARK VINA RESULT:      -7.6      2.232      9.150
REMARK  Name = 
REMARK  4 active torsions:
REMARK  status: ('A' for Active; 'I' for Inactive)
REMARK    1  A    between atoms: C_1  and  C_2
REMARK    2  A    between atoms: C_6  and  C_8
REMARK    3  A    between atoms: C_11  and  N_12
REMARK    4  A    between atoms: C_18  and  C_19
REMARK                            x       y       z     vdW  Elec       q    Type
REMARK                         _______ _______ _______ _____ _____    ______ ____
ROOT
ATOM      1  C   UNL     1      -1.158  12.796  20.193  0.00  0.00    +0.000 A 
ATOM      2  C   UNL     1      -0.042  12.483  20.962  0.00  0.00    +0.000 A 
ATOM      3  C   UNL     1       0.731  11.371  20.673  0.00  0.00    +0.000 A 
ATOM      4  C   UNL     1       0.346  10.450  19.696  0.00  0.00    +0.000 A 
ATOM      5  C   UNL     1      -0.812  10.731  18.951  0.00  0.00    +0.000 A 
ATOM      6  C   UNL     1      -1.561  11.893  19.199  0.00  0.00    +0.000 A 
ENDROOT
BRANCH   4   7
ATOM      7  N   UNL     1       1.087   9.266  19.546  0.00  0.00    +0.000 N 
ATOM      8  C   UNL     1       1.096   8.226  20.480  0.00  0.00    +0.000 C 
ATOM      9  O   UNL     1       0.394   8.051  21.463  0.00  0.00    +0.000 OA
ATOM     10  C   UNL     1       2.183   7.303  20.057  0.00  0.00    +0.000 C 
ATOM     11  C   UNL     1       2.143   5.855  20.509  0.00  0.00    +0.000 C 
ATOM     12  C   UNL     1       3.270   5.103  19.782  0.00  0.00    +0.000 C 
ATOM     13  C   UNL     1       3.171   5.243  18.247  0.00  0.00    +0.000 C 
ATOM     14  C   UNL     1       1.908   4.537  17.722  0.00  0.00    +0.000 C 
ATOM     15  C   UNL     1       3.199   6.739  17.850  0.00  0.00    +0.000 C 
ATOM     16  C   UNL     1       2.056   7.440  18.550  0.00  0.00    +0.000 C 
ATOM     17  C   UNL     1       1.832   8.917  18.416  0.00  0.00    +0.000 C 
ATOM     18  O   UNL     1       2.178   9.590  17.464  0.00  0.00    +0.000 OA
ENDBRANCH   4   7
BRANCH   1  24
ATOM     19  C   UNL     1      -7.472  13.513  20.818  0.00  0.00    +0.000 C 
ATOM     20  C   UNL     1      -6.079  13.749  21.395  0.00  0.00    +0.000 C 
ATOM     21  C   UNL     1      -5.423  14.993  20.771  0.00  0.00    +0.000 C 
ATOM     22  C   UNL     1      -3.975  15.177  21.236  0.00  0.00    +0.000 C 
ATOM     23  N   UNL     1      -3.205  13.950  21.056  0.00  0.00    +0.000 N 
ATOM     24  C   UNL     1      -1.948  14.029  20.448  0.00  0.00    +0.000 C 
ATOM     25  O   UNL     1      -1.447  15.094  20.086  0.00  0.00    +0.000 OA
ATOM     26  C   UNL     1      -3.788  12.794  21.748  0.00  0.00    +0.000 C 
ATOM     27  C   UNL     1      -5.185  12.517  21.194  0.00  0.00    +0.000 C 
ENDBRANCH   1  24
TORSDOF 2
ENDMDL
MODEL 9
REMARK VINA RESULT:      -7.6      1.339      1.973
REMARK  Name = 
REMARK  4 active torsions:
REMARK  status: ('A' for Active; 'I' for Inactive)
REMARK    1  A    between atoms: C_1  and  C_2
REMARK    2  A    between atoms: C_6  and  C_8
REMARK    3  A    between atoms: C_11  and  N_12
REMARK    4  A    between atoms: C_18  and  C_19
REMARK                            x       y       z     vdW  Elec       q    Type
REMARK                         _______ _______ _______ _____ _____    ______ ____
ROOT
ATOM      1  C   UNL     1       2.740   7.473  18.343  0.00  0.00    +0.000 A 
ATOM      2  C   UNL     1       2.558   7.276  19.708  0.00  0.00    +0.000 A 
ATOM      3  C   UNL     1       1.753   8.127  20.448  0.00  0.00    +0.000 A 
ATOM      4  C   UNL     1       1.209   9.286  19.887  0.00  0.00    +0.000 A 
ATOM      5  C   UNL     1       1.435   9.520  18.520  0.00  0.00    +0.000 A 
ATOM      6  C   UNL     1       2.198   8.623  17.754  0.00  0.00    +0.000 A 
ENDROOT
BRANCH   4   7
ATOM      7  N   UNL     1       0.524  10.188  20.719  0.00  0.00    +0.000 N 
ATOM      8  C   UNL     1       0.631  11.578  20.619  0.00  0.00    +0.000 C 
ATOM      9  O   UNL     1       1.160  12.263  19.757  0.00  0.00    +0.000 OA
ATOM     10  C   UNL     1      -0.045  12.129  21.824  0.00  0.00    +0.000 C 
ATOM     11  C   UNL     1      -0.567  13.554  21.793  0.00  0.00    +0.000 C 
ATOM     12  C   UNL     1      -1.369  13.789  23.083  0.00  0.00    +0.000 C 
ATOM     13  C   UNL     1      -2.500  12.753  23.266  0.00  0.00    +0.000 C 
ATOM     14  C   UNL     1      -3.570  12.924  22.172  0.00  0.00    +0.000 C 
ATOM     15  C   UNL     1      -1.909  11.322  23.270  0.00  0.00    +0.000 C 
ATOM     16  C   UNL     1      -1.160  11.110  21.974  0.00  0.00    +0.000 C 
ATOM     17  C   UNL     1      -0.423   9.836  21.684  0.00  0.00    +0.000 C 
ATOM     18  O   UNL     1      -0.697   8.750  22.158  0.00  0.00    +0.000 OA
ENDBRANCH   4   7
BRANCH   1  24
ATOM     19  C   UNL     1       3.279   1.133  18.877  0.00  0.00    +0.000 C 
ATOM     20  C   UNL     1       2.977   2.336  17.988  0.00  0.00    +0.000 C 
ATOM     21  C   UNL     1       4.274   2.976  17.462  0.00  0.00    +0.000 C 
ATOM     22  C   UNL     1       4.005   4.263  16.674  0.00  0.00    +0.000 C 
ATOM     23  N   UNL     1       3.160   5.178  17.436  0.00  0.00    +0.000 N 
ATOM     24  C   UNL     1       3.540   6.521  17.529  0.00  0.00    +0.000 C 
ATOM     25  O   UNL     1       4.540   6.973  16.969  0.00  0.00    +0.000 OA
ATOM     26  C   UNL     1       1.880   4.585  17.838  0.00  0.00    +0.000 C 
ATOM     27  C   UNL     1       2.134   3.377  18.739  0.00  0.00    +0.000 C 
ENDBRANCH   1  24
TORSDOF 2
ENDMDL
