MODEL 1
REMARK VINA RESULT:      -8.7      0.000      0.000
REMARK  Name = 
REMARK  2 active torsions:
REMARK  status: ('A' for Active; 'I' for Inactive)
REMARK    1  A    between atoms: C_2  and  C_14
REMARK    2  A    between atoms: N_3  and  C_4
REMARK                            x       y       z     vdW  Elec       q    Type
REMARK                         _______ _______ _______ _____ _____    ______ ____
ROOT
ATOM      1  O   UNL     1       8.140   6.792  18.849  0.00  0.00    +0.000 OA
ATOM      2  C   UNL     1       7.720   7.172  17.760  0.00  0.00    +0.000 C 
ATOM      3  N   UNL     1       7.695   8.492  17.345  0.00  0.00    +0.000 N 
ATOM      4  H   UNL     1       7.094   8.731  16.567  0.00  0.00    +0.000 HD
ENDROOT
BRANCH   2   5
ATOM      5  C   UNL     1       7.090   6.176  16.780  0.00  0.00    +0.000 C 
ATOM      6  C   UNL     1       5.642   6.597  16.474  0.00  0.00    +0.000 C 
ATOM      7  C   UNL     1       4.706   6.383  17.670  0.00  0.00    +0.000 C 
ATOM      8  N   UNL     1       4.826   5.004  18.124  0.00  0.00    +0.000 N 
ATOM      9  C   UNL     1       3.737   4.234  18.479  0.00  0.00    +0.000 A 
ATOM     10  C   UNL     1       2.455   4.753  18.705  0.00  0.00    +0.000 A 
ATOM     11  N   UNL     1       1.350   4.006  18.982  0.00  0.00    +0.000 NA
ATOM     12  C   UNL     1       1.563   2.680  19.027  0.00  0.00    +0.000 A 
ATOM     13  C   UNL     1       2.815   2.137  18.826  0.00  0.00    +0.000 A 
ATOM     14  N   UNL     1       3.908   2.892  18.563  0.00  0.00    +0.000 NA
ATOM     15  C   UNL     1       6.163   4.535  18.480  0.00  0.00    +0.000 C 
ATOM     16  C   UNL     1       7.099   4.727  17.287  0.00  0.00    +0.000 C 
ENDBRANCH   2   5
BRANCH   3  17
ATOM     17  C   UNL     1       8.305   9.567  18.039  0.00  0.00    +0.000 A 
ATOM     18  C   UNL     1       9.029   9.388  19.226  0.00  0.00    +0.000 A 
ATOM     19  C   UNL     1       9.625  10.470  19.873  0.00  0.00    +0.000 A 
ATOM     20  C   UNL     1       9.511  11.745  19.338  0.00  0.00    +0.000 A 
ATOM     21  C   UNL     1       8.809  11.935  18.145  0.00  0.00    +0.000 A 
ATOM     22  C   UNL     1       8.204  10.853  17.499  0.00  0.00    +0.000 A 
ATOM     23  O   UNL     1       8.671  13.166  17.555  0.00  0.00    +0.000 OA
ATOM     24  C   UNL     1       9.664  14.079  18.040  0.00  0.00    +0.000 C 
ATOM     25  C   UNL     1       9.745  14.043  19.558  0.00  0.00    +0.000 C 
ATOM     26  O   UNL     1      10.136  12.750  20.025  0.00  0.00    +0.000 OA
ENDBRANCH   3  17
TORSDOF 2
ENDMDL
MODEL 2
REMARK VINA RESULT:      -8.3      5.348      7.272
REMARK  Name = 
REMARK  2 active torsions:
REMARK  status: ('A' for Active; 'I' for Inactive)
REMARK    1  A    between atoms: C_2  and  C_14
REMARK    2  A    between atoms: N_3  and  C_4
REMARK                            x       y       z     vdW  Elec       q    Type
REMARK                         _______ _______ _______ _____ _____    ______ ____
ROOT
ATOM      1  O   UNL     1       0.894   5.090  20.437  0.00  0.00    +0.000 OA
ATOM      2  C   UNL     1       2.059   5.339  20.142  0.00  0.00    +0.000 C 
ATOM      3  N   UNL     1       2.556   6.609  19.908  0.00  0.00    +0.000 N 
ATOM      4  H   UNL     1       3.436   6.688  19.415  0.00  0.00    +0.000 HD
ENDROOT
BRANCH   2   5
ATOM      5  C   UNL     1       3.064   4.202  19.921  0.00  0.00    +0.000 C 
ATOM      6  C   UNL     1       4.497   4.762  19.977  0.00  0.00    +0.000 C 
ATOM      7  C   UNL     1       4.836   5.624  18.755  0.00  0.00    +0.000 C 
ATOM      8  N   UNL     1       4.556   4.862  17.545  0.00  0.00    +0.000 N 
ATOM      9  C   UNL     1       5.402   4.850  16.455  0.00  0.00    +0.000 A 
ATOM     10  C   UNL     1       6.456   5.757  16.274  0.00  0.00    +0.000 A 
ATOM     11  N   UNL     1       7.349   5.719  15.247  0.00  0.00    +0.000 NA
ATOM     12  C   UNL     1       7.160   4.715  14.373  0.00  0.00    +0.000 A 
ATOM     13  C   UNL     1       6.123   3.815  14.511  0.00  0.00    +0.000 A 
ATOM     14  N   UNL     1       5.236   3.872  15.532  0.00  0.00    +0.000 NA
ATOM     15  C   UNL     1       3.204   4.333  17.390  0.00  0.00    +0.000 C 
ATOM     16  C   UNL     1       2.864   3.456  18.595  0.00  0.00    +0.000 C 
ENDBRANCH   2   5
BRANCH   3  17
ATOM     17  C   UNL     1       1.841   7.810  20.143  0.00  0.00    +0.000 A 
ATOM     18  C   UNL     1       1.554   8.731  19.126  0.00  0.00    +0.000 A 
ATOM     19  C   UNL     1       0.837   9.897  19.395  0.00  0.00    +0.000 A 
ATOM     20  C   UNL     1       0.391  10.153  20.684  0.00  0.00    +0.000 A 
ATOM     21  C   UNL     1       0.652   9.233  21.703  0.00  0.00    +0.000 A 
ATOM     22  C   UNL     1       1.377   8.068  21.436  0.00  0.00    +0.000 A 
ATOM     23  O   UNL     1       0.226   9.417  22.994  0.00  0.00    +0.000 OA
ATOM     24  C   UNL     1      -0.841  10.374  23.048  0.00  0.00    +0.000 C 
ATOM     25  C   UNL     1      -0.501  11.619  22.246  0.00  0.00    +0.000 C 
ATOM     26  O   UNL     1      -0.318  11.310  20.862  0.00  0.00    +0.000 OA
ENDBRANCH   3  17
TORSDOF 2
ENDMDL
MODEL 3
REMARK VINA RESULT:      -8.2      1.186      1.871
REMARK  Name = 
REMARK  2 active torsions:
REMARK  status: ('A' for Active; 'I' for Inactive)
REMARK    1  A    between atoms: C_2  and  C_14
REMARK    2  A    between atoms: N_3  and  C_4
REMARK                            x       y       z     vdW  Elec       q    Type
REMARK                         _______ _______ _______ _____ _____    ______ ____
ROOT
ATOM      1  O   UNL     1       7.126   7.819  16.969  0.00  0.00    +0.000 OA
ATOM      2  C   UNL     1       7.772   7.328  17.889  0.00  0.00    +0.000 C 
ATOM      3  N   UNL     1       8.640   8.033  18.704  0.00  0.00    +0.000 N 
ATOM      4  H   UNL     1       9.317   7.507  19.241  0.00  0.00    +0.000 HD
ENDROOT
BRANCH   2   5
ATOM      5  C   UNL     1       7.722   5.819  18.155  0.00  0.00    +0.000 C 
ATOM      6  C   UNL     1       7.038   5.109  16.973  0.00  0.00    +0.000 C 
ATOM      7  C   UNL     1       5.532   5.393  16.912  0.00  0.00    +0.000 C 
ATOM      8  N   UNL     1       4.938   5.075  18.204  0.00  0.00    +0.000 N 
ATOM      9  C   UNL     1       3.738   4.406  18.332  0.00  0.00    +0.000 A 
ATOM     10  C   UNL     1       2.839   4.204  17.275  0.00  0.00    +0.000 A 
ATOM     11  N   UNL     1       1.687   3.483  17.359  0.00  0.00    +0.000 NA
ATOM     12  C   UNL     1       1.445   2.946  18.567  0.00  0.00    +0.000 A 
ATOM     13  C   UNL     1       2.299   3.139  19.634  0.00  0.00    +0.000 A 
ATOM     14  N   UNL     1       3.436   3.867  19.539  0.00  0.00    +0.000 NA
ATOM     15  C   UNL     1       5.498   5.742  19.376  0.00  0.00    +0.000 C 
ATOM     16  C   UNL     1       6.996   5.449  19.456  0.00  0.00    +0.000 C 
ENDBRANCH   2   5
BRANCH   3  17
ATOM     17  C   UNL     1       8.776   9.445  18.706  0.00  0.00    +0.000 A 
ATOM     18  C   UNL     1       8.267  10.255  17.682  0.00  0.00    +0.000 A 
ATOM     19  C   UNL     1       8.410  11.642  17.726  0.00  0.00    +0.000 A 
ATOM     20  C   UNL     1       9.059  12.237  18.799  0.00  0.00    +0.000 A 
ATOM     21  C   UNL     1       9.554  11.442  19.837  0.00  0.00    +0.000 A 
ATOM     22  C   UNL     1       9.417  10.051  19.790  0.00  0.00    +0.000 A 
ATOM     23  O   UNL     1      10.191  11.967  20.932  0.00  0.00    +0.000 OA
ATOM     24  C   UNL     1       9.886  13.360  21.082  0.00  0.00    +0.000 C 
ATOM     25  C   UNL     1      10.050  14.100  19.764  0.00  0.00    +0.000 C 
ATOM     26  O   UNL     1       9.146  13.602  18.775  0.00  0.00    +0.000 OA
ENDBRANCH   3  17
TORSDOF 2
ENDMDL
MODEL 4
REMARK VINA RESULT:      -8.0      5.243      6.993
REMARK  Name = 
REMARK  2 active torsions:
REMARK  status: ('A' for Active; 'I' for Inactive)
REMARK    1  A    between atoms: C_2  and  C_14
REMARK    2  A    between atoms: N_3  and  C_4
REMARK                            x       y       z     vdW  Elec       q    Type
REMARK                         _______ _______ _______ _____ _____    ______ ____
ROOT
ATOM      1  O   UNL     1       1.042   4.740  19.899  0.00  0.00    +0.000 OA
ATOM      2  C   UNL     1       2.221   5.079  19.881  0.00  0.00    +0.000 C 
ATOM      3  N   UNL     1       2.663   6.389  19.935  0.00  0.00    +0.000 N 
ATOM      4  H   UNL     1       3.613   6.579  19.644  0.00  0.00    +0.000 HD
ENDROOT
BRANCH   2   5
ATOM      5  C   UNL     1       3.327   4.032  19.704  0.00  0.00    +0.000 C 
ATOM      6  C   UNL     1       4.700   4.727  19.702  0.00  0.00    +0.000 C 
ATOM      7  C   UNL     1       4.938   5.547  18.427  0.00  0.00    +0.000 C 
ATOM      8  N   UNL     1       4.716   4.694  17.267  0.00  0.00    +0.000 N 
ATOM      9  C   UNL     1       5.544   4.701  16.163  0.00  0.00    +0.000 A 
ATOM     10  C   UNL     1       6.504   5.692  15.912  0.00  0.00    +0.000 A 
ATOM     11  N   UNL     1       7.382   5.680  14.872  0.00  0.00    +0.000 NA
ATOM     12  C   UNL     1       7.278   4.615  14.059  0.00  0.00    +0.000 A 
ATOM     13  C   UNL     1       6.334   3.630  14.266  0.00  0.00    +0.000 A 
ATOM     14  N   UNL     1       5.459   3.661  15.299  0.00  0.00    +0.000 NA
ATOM     15  C   UNL     1       3.419   4.031  17.167  0.00  0.00    +0.000 C 
ATOM     16  C   UNL     1       3.181   3.196  18.425  0.00  0.00    +0.000 C 
ENDBRANCH   2   5
BRANCH   3  17
ATOM     17  C   UNL     1       1.833   7.510  20.193  0.00  0.00    +0.000 A 
ATOM     18  C   UNL     1       1.131   7.670  21.396  0.00  0.00    +0.000 A 
ATOM     19  C   UNL     1       0.334   8.793  21.617  0.00  0.00    +0.000 A 
ATOM     20  C   UNL     1       0.234   9.774  20.640  0.00  0.00    +0.000 A 
ATOM     21  C   UNL     1       0.945   9.637  19.445  0.00  0.00    +0.000 A 
ATOM     22  C   UNL     1       1.738   8.507  19.219  0.00  0.00    +0.000 A 
ATOM     23  O   UNL     1       0.903  10.576  18.446  0.00  0.00    +0.000 OA
ATOM     24  C   UNL     1       0.443  11.836  18.949  0.00  0.00    +0.000 C 
ATOM     25  C   UNL     1      -0.810  11.664  19.793  0.00  0.00    +0.000 C 
ATOM     26  O   UNL     1      -0.556  10.851  20.940  0.00  0.00    +0.000 OA
ENDBRANCH   3  17
TORSDOF 2
ENDMDL
MODEL 5
REMARK VINA RESULT:      -8.0      5.093      7.008
REMARK  Name = 
REMARK  2 active torsions:
REMARK  status: ('A' for Active; 'I' for Inactive)
REMARK    1  A    between atoms: C_2  and  C_14
REMARK    2  A    between atoms: N_3  and  C_4
REMARK                            x       y       z     vdW  Elec       q    Type
REMARK                         _______ _______ _______ _____ _____    ______ ____
ROOT
ATOM      1  O   UNL     1       5.271   6.088  19.729  0.00  0.00    +0.000 OA
ATOM      2  C   UNL     1       4.625   5.405  18.942  0.00  0.00    +0.000 C 
ATOM      3  N   UNL     1       3.331   5.685  18.536  0.00  0.00    +0.000 N 
ATOM      4  H   UNL     1       2.797   4.937  18.112  0.00  0.00    +0.000 HD
ENDROOT
BRANCH   2   5
ATOM      5  C   UNL     1       5.201   4.093  18.397  0.00  0.00    +0.000 C 
ATOM      6  C   UNL     1       6.657   4.315  17.948  0.00  0.00    +0.000 C 
ATOM      7  C   UNL     1       6.752   5.167  16.676  0.00  0.00    +0.000 C 
ATOM      8  N   UNL     1       5.910   4.575  15.645  0.00  0.00    +0.000 N 
ATOM      9  C   UNL     1       6.309   4.455  14.329  0.00  0.00    +0.000 A 
ATOM     10  C   UNL     1       7.420   5.116  13.786  0.00  0.00    +0.000 A 
ATOM     11  N   UNL     1       7.877   4.955  12.514  0.00  0.00    +0.000 NA
ATOM     12  C   UNL     1       7.174   4.084  11.769  0.00  0.00    +0.000 A 
ATOM     13  C   UNL     1       6.066   3.429  12.266  0.00  0.00    +0.000 A 
ATOM     14  N   UNL     1       5.616   3.608  13.530  0.00  0.00    +0.000 NA
ATOM     15  C   UNL     1       4.501   4.372  15.973  0.00  0.00    +0.000 C 
ATOM     16  C   UNL     1       4.396   3.507  17.229  0.00  0.00    +0.000 C 
ENDBRANCH   2   5
BRANCH   3  17
ATOM     17  C   UNL     1       2.635   6.884  18.833  0.00  0.00    +0.000 A 
ATOM     18  C   UNL     1       2.407   7.882  17.876  0.00  0.00    +0.000 A 
ATOM     19  C   UNL     1       1.707   9.044  18.204  0.00  0.00    +0.000 A 
ATOM     20  C   UNL     1       1.220   9.218  19.492  0.00  0.00    +0.000 A 
ATOM     21  C   UNL     1       1.423   8.220  20.450  0.00  0.00    +0.000 A 
ATOM     22  C   UNL     1       2.131   7.060  20.125  0.00  0.00    +0.000 A 
ATOM     23  O   UNL     1       0.954   8.322  21.736  0.00  0.00    +0.000 OA
ATOM     24  C   UNL     1      -0.092   9.298  21.822  0.00  0.00    +0.000 C 
ATOM     25  C   UNL     1       0.305  10.589  21.125  0.00  0.00    +0.000 C 
ATOM     26  O   UNL     1       0.532  10.376  19.730  0.00  0.00    +0.000 OA
ENDBRANCH   3  17
TORSDOF 2
ENDMDL
MODEL 6
REMARK VINA RESULT:      -7.9      4.946      6.722
REMARK  Name = 
REMARK  2 active torsions:
REMARK  status: ('A' for Active; 'I' for Inactive)
REMARK    1  A    between atoms: C_2  and  C_14
REMARK    2  A    between atoms: N_3  and  C_4
REMARK                            x       y       z     vdW  Elec       q    Type
REMARK                         _______ _______ _______ _____ _____    ______ ____
ROOT
ATOM      1  O   UNL     1       5.362   6.058  19.664  0.00  0.00    +0.000 OA
ATOM      2  C   UNL     1       4.624   5.277  19.071  0.00  0.00    +0.000 C 
ATOM      3  N   UNL     1       3.254   5.429  18.950  0.00  0.00    +0.000 N 
ATOM      4  H   UNL     1       2.710   4.617  18.689  0.00  0.00    +0.000 HD
ENDROOT
BRANCH   2   5
ATOM      5  C   UNL     1       5.184   3.981  18.473  0.00  0.00    +0.000 C 
ATOM      6  C   UNL     1       6.644   4.202  18.036  0.00  0.00    +0.000 C 
ATOM      7  C   UNL     1       6.754   5.106  16.802  0.00  0.00    +0.000 C 
ATOM      8  N   UNL     1       5.907   4.570  15.745  0.00  0.00    +0.000 N 
ATOM      9  C   UNL     1       6.307   4.500  14.426  0.00  0.00    +0.000 A 
ATOM     10  C   UNL     1       7.428   5.168  13.914  0.00  0.00    +0.000 A 
ATOM     11  N   UNL     1       7.886   5.054  12.637  0.00  0.00    +0.000 NA
ATOM     12  C   UNL     1       7.174   4.226  11.854  0.00  0.00    +0.000 A 
ATOM     13  C   UNL     1       6.056   3.566  12.321  0.00  0.00    +0.000 A 
ATOM     14  N   UNL     1       5.605   3.696  13.590  0.00  0.00    +0.000 NA
ATOM     15  C   UNL     1       4.494   4.372  16.061  0.00  0.00    +0.000 C 
ATOM     16  C   UNL     1       4.374   3.457  17.279  0.00  0.00    +0.000 C 
ENDBRANCH   2   5
BRANCH   3  17
ATOM     17  C   UNL     1       2.534   6.588  19.339  0.00  0.00    +0.000 A 
ATOM     18  C   UNL     1       1.896   6.700  20.581  0.00  0.00    +0.000 A 
ATOM     19  C   UNL     1       1.208   7.861  20.932  0.00  0.00    +0.000 A 
ATOM     20  C   UNL     1       1.154   8.929  20.047  0.00  0.00    +0.000 A 
ATOM     21  C   UNL     1       1.804   8.838  18.812  0.00  0.00    +0.000 A 
ATOM     22  C   UNL     1       2.488   7.671  18.457  0.00  0.00    +0.000 A 
ATOM     23  O   UNL     1       1.804   9.860  17.898  0.00  0.00    +0.000 OA
ATOM     24  C   UNL     1       1.473  11.106  18.526  0.00  0.00    +0.000 C 
ATOM     25  C   UNL     1       0.244  10.965  19.409  0.00  0.00    +0.000 C 
ATOM     26  O   UNL     1       0.472  10.036  20.471  0.00  0.00    +0.000 OA
ENDBRANCH   3  17
TORSDOF 2
ENDMDL
MODEL 7
REMARK VINA RESULT:      -7.8      1.122      1.154
REMARK  Name = 
REMARK  2 active torsions:
REMARK  status: ('A' for Active; 'I' for Inactive)
REMARK    1  A    between atoms: C_2  and  C_14
REMARK    2  A    between atoms: N_3  and  C_4
REMARK                            x       y       z     vdW  Elec       q    Type
REMARK                         _______ _______ _______ _____ _____    ______ ____
ROOT
ATOM      1  O   UNL     1       6.476   8.784  17.560  0.00  0.00    +0.000 OA
ATOM      2  C   UNL     1       7.491   8.102  17.663  0.00  0.00    +0.000 C 
ATOM      3  N   UNL     1       8.707   8.569  18.130  0.00  0.00    +0.000 N 
ATOM      4  H   UNL     1       9.533   8.022  17.924  0.00  0.00    +0.000 HD
ENDROOT
BRANCH   2   5
ATOM      5  C   UNL     1       7.501   6.647  17.181  0.00  0.00    +0.000 C 
ATOM      6  C   UNL     1       6.178   6.332  16.460  0.00  0.00    +0.000 C 
ATOM      7  C   UNL     1       4.990   6.258  17.428  0.00  0.00    +0.000 C 
ATOM      8  N   UNL     1       5.307   5.320  18.496  0.00  0.00    +0.000 N 
ATOM      9  C   UNL     1       4.401   4.395  18.976  0.00  0.00    +0.000 A 
ATOM     10  C   UNL     1       3.028   4.431  18.697  0.00  0.00    +0.000 A 
ATOM     11  N   UNL     1       2.128   3.490  19.095  0.00  0.00    +0.000 NA
ATOM     12  C   UNL     1       2.651   2.473  19.803  0.00  0.00    +0.000 A 
ATOM     13  C   UNL     1       3.995   2.416  20.109  0.00  0.00    +0.000 A 
ATOM     14  N   UNL     1       4.877   3.364  19.716  0.00  0.00    +0.000 NA
ATOM     15  C   UNL     1       6.525   5.572  19.263  0.00  0.00    +0.000 C 
ATOM     16  C   UNL     1       7.718   5.629  18.309  0.00  0.00    +0.000 C 
ENDBRANCH   2   5
BRANCH   3  17
ATOM     17  C   UNL     1       8.911   9.845  18.715  0.00  0.00    +0.000 A 
ATOM     18  C   UNL     1       9.128  10.020  20.088  0.00  0.00    +0.000 A 
ATOM     19  C   UNL     1       9.337  11.291  20.625  0.00  0.00    +0.000 A 
ATOM     20  C   UNL     1       9.336  12.402  19.794  0.00  0.00    +0.000 A 
ATOM     21  C   UNL     1       9.141  12.239  18.420  0.00  0.00    +0.000 A 
ATOM     22  C   UNL     1       8.925  10.966  17.882  0.00  0.00    +0.000 A 
ATOM     23  O   UNL     1       9.145  13.292  17.541  0.00  0.00    +0.000 OA
ATOM     24  C   UNL     1       9.793  14.434  18.115  0.00  0.00    +0.000 C 
ATOM     25  C   UNL     1       9.281  14.705  19.520  0.00  0.00    +0.000 C 
ATOM     26  O   UNL     1       9.562  13.610  20.395  0.00  0.00    +0.000 OA
ENDBRANCH   3  17
TORSDOF 2
ENDMDL
MODEL 8
REMARK VINA RESULT:      -7.6      0.986      1.671
REMARK  Name = 
REMARK  2 active torsions:
REMARK  status: ('A' for Active; 'I' for Inactive)
REMARK    1  A    between atoms: C_2  and  C_14
REMARK    2  A    between atoms: N_3  and  C_4
REMARK                            x       y       z     vdW  Elec       q    Type
REMARK                         _______ _______ _______ _____ _____    ______ ____
ROOT
ATOM      1  O   UNL     1       8.497   7.344  18.943  0.00  0.00    +0.000 OA
ATOM      2  C   UNL     1       7.879   7.526  17.898  0.00  0.00    +0.000 C 
ATOM      3  N   UNL     1       7.612   8.768  17.350  0.00  0.00    +0.000 N 
ATOM      4  H   UNL     1       6.880   8.830  16.654  0.00  0.00    +0.000 HD
ENDROOT
BRANCH   2   5
ATOM      5  C   UNL     1       7.262   6.342  17.144  0.00  0.00    +0.000 C 
ATOM      6  C   UNL     1       5.806   6.670  16.770  0.00  0.00    +0.000 C 
ATOM      7  C   UNL     1       4.879   6.687  17.992  0.00  0.00    +0.000 C 
ATOM      8  N   UNL     1       5.024   5.430  18.714  0.00  0.00    +0.000 N 
ATOM      9  C   UNL     1       3.950   4.731  19.225  0.00  0.00    +0.000 A 
ATOM     10  C   UNL     1       2.660   5.264  19.352  0.00  0.00    +0.000 A 
ATOM     11  N   UNL     1       1.569   4.571  19.782  0.00  0.00    +0.000 NA
ATOM     12  C   UNL     1       1.805   3.285  20.092  0.00  0.00    +0.000 A 
ATOM     13  C   UNL     1       3.066   2.732  19.995  0.00  0.00    +0.000 A 
ATOM     14  N   UNL     1       4.144   3.436  19.577  0.00  0.00    +0.000 NA
ATOM     15  C   UNL     1       6.370   5.064  19.147  0.00  0.00    +0.000 C 
ATOM     16  C   UNL     1       7.298   5.026  17.933  0.00  0.00    +0.000 C 
ENDBRANCH   2   5
BRANCH   3  17
ATOM     17  C   UNL     1       8.158   9.990  17.818  0.00  0.00    +0.000 A 
ATOM     18  C   UNL     1       7.923  11.217  17.181  0.00  0.00    +0.000 A 
ATOM     19  C   UNL     1       8.468  12.400  17.680  0.00  0.00    +0.000 A 
ATOM     20  C   UNL     1       9.251  12.372  18.826  0.00  0.00    +0.000 A 
ATOM     21  C   UNL     1       9.476  11.159  19.482  0.00  0.00    +0.000 A 
ATOM     22  C   UNL     1       8.936   9.972  18.979  0.00  0.00    +0.000 A 
ATOM     23  O   UNL     1      10.226  11.064  20.626  0.00  0.00    +0.000 OA
ATOM     24  C   UNL     1      10.344  12.341  21.267  0.00  0.00    +0.000 C 
ATOM     25  C   UNL     1      10.734  13.420  20.270  0.00  0.00    +0.000 C 
ATOM     26  O   UNL     1       9.737  13.577  19.258  0.00  0.00    +0.000 OA
ENDBRANCH   3  17
TORSDOF 2
ENDMDL
MODEL 9
REMARK VINA RESULT:      -7.5      7.156     10.093
REMARK  Name = 
REMARK  2 active torsions:
REMARK  status: ('A' for Active; 'I' for Inactive)
REMARK    1  A    between atoms: C_2  and  C_14
REMARK    2  A    between atoms: N_3  and  C_4
REMARK                            x       y       z     vdW  Elec       q    Type
REMARK                         _______ _______ _______ _____ _____    ______ ____
ROOT
ATOM      1  O   UNL     1       0.220   9.519  17.881  0.00  0.00    +0.000 OA
ATOM      2  C   UNL     1       0.939   9.969  18.768  0.00  0.00    +0.000 C 
ATOM      3  N   UNL     1       1.794   9.210  19.548  0.00  0.00    +0.000 N 
ATOM      4  H   UNL     1       2.129   9.615  20.413  0.00  0.00    +0.000 HD
ENDROOT
BRANCH   2   5
ATOM      5  C   UNL     1       0.871  11.454  19.145  0.00  0.00    +0.000 C 
ATOM      6  C   UNL     1       1.042  11.610  20.666  0.00  0.00    +0.000 C 
ATOM      7  C   UNL     1      -0.179  11.107  21.446  0.00  0.00    +0.000 C 
ATOM      8  N   UNL     1      -1.374  11.759  20.926  0.00  0.00    +0.000 N 
ATOM      9  C   UNL     1      -2.374  12.251  21.741  0.00  0.00    +0.000 A 
ATOM     10  C   UNL     1      -2.492  11.946  23.104  0.00  0.00    +0.000 A 
ATOM     11  N   UNL     1      -3.422  12.478  23.943  0.00  0.00    +0.000 NA
ATOM     12  C   UNL     1      -4.264  13.355  23.369  0.00  0.00    +0.000 A 
ATOM     13  C   UNL     1      -4.188  13.664  22.027  0.00  0.00    +0.000 A 
ATOM     14  N   UNL     1      -3.263  13.120  21.201  0.00  0.00    +0.000 NA
ATOM     15  C   UNL     1      -1.638  11.621  19.496  0.00  0.00    +0.000 C 
ATOM     16  C   UNL     1      -0.433  12.138  18.710  0.00  0.00    +0.000 C 
ENDBRANCH   2   5
BRANCH   3  17
ATOM     17  C   UNL     1       2.091   7.843  19.321  0.00  0.00    +0.000 A 
ATOM     18  C   UNL     1       2.722   7.389  18.155  0.00  0.00    +0.000 A 
ATOM     19  C   UNL     1       3.009   6.036  17.974  0.00  0.00    +0.000 A 
ATOM     20  C   UNL     1       2.674   5.120  18.961  0.00  0.00    +0.000 A 
ATOM     21  C   UNL     1       2.063   5.561  20.138  0.00  0.00    +0.000 A 
ATOM     22  C   UNL     1       1.769   6.916  20.317  0.00  0.00    +0.000 A 
ATOM     23  O   UNL     1       1.721   4.711  21.159  0.00  0.00    +0.000 OA
ATOM     24  C   UNL     1       2.445   3.478  21.060  0.00  0.00    +0.000 C 
ATOM     25  C   UNL     1       2.389   2.922  19.647  0.00  0.00    +0.000 C 
ATOM     26  O   UNL     1       3.002   3.814  18.713  0.00  0.00    +0.000 OA
ENDBRANCH   3  17
TORSDOF 2
ENDMDL
