MODEL 1
REMARK VINA RESULT:      -8.0      0.000      0.000
REMARK  Name = 
REMARK  4 active torsions:
REMARK  status: ('A' for Active; 'I' for Inactive)
REMARK    1  A    between atoms: O_1  and  C_2
REMARK    2  A    between atoms: C_4  and  C_5
REMARK    3  A    between atoms: C_7  and  C_8
REMARK    4  A    between atoms: C_15  and  C_16
REMARK                            x       y       z     vdW  Elec       q    Type
REMARK                         _______ _______ _______ _____ _____    ______ ____
ROOT
ATOM      1  C   UNL     1       2.648   6.790  19.699  0.00  0.00    +0.000 A 
ATOM      2  N   UNL     1       2.366   8.077  19.995  0.00  0.00    +0.000 NA
ATOM      3  C   UNL     1       1.266   8.029  20.782  0.00  0.00    +0.000 A 
ATOM      4  N   UNL     1       0.859   6.758  21.005  0.00  0.00    +0.000 N 
ATOM      5  C   UNL     1       1.727   5.969  20.352  0.00  0.00    +0.000 A 
ATOM      6  H   UNL     1       0.049   6.435  21.576  0.00  0.00    +0.000 HD
ENDROOT
BRANCH   1   9
ATOM      7  C   UNL     1       5.640   5.065  18.080  0.00  0.00    +0.000 A 
ATOM      8  C   UNL     1       4.648   5.409  19.022  0.00  0.00    +0.000 A 
ATOM      9  C   UNL     1       3.694   6.396  18.715  0.00  0.00    +0.000 A 
ATOM     10  C   UNL     1       3.779   7.053  17.475  0.00  0.00    +0.000 A 
ATOM     11  C   UNL     1       4.754   6.715  16.547  0.00  0.00    +0.000 A 
ATOM     12  C   UNL     1       5.684   5.725  16.841  0.00  0.00    +0.000 A 
ATOM     13 CL   UNL     1       6.912   5.352  15.644  0.00  0.00    +0.000 Cl
BRANCH   7  14
ATOM     14  O   UNL     1       6.551   4.109  18.359  0.00  0.00    +0.000 OA
ATOM     15  H   UNL     1       7.466   4.165  18.051  0.00  0.00    +0.000 HD
ENDBRANCH   7  14
ENDBRANCH   1   9
BRANCH   3  16
ATOM     16  C   UNL     1       0.571   9.232  21.304  0.00  0.00    +0.000 A 
ATOM     17  C   UNL     1      -0.116   9.175  22.532  0.00  0.00    +0.000 A 
ATOM     18  C   UNL     1      -0.758  10.309  23.042  0.00  0.00    +0.000 A 
ATOM     19  C   UNL     1      -0.724  11.512  22.334  0.00  0.00    +0.000 A 
ATOM     20  C   UNL     1      -0.049  11.584  21.115  0.00  0.00    +0.000 A 
ATOM     21  C   UNL     1       0.596  10.456  20.602  0.00  0.00    +0.000 A 
ENDBRANCH   3  16
BRANCH   5  22
ATOM     22  C   UNL     1       1.658   4.484  20.376  0.00  0.00    +0.000 A 
ATOM     23  C   UNL     1       1.210   3.779  19.249  0.00  0.00    +0.000 A 
ATOM     24  C   UNL     1       1.204   2.382  19.266  0.00  0.00    +0.000 A 
ATOM     25  N   UNL     1       1.607   1.707  20.375  0.00  0.00    +0.000 NA
ATOM     26  C   UNL     1       2.015   2.360  21.493  0.00  0.00    +0.000 A 
ATOM     27  C   UNL     1       2.043   3.753  21.517  0.00  0.00    +0.000 A 
ENDBRANCH   5  22
TORSDOF 4
ENDMDL
MODEL 2
REMARK VINA RESULT:      -7.9      0.091      1.364
REMARK  Name = 
REMARK  4 active torsions:
REMARK  status: ('A' for Active; 'I' for Inactive)
REMARK    1  A    between atoms: O_1  and  C_2
REMARK    2  A    between atoms: C_4  and  C_5
REMARK    3  A    between atoms: C_7  and  C_8
REMARK    4  A    between atoms: C_15  and  C_16
REMARK                            x       y       z     vdW  Elec       q    Type
REMARK                         _______ _______ _______ _____ _____    ______ ____
ROOT
ATOM      1  C   UNL     1       2.705   6.793  19.643  0.00  0.00    +0.000 A 
ATOM      2  N   UNL     1       2.431   8.081  19.944  0.00  0.00    +0.000 NA
ATOM      3  C   UNL     1       1.334   8.036  20.736  0.00  0.00    +0.000 A 
ATOM      4  N   UNL     1       0.920   6.767  20.956  0.00  0.00    +0.000 N 
ATOM      5  C   UNL     1       1.781   5.975  20.298  0.00  0.00    +0.000 A 
ATOM      6  H   UNL     1       0.111   6.447  21.530  0.00  0.00    +0.000 HD
ENDROOT
BRANCH   1   9
ATOM      7  C   UNL     1       5.701   5.079  18.019  0.00  0.00    +0.000 A 
ATOM      8  C   UNL     1       4.715   5.426  18.966  0.00  0.00    +0.000 A 
ATOM      9  C   UNL     1       3.745   6.396  18.654  0.00  0.00    +0.000 A 
ATOM     10  C   UNL     1       3.807   7.034  17.402  0.00  0.00    +0.000 A 
ATOM     11  C   UNL     1       4.776   6.692  16.469  0.00  0.00    +0.000 A 
ATOM     12  C   UNL     1       5.722   5.719  16.769  0.00  0.00    +0.000 A 
ATOM     13 CL   UNL     1       6.941   5.342  15.565  0.00  0.00    +0.000 Cl
BRANCH   7  14
ATOM     14  O   UNL     1       6.626   4.140  18.303  0.00  0.00    +0.000 OA
ATOM     15  H   UNL     1       7.433   4.038  17.779  0.00  0.00    +0.000 HD
ENDBRANCH   7  14
ENDBRANCH   1   9
BRANCH   3  16
ATOM     16  C   UNL     1       0.647   9.242  21.264  0.00  0.00    +0.000 A 
ATOM     17  C   UNL     1       0.650  10.439  20.521  0.00  0.00    +0.000 A 
ATOM     18  C   UNL     1      -0.012  11.574  21.001  0.00  0.00    +0.000 A 
ATOM     19  C   UNL     1      -0.682  11.532  22.226  0.00  0.00    +0.000 A 
ATOM     20  C   UNL     1      -0.692  10.354  22.974  0.00  0.00    +0.000 A 
ATOM     21  C   UNL     1      -0.035   9.216  22.498  0.00  0.00    +0.000 A 
ENDBRANCH   3  16
BRANCH   5  22
ATOM     22  C   UNL     1       1.705   4.490  20.317  0.00  0.00    +0.000 A 
ATOM     23  C   UNL     1       2.037   3.781  21.480  0.00  0.00    +0.000 A 
ATOM     24  C   UNL     1       1.907   2.390  21.501  0.00  0.00    +0.000 A 
ATOM     25  N   UNL     1       1.483   1.723  20.395  0.00  0.00    +0.000 NA
ATOM     26  C   UNL     1       1.185   2.378  19.244  0.00  0.00    +0.000 A 
ATOM     27  C   UNL     1       1.295   3.765  19.182  0.00  0.00    +0.000 A 
ENDBRANCH   5  22
TORSDOF 4
ENDMDL
MODEL 3
REMARK VINA RESULT:      -7.7      0.921      1.335
REMARK  Name = 
REMARK  4 active torsions:
REMARK  status: ('A' for Active; 'I' for Inactive)
REMARK    1  A    between atoms: O_1  and  C_2
REMARK    2  A    between atoms: C_4  and  C_5
REMARK    3  A    between atoms: C_7  and  C_8
REMARK    4  A    between atoms: C_15  and  C_16
REMARK                            x       y       z     vdW  Elec       q    Type
REMARK                         _______ _______ _______ _____ _____    ______ ____
ROOT
ATOM      1  C   UNL     1       2.724   6.785  19.661  0.00  0.00    +0.000 A 
ATOM      2  N   UNL     1       2.445   8.073  19.958  0.00  0.00    +0.000 NA
ATOM      3  C   UNL     1       1.318   8.031  20.706  0.00  0.00    +0.000 A 
ATOM      4  N   UNL     1       0.890   6.763  20.904  0.00  0.00    +0.000 N 
ATOM      5  C   UNL     1       1.771   5.970  20.275  0.00  0.00    +0.000 A 
ATOM      6  H   UNL     1       0.057   6.444  21.444  0.00  0.00    +0.000 HD
ENDROOT
BRANCH   1   9
ATOM      7  C   UNL     1       4.882   6.525  16.527  0.00  0.00    +0.000 A 
ATOM      8  C   UNL     1       3.863   6.930  17.415  0.00  0.00    +0.000 A 
ATOM      9  C   UNL     1       3.800   6.388  18.712  0.00  0.00    +0.000 A 
ATOM     10  C   UNL     1       4.744   5.415  19.083  0.00  0.00    +0.000 A 
ATOM     11  C   UNL     1       5.747   5.016  18.211  0.00  0.00    +0.000 A 
ATOM     12  C   UNL     1       5.823   5.566  16.936  0.00  0.00    +0.000 A 
ATOM     13 CL   UNL     1       7.095   5.011  15.863  0.00  0.00    +0.000 Cl
BRANCH   7  14
ATOM     14  O   UNL     1       4.960   7.048  15.286  0.00  0.00    +0.000 OA
ATOM     15  H   UNL     1       5.771   7.454  14.949  0.00  0.00    +0.000 HD
ENDBRANCH   7  14
ENDBRANCH   1   9
BRANCH   3  16
ATOM     16  C   UNL     1       0.617   9.238  21.213  0.00  0.00    +0.000 A 
ATOM     17  C   UNL     1      -0.053   9.198  22.450  0.00  0.00    +0.000 A 
ATOM     18  C   UNL     1      -0.700  10.336  22.946  0.00  0.00    +0.000 A 
ATOM     19  C   UNL     1      -0.686  11.525  22.214  0.00  0.00    +0.000 A 
ATOM     20  C   UNL     1      -0.027  11.580  20.986  0.00  0.00    +0.000 A 
ATOM     21  C   UNL     1       0.622  10.448  20.487  0.00  0.00    +0.000 A 
ENDBRANCH   3  16
BRANCH   5  22
ATOM     22  C   UNL     1       1.686   4.485  20.284  0.00  0.00    +0.000 A 
ATOM     23  C   UNL     1       1.281   3.793  19.134  0.00  0.00    +0.000 A 
ATOM     24  C   UNL     1       1.259   2.396  19.140  0.00  0.00    +0.000 A 
ATOM     25  N   UNL     1       1.606   1.709  20.260  0.00  0.00    +0.000 NA
ATOM     26  C   UNL     1       1.972   2.350  21.400  0.00  0.00    +0.000 A 
ATOM     27  C   UNL     1       2.013   3.742  21.435  0.00  0.00    +0.000 A 
ENDBRANCH   5  22
TORSDOF 4
ENDMDL
MODEL 4
REMARK VINA RESULT:      -7.7      3.432      7.067
REMARK  Name = 
REMARK  4 active torsions:
REMARK  status: ('A' for Active; 'I' for Inactive)
REMARK    1  A    between atoms: O_1  and  C_2
REMARK    2  A    between atoms: C_4  and  C_5
REMARK    3  A    between atoms: C_7  and  C_8
REMARK    4  A    between atoms: C_15  and  C_16
REMARK                            x       y       z     vdW  Elec       q    Type
REMARK                         _______ _______ _______ _____ _____    ______ ____
ROOT
ATOM      1  C   UNL     1       3.233   6.025  17.811  0.00  0.00    +0.000 A 
ATOM      2  N   UNL     1       4.010   6.247  16.729  0.00  0.00    +0.000 NA
ATOM      3  C   UNL     1       4.600   5.059  16.464  0.00  0.00    +0.000 A 
ATOM      4  N   UNL     1       4.208   4.095  17.329  0.00  0.00    +0.000 N 
ATOM      5  C   UNL     1       3.335   4.678  18.165  0.00  0.00    +0.000 A 
ATOM      6  H   UNL     1       4.500   3.095  17.350  0.00  0.00    +0.000 HD
ENDROOT
BRANCH   1   9
ATOM      7  C   UNL     1       1.475   9.319  18.593  0.00  0.00    +0.000 A 
ATOM      8  C   UNL     1       2.126   8.292  17.878  0.00  0.00    +0.000 A 
ATOM      9  C   UNL     1       2.528   7.116  18.539  0.00  0.00    +0.000 A 
ATOM     10  C   UNL     1       2.301   7.009  19.922  0.00  0.00    +0.000 A 
ATOM     11  C   UNL     1       1.658   8.018  20.626  0.00  0.00    +0.000 A 
ATOM     12  C   UNL     1       1.243   9.172  19.970  0.00  0.00    +0.000 A 
ATOM     13 CL   UNL     1       0.458  10.428  20.909  0.00  0.00    +0.000 Cl
BRANCH   7  14
ATOM     14  O   UNL     1       1.074  10.444  17.966  0.00  0.00    +0.000 OA
ATOM     15  H   UNL     1       0.533  10.421  17.165  0.00  0.00    +0.000 HD
ENDBRANCH   7  14
ENDBRANCH   1   9
BRANCH   3  16
ATOM     16  C   UNL     1       5.589   4.852  15.376  0.00  0.00    +0.000 A 
ATOM     17  C   UNL     1       5.281   4.006  14.292  0.00  0.00    +0.000 A 
ATOM     18  C   UNL     1       6.199   3.821  13.252  0.00  0.00    +0.000 A 
ATOM     19  C   UNL     1       7.433   4.474  13.280  0.00  0.00    +0.000 A 
ATOM     20  C   UNL     1       7.753   5.314  14.348  0.00  0.00    +0.000 A 
ATOM     21  C   UNL     1       6.840   5.505  15.388  0.00  0.00    +0.000 A 
ENDBRANCH   3  16
BRANCH   5  22
ATOM     22  C   UNL     1       2.631   3.947  19.252  0.00  0.00    +0.000 A 
ATOM     23  C   UNL     1       3.347   3.460  20.355  0.00  0.00    +0.000 A 
ATOM     24  C   UNL     1       2.664   2.823  21.394  0.00  0.00    +0.000 A 
ATOM     25  N   UNL     1       1.317   2.656  21.329  0.00  0.00    +0.000 NA
ATOM     26  C   UNL     1       0.599   3.087  20.261  0.00  0.00    +0.000 A 
ATOM     27  C   UNL     1       1.240   3.732  19.204  0.00  0.00    +0.000 A 
ENDBRANCH   5  22
TORSDOF 4
ENDMDL
MODEL 5
REMARK VINA RESULT:      -7.6      3.419      7.097
REMARK  Name = 
REMARK  4 active torsions:
REMARK  status: ('A' for Active; 'I' for Inactive)
REMARK    1  A    between atoms: O_1  and  C_2
REMARK    2  A    between atoms: C_4  and  C_5
REMARK    3  A    between atoms: C_7  and  C_8
REMARK    4  A    between atoms: C_15  and  C_16
REMARK                            x       y       z     vdW  Elec       q    Type
REMARK                         _______ _______ _______ _____ _____    ______ ____
ROOT
ATOM      1  C   UNL     1       3.438   5.895  17.475  0.00  0.00    +0.000 A 
ATOM      2  N   UNL     1       4.191   6.123  16.377  0.00  0.00    +0.000 NA
ATOM      3  C   UNL     1       4.744   4.927  16.070  0.00  0.00    +0.000 A 
ATOM      4  N   UNL     1       4.354   3.954  16.925  0.00  0.00    +0.000 N 
ATOM      5  C   UNL     1       3.518   4.539  17.798  0.00  0.00    +0.000 A 
ATOM      6  H   UNL     1       4.623   2.947  16.917  0.00  0.00    +0.000 HD
ENDROOT
BRANCH   1   9
ATOM      7  C   UNL     1       1.860   7.886  20.321  0.00  0.00    +0.000 A 
ATOM      8  C   UNL     1       2.501   6.845  19.617  0.00  0.00    +0.000 A 
ATOM      9  C   UNL     1       2.779   6.986  18.245  0.00  0.00    +0.000 A 
ATOM     10  C   UNL     1       2.371   8.162  17.592  0.00  0.00    +0.000 A 
ATOM     11  C   UNL     1       1.741   9.188  18.284  0.00  0.00    +0.000 A 
ATOM     12  C   UNL     1       1.484   9.057  19.644  0.00  0.00    +0.000 A 
ATOM     13 CL   UNL     1       0.664  10.371  20.467  0.00  0.00    +0.000 Cl
BRANCH   7  14
ATOM     14  O   UNL     1       1.602   7.766  21.639  0.00  0.00    +0.000 OA
ATOM     15  H   UNL     1       1.121   7.009  22.003  0.00  0.00    +0.000 HD
ENDBRANCH   7  14
ENDBRANCH   1   9
BRANCH   3  16
ATOM     16  C   UNL     1       5.698   4.721  14.951  0.00  0.00    +0.000 A 
ATOM     17  C   UNL     1       5.355   3.879  13.875  0.00  0.00    +0.000 A 
ATOM     18  C   UNL     1       6.239   3.695  12.806  0.00  0.00    +0.000 A 
ATOM     19  C   UNL     1       7.475   4.346  12.797  0.00  0.00    +0.000 A 
ATOM     20  C   UNL     1       7.829   5.182  13.856  0.00  0.00    +0.000 A 
ATOM     21  C   UNL     1       6.950   5.371  14.925  0.00  0.00    +0.000 A 
ENDBRANCH   3  16
BRANCH   5  22
ATOM     22  C   UNL     1       2.827   3.801  18.888  0.00  0.00    +0.000 A 
ATOM     23  C   UNL     1       3.546   3.356  20.006  0.00  0.00    +0.000 A 
ATOM     24  C   UNL     1       2.874   2.712  21.048  0.00  0.00    +0.000 A 
ATOM     25  N   UNL     1       1.534   2.497  20.971  0.00  0.00    +0.000 NA
ATOM     26  C   UNL     1       0.814   2.887  19.888  0.00  0.00    +0.000 A 
ATOM     27  C   UNL     1       1.445   3.537  18.829  0.00  0.00    +0.000 A 
ENDBRANCH   5  22
TORSDOF 4
ENDMDL
MODEL 6
REMARK VINA RESULT:      -7.6      3.352      6.922
REMARK  Name = 
REMARK  4 active torsions:
REMARK  status: ('A' for Active; 'I' for Inactive)
REMARK    1  A    between atoms: O_1  and  C_2
REMARK    2  A    between atoms: C_4  and  C_5
REMARK    3  A    between atoms: C_7  and  C_8
REMARK    4  A    between atoms: C_15  and  C_16
REMARK                            x       y       z     vdW  Elec       q    Type
REMARK                         _______ _______ _______ _____ _____    ______ ____
ROOT
ATOM      1  C   UNL     1       3.245   6.093  17.770  0.00  0.00    +0.000 A 
ATOM      2  N   UNL     1       4.024   6.287  16.683  0.00  0.00    +0.000 NA
ATOM      3  C   UNL     1       4.594   5.085  16.435  0.00  0.00    +0.000 A 
ATOM      4  N   UNL     1       4.189   4.141  17.314  0.00  0.00    +0.000 N 
ATOM      5  C   UNL     1       3.327   4.750  18.144  0.00  0.00    +0.000 A 
ATOM      6  H   UNL     1       4.465   3.136  17.350  0.00  0.00    +0.000 HD
ENDROOT
BRANCH   1   9
ATOM      7  C   UNL     1       1.670   8.214  20.521  0.00  0.00    +0.000 A 
ATOM      8  C   UNL     1       2.338   7.155  19.871  0.00  0.00    +0.000 A 
ATOM      9  C   UNL     1       2.559   7.205  18.483  0.00  0.00    +0.000 A 
ATOM     10  C   UNL     1       2.066   8.307  17.761  0.00  0.00    +0.000 A 
ATOM     11  C   UNL     1       1.410   9.350  18.400  0.00  0.00    +0.000 A 
ATOM     12  C   UNL     1       1.210   9.311  19.775  0.00  0.00    +0.000 A 
ATOM     13 CL   UNL     1       0.353  10.642  20.531  0.00  0.00    +0.000 Cl
BRANCH   7  14
ATOM     14  O   UNL     1       1.466   8.182  21.854  0.00  0.00    +0.000 OA
ATOM     15  H   UNL     1       1.183   8.962  22.350  0.00  0.00    +0.000 HD
ENDBRANCH   7  14
ENDBRANCH   1   9
BRANCH   3  16
ATOM     16  C   UNL     1       5.577   4.847  15.348  0.00  0.00    +0.000 A 
ATOM     17  C   UNL     1       5.230   4.044  14.244  0.00  0.00    +0.000 A 
ATOM     18  C   UNL     1       6.143   3.830  13.205  0.00  0.00    +0.000 A 
ATOM     19  C   UNL     1       7.412   4.412  13.255  0.00  0.00    +0.000 A 
ATOM     20  C   UNL     1       7.771   5.208  14.343  0.00  0.00    +0.000 A 
ATOM     21  C   UNL     1       6.863   5.427  15.382  0.00  0.00    +0.000 A 
ENDBRANCH   3  16
BRANCH   5  22
ATOM     22  C   UNL     1       2.614   4.046  19.242  0.00  0.00    +0.000 A 
ATOM     23  C   UNL     1       1.248   3.750  19.123  0.00  0.00    +0.000 A 
ATOM     24  C   UNL     1       0.604   3.039  20.139  0.00  0.00    +0.000 A 
ATOM     25  N   UNL     1       1.289   2.656  21.249  0.00  0.00    +0.000 NA
ATOM     26  C   UNL     1       2.604   2.956  21.410  0.00  0.00    +0.000 A 
ATOM     27  C   UNL     1       3.286   3.658  20.417  0.00  0.00    +0.000 A 
ENDBRANCH   5  22
TORSDOF 4
ENDMDL
MODEL 7
REMARK VINA RESULT:      -7.6      3.426      7.004
REMARK  Name = 
REMARK  4 active torsions:
REMARK  status: ('A' for Active; 'I' for Inactive)
REMARK    1  A    between atoms: O_1  and  C_2
REMARK    2  A    between atoms: C_4  and  C_5
REMARK    3  A    between atoms: C_7  and  C_8
REMARK    4  A    between atoms: C_15  and  C_16
REMARK                            x       y       z     vdW  Elec       q    Type
REMARK                         _______ _______ _______ _____ _____    ______ ____
ROOT
ATOM      1  C   UNL     1       3.172   6.092  17.860  0.00  0.00    +0.000 A 
ATOM      2  N   UNL     1       3.945   6.304  16.773  0.00  0.00    +0.000 NA
ATOM      3  C   UNL     1       4.545   5.116  16.526  0.00  0.00    +0.000 A 
ATOM      4  N   UNL     1       4.163   4.163  17.406  0.00  0.00    +0.000 N 
ATOM      5  C   UNL     1       3.285   4.752  18.235  0.00  0.00    +0.000 A 
ATOM      6  H   UNL     1       4.463   3.166  17.443  0.00  0.00    +0.000 HD
ENDROOT
BRANCH   1   9
ATOM      7  C   UNL     1       1.380   9.380  18.590  0.00  0.00    +0.000 A 
ATOM      8  C   UNL     1       2.040   8.347  17.892  0.00  0.00    +0.000 A 
ATOM      9  C   UNL     1       2.458   7.188  18.571  0.00  0.00    +0.000 A 
ATOM     10  C   UNL     1       2.239   7.104  19.958  0.00  0.00    +0.000 A 
ATOM     11  C   UNL     1       1.589   8.119  20.646  0.00  0.00    +0.000 A 
ATOM     12  C   UNL     1       1.157   9.256  19.971  0.00  0.00    +0.000 A 
ATOM     13 CL   UNL     1       0.364  10.520  20.892  0.00  0.00    +0.000 Cl
BRANCH   7  14
ATOM     14  O   UNL     1       0.963  10.488  17.945  0.00  0.00    +0.000 OA
ATOM     15  H   UNL     1       0.027  10.719  17.871  0.00  0.00    +0.000 HD
ENDBRANCH   7  14
ENDBRANCH   1   9
BRANCH   3  16
ATOM     16  C   UNL     1       5.534   4.901  15.440  0.00  0.00    +0.000 A 
ATOM     17  C   UNL     1       6.795   5.525  15.498  0.00  0.00    +0.000 A 
ATOM     18  C   UNL     1       7.741   5.313  14.490  0.00  0.00    +0.000 A 
ATOM     19  C   UNL     1       7.442   4.477  13.411  0.00  0.00    +0.000 A 
ATOM     20  C   UNL     1       6.197   3.852  13.339  0.00  0.00    +0.000 A 
ATOM     21  C   UNL     1       5.249   4.059  14.344  0.00  0.00    +0.000 A 
ENDBRANCH   3  16
BRANCH   5  22
ATOM     22  C   UNL     1       2.589   4.032  19.334  0.00  0.00    +0.000 A 
ATOM     23  C   UNL     1       1.213   3.776  19.250  0.00  0.00    +0.000 A 
ATOM     24  C   UNL     1       0.582   3.050  20.265  0.00  0.00    +0.000 A 
ATOM     25  N   UNL     1       1.292   2.613  21.338  0.00  0.00    +0.000 NA
ATOM     26  C   UNL     1       2.619   2.873  21.465  0.00  0.00    +0.000 A 
ATOM     27  C   UNL     1       3.287   3.588  20.473  0.00  0.00    +0.000 A 
ENDBRANCH   5  22
TORSDOF 4
ENDMDL
MODEL 8
REMARK VINA RESULT:      -7.5      1.590      2.217
REMARK  Name = 
REMARK  4 active torsions:
REMARK  status: ('A' for Active; 'I' for Inactive)
REMARK    1  A    between atoms: O_1  and  C_2
REMARK    2  A    between atoms: C_4  and  C_5
REMARK    3  A    between atoms: C_7  and  C_8
REMARK    4  A    between atoms: C_15  and  C_16
REMARK                            x       y       z     vdW  Elec       q    Type
REMARK                         _______ _______ _______ _____ _____    ______ ____
ROOT
ATOM      1  C   UNL     1       3.286   6.542  18.667  0.00  0.00    +0.000 A 
ATOM      2  N   UNL     1       2.797   7.796  18.553  0.00  0.00    +0.000 NA
ATOM      3  C   UNL     1       1.906   7.925  19.563  0.00  0.00    +0.000 A 
ATOM      4  N   UNL     1       1.830   6.804  20.316  0.00  0.00    +0.000 N 
ATOM      5  C   UNL     1       2.704   5.936  19.782  0.00  0.00    +0.000 A 
ATOM      6  H   UNL     1       1.233   6.633  21.154  0.00  0.00    +0.000 HD
ENDROOT
BRANCH   1   9
ATOM      7  C   UNL     1       6.272   5.886  16.386  0.00  0.00    +0.000 A 
ATOM      8  C   UNL     1       5.446   6.476  17.366  0.00  0.00    +0.000 A 
ATOM      9  C   UNL     1       4.183   5.927  17.650  0.00  0.00    +0.000 A 
ATOM     10  C   UNL     1       3.751   4.811  16.912  0.00  0.00    +0.000 A 
ATOM     11  C   UNL     1       4.563   4.228  15.948  0.00  0.00    +0.000 A 
ATOM     12  C   UNL     1       5.820   4.758  15.681  0.00  0.00    +0.000 A 
ATOM     13 CL   UNL     1       6.797   4.000  14.437  0.00  0.00    +0.000 Cl
BRANCH   7  14
ATOM     14  O   UNL     1       7.491   6.396  16.116  0.00  0.00    +0.000 OA
ATOM     15  H   UNL     1       7.627   7.071  15.437  0.00  0.00    +0.000 HD
ENDBRANCH   7  14
ENDBRANCH   1   9
BRANCH   3  16
ATOM     16  C   UNL     1       1.083   9.140  19.788  0.00  0.00    +0.000 A 
ATOM     17  C   UNL     1       0.893  10.068  18.746  0.00  0.00    +0.000 A 
ATOM     18  C   UNL     1       0.103  11.207  18.943  0.00  0.00    +0.000 A 
ATOM     19  C   UNL     1      -0.505  11.433  20.180  0.00  0.00    +0.000 A 
ATOM     20  C   UNL     1      -0.325  10.523  21.222  0.00  0.00    +0.000 A 
ATOM     21  C   UNL     1       0.461   9.384  21.031  0.00  0.00    +0.000 A 
ENDBRANCH   3  16
BRANCH   5  22
ATOM     22  C   UNL     1       2.960   4.584  20.345  0.00  0.00    +0.000 A 
ATOM     23  C   UNL     1       2.090   4.039  21.300  0.00  0.00    +0.000 A 
ATOM     24  C   UNL     1       2.312   2.746  21.778  0.00  0.00    +0.000 A 
ATOM     25  N   UNL     1       3.377   2.025  21.339  0.00  0.00    +0.000 NA
ATOM     26  C   UNL     1       4.257   2.535  20.439  0.00  0.00    +0.000 A 
ATOM     27  C   UNL     1       4.069   3.820  19.932  0.00  0.00    +0.000 A 
ENDBRANCH   5  22
TORSDOF 4
ENDMDL
MODEL 9
REMARK VINA RESULT:      -7.4      0.966      1.691
REMARK  Name = 
REMARK  4 active torsions:
REMARK  status: ('A' for Active; 'I' for Inactive)
REMARK    1  A    between atoms: O_1  and  C_2
REMARK    2  A    between atoms: C_4  and  C_5
REMARK    3  A    between atoms: C_7  and  C_8
REMARK    4  A    between atoms: C_15  and  C_16
REMARK                            x       y       z     vdW  Elec       q    Type
REMARK                         _______ _______ _______ _____ _____    ______ ____
ROOT
ATOM      1  C   UNL     1       2.905   6.996  18.925  0.00  0.00    +0.000 A 
ATOM      2  N   UNL     1       2.610   8.314  18.923  0.00  0.00    +0.000 NA
ATOM      3  C   UNL     1       1.491   8.430  19.676  0.00  0.00    +0.000 A 
ATOM      4  N   UNL     1       1.084   7.236  20.163  0.00  0.00    +0.000 N 
ATOM      5  C   UNL     1       1.972   6.330  19.722  0.00  0.00    +0.000 A 
ATOM      6  H   UNL     1       0.261   7.038  20.772  0.00  0.00    +0.000 HD
ENDROOT
BRANCH   1   9
ATOM      7  C   UNL     1       5.897   4.925  17.779  0.00  0.00    +0.000 A 
ATOM      8  C   UNL     1       4.878   5.457  18.597  0.00  0.00    +0.000 A 
ATOM      9  C   UNL     1       3.978   6.406  18.078  0.00  0.00    +0.000 A 
ATOM     10  C   UNL     1       4.143   6.835  16.749  0.00  0.00    +0.000 A 
ATOM     11  C   UNL     1       5.144   6.311  15.943  0.00  0.00    +0.000 A 
ATOM     12  C   UNL     1       6.021   5.358  16.449  0.00  0.00    +0.000 A 
ATOM     13 CL   UNL     1       7.284   4.746  15.397  0.00  0.00    +0.000 Cl
BRANCH   7  14
ATOM     14  O   UNL     1       6.756   4.005  18.263  0.00  0.00    +0.000 OA
ATOM     15  H   UNL     1       7.568   3.765  17.797  0.00  0.00    +0.000 HD
ENDBRANCH   7  14
ENDBRANCH   1   9
BRANCH   3  16
ATOM     16  C   UNL     1       0.777   9.712  19.902  0.00  0.00    +0.000 A 
ATOM     17  C   UNL     1      -0.007  10.275  18.877  0.00  0.00    +0.000 A 
ATOM     18  C   UNL     1      -0.700  11.472  19.088  0.00  0.00    +0.000 A 
ATOM     19  C   UNL     1      -0.618  12.123  20.322  0.00  0.00    +0.000 A 
ATOM     20  C   UNL     1       0.156  11.578  21.346  0.00  0.00    +0.000 A 
ATOM     21  C   UNL     1       0.848  10.381  21.142  0.00  0.00    +0.000 A 
ENDBRANCH   3  16
BRANCH   5  22
ATOM     22  C   UNL     1       1.909   4.886  20.071  0.00  0.00    +0.000 A 
ATOM     23  C   UNL     1       2.317   4.448  21.339  0.00  0.00    +0.000 A 
ATOM     24  C   UNL     1       2.201   3.096  21.672  0.00  0.00    +0.000 A 
ATOM     25  N   UNL     1       1.717   2.205  20.766  0.00  0.00    +0.000 NA
ATOM     26  C   UNL     1       1.345   2.592  19.519  0.00  0.00    +0.000 A 
ATOM     27  C   UNL     1       1.439   3.932  19.148  0.00  0.00    +0.000 A 
ENDBRANCH   5  22
TORSDOF 4
ENDMDL
