MODEL 1
REMARK VINA RESULT:      -8.6      0.000      0.000
REMARK  Name = 
REMARK  5 active torsions:
REMARK  status: ('A' for Active; 'I' for Inactive)
REMARK    1  A    between atoms: C_1  and  N_2
REMARK    2  A    between atoms: C_3  and  C_5
REMARK    3  A    between atoms: N_8  and  C_9
REMARK    4  A    between atoms: C_14  and  C_16
REMARK    5  A    between atoms: C_16  and  C_17
REMARK                            x       y       z     vdW  Elec       q    Type
REMARK                         _______ _______ _______ _____ _____    ______ ____
ROOT
ATOM      1  C   UNL     1       2.366   6.530  19.965  0.00  0.00    +0.000 C 
ATOM      2  C   UNL     1       1.745   5.423  20.822  0.00  0.00    +0.000 C 
ATOM      3  C   UNL     1       2.362   4.056  20.504  0.00  0.00    +0.000 C 
ATOM      4  C   UNL     1       2.331   3.750  19.002  0.00  0.00    +0.000 C 
ATOM      5  N   UNL     1       2.941   4.847  18.243  0.00  0.00    +0.000 N 
ATOM      6  C   UNL     1       3.956   4.618  17.319  0.00  0.00    +0.000 C 
ATOM      7  O   UNL     1       4.407   3.491  17.120  0.00  0.00    +0.000 OA
ATOM      8  C   UNL     1       2.329   6.149  18.483  0.00  0.00    +0.000 C 
ENDROOT
BRANCH   1  12
ATOM      9  C   UNL     1       0.736   9.377  21.255  0.00  0.00    +0.000 A 
ATOM     10  C   UNL     1       0.856   9.803  19.907  0.00  0.00    +0.000 A 
ATOM     11  C   UNL     1       1.477   8.768  19.244  0.00  0.00    +0.000 A 
ATOM     12  N   UNL     1       1.716   7.815  20.189  0.00  0.00    +0.000 N 
ATOM     13  N   UNL     1       1.280   8.154  21.421  0.00  0.00    +0.000 NA
BRANCH   9  16
ATOM     14  C   UNL     1      -1.295  12.062  22.904  0.00  0.00    +0.000 C 
ATOM     15  N   UNL     1      -0.626  11.212  21.960  0.00  0.00    +0.000 N 
ATOM     16  C   UNL     1       0.113  10.120  22.364  0.00  0.00    +0.000 C 
ATOM     17  O   UNL     1       0.245   9.792  23.538  0.00  0.00    +0.000 OA
ATOM     18  H   UNL     1      -0.743  11.331  20.958  0.00  0.00    +0.000 HD
ENDBRANCH   9  16
ENDBRANCH   1  12
BRANCH   6  19
ATOM     19  C   UNL     1       4.537   5.830  16.566  0.00  0.00    +0.000 C 
BRANCH  19  20
ATOM     20  C   UNL     1       5.713   5.439  15.728  0.00  0.00    +0.000 A 
ATOM     21  C   UNL     1       7.021   5.815  15.973  0.00  0.00    +0.000 A 
ATOM     22  O   UNL     1       7.846   5.406  14.981  0.00  0.00    +0.000 OA
ATOM     23  C   UNL     1       7.077   4.753  14.071  0.00  0.00    +0.000 A 
ATOM     24  C   UNL     1       7.531   4.269  12.846  0.00  0.00    +0.000 A 
ATOM     25  C   UNL     1       6.580   3.662  12.021  0.00  0.00    +0.000 A 
ATOM     26  C   UNL     1       5.268   3.476  12.461  0.00  0.00    +0.000 A 
ATOM     27  C   UNL     1       4.846   3.958  13.712  0.00  0.00    +0.000 A 
ATOM     28  C   UNL     1       5.761   4.670  14.516  0.00  0.00    +0.000 A 
ENDBRANCH  19  20
ENDBRANCH   6  19
TORSDOF 4
ENDMDL
MODEL 2
REMARK VINA RESULT:      -8.5      2.261      9.040
REMARK  Name = 
REMARK  5 active torsions:
REMARK  status: ('A' for Active; 'I' for Inactive)
REMARK    1  A    between atoms: C_1  and  N_2
REMARK    2  A    between atoms: C_3  and  C_5
REMARK    3  A    between atoms: N_8  and  C_9
REMARK    4  A    between atoms: C_14  and  C_16
REMARK    5  A    between atoms: C_16  and  C_17
REMARK                            x       y       z     vdW  Elec       q    Type
REMARK                         _______ _______ _______ _____ _____    ______ ____
ROOT
ATOM      1  C   UNL     1       4.024   4.308  18.243  0.00  0.00    +0.000 C 
ATOM      2  C   UNL     1       3.862   2.905  18.836  0.00  0.00    +0.000 C 
ATOM      3  C   UNL     1       2.617   2.813  19.726  0.00  0.00    +0.000 C 
ATOM      4  C   UNL     1       2.584   3.925  20.780  0.00  0.00    +0.000 C 
ATOM      5  N   UNL     1       2.742   5.238  20.146  0.00  0.00    +0.000 N 
ATOM      6  C   UNL     1       1.842   6.273  20.379  0.00  0.00    +0.000 C 
ATOM      7  O   UNL     1       0.858   6.124  21.102  0.00  0.00    +0.000 OA
ATOM      8  C   UNL     1       3.953   5.369  19.343  0.00  0.00    +0.000 C 
ENDROOT
BRANCH   1  12
ATOM      9  C   UNL     1       6.522   4.554  15.768  0.00  0.00    +0.000 A 
ATOM     10  C   UNL     1       7.358   4.641  16.911  0.00  0.00    +0.000 A 
ATOM     11  C   UNL     1       6.514   4.542  17.996  0.00  0.00    +0.000 A 
ATOM     12  N   UNL     1       5.258   4.432  17.478  0.00  0.00    +0.000 N 
ATOM     13  N   UNL     1       5.227   4.436  16.128  0.00  0.00    +0.000 NA
BRANCH   9  16
ATOM     14  C   UNL     1       6.614   3.516  12.167  0.00  0.00    +0.000 C 
ATOM     15  N   UNL     1       6.316   3.646  13.565  0.00  0.00    +0.000 N 
ATOM     16  C   UNL     1       6.948   4.580  14.358  0.00  0.00    +0.000 C 
ATOM     17  O   UNL     1       7.792   5.363  13.936  0.00  0.00    +0.000 OA
ATOM     18  H   UNL     1       5.568   3.116  14.003  0.00  0.00    +0.000 HD
ENDBRANCH   9  16
ENDBRANCH   1  12
BRANCH   6  19
ATOM     19  C   UNL     1       2.087   7.619  19.670  0.00  0.00    +0.000 C 
BRANCH  19  20
ATOM     20  C   UNL     1       1.425   8.746  20.397  0.00  0.00    +0.000 A 
ATOM     21  C   UNL     1       1.552   9.001  21.750  0.00  0.00    +0.000 A 
ATOM     22  O   UNL     1       0.745  10.015  22.140  0.00  0.00    +0.000 OA
ATOM     23  C   UNL     1       0.077  10.436  21.035  0.00  0.00    +0.000 A 
ATOM     24  C   UNL     1      -0.932  11.397  21.032  0.00  0.00    +0.000 A 
ATOM     25  C   UNL     1      -1.535  11.668  19.801  0.00  0.00    +0.000 A 
ATOM     26  C   UNL     1      -1.072  11.065  18.630  0.00  0.00    +0.000 A 
ATOM     27  C   UNL     1      -0.037  10.113  18.664  0.00  0.00    +0.000 A 
ATOM     28  C   UNL     1       0.513   9.744  19.909  0.00  0.00    +0.000 A 
ENDBRANCH  19  20
ENDBRANCH   6  19
TORSDOF 4
ENDMDL
MODEL 3
REMARK VINA RESULT:      -8.5      2.326      3.242
REMARK  Name = 
REMARK  5 active torsions:
REMARK  status: ('A' for Active; 'I' for Inactive)
REMARK    1  A    between atoms: C_1  and  N_2
REMARK    2  A    between atoms: C_3  and  C_5
REMARK    3  A    between atoms: N_8  and  C_9
REMARK    4  A    between atoms: C_14  and  C_16
REMARK    5  A    between atoms: C_16  and  C_17
REMARK                            x       y       z     vdW  Elec       q    Type
REMARK                         _______ _______ _______ _____ _____    ______ ____
ROOT
ATOM      1  C   UNL     1       2.626   6.575  19.230  0.00  0.00    +0.000 C 
ATOM      2  C   UNL     1       2.107   6.080  20.583  0.00  0.00    +0.000 C 
ATOM      3  C   UNL     1       2.568   4.646  20.869  0.00  0.00    +0.000 C 
ATOM      4  C   UNL     1       2.241   3.698  19.711  0.00  0.00    +0.000 C 
ATOM      5  N   UNL     1       2.767   4.230  18.449  0.00  0.00    +0.000 N 
ATOM      6  C   UNL     1       3.577   3.465  17.616  0.00  0.00    +0.000 C 
ATOM      7  O   UNL     1       3.913   2.320  17.915  0.00  0.00    +0.000 OA
ATOM      8  C   UNL     1       2.292   5.571  18.125  0.00  0.00    +0.000 C 
ENDROOT
BRANCH   1  12
ATOM      9  C   UNL     1       1.095   9.750  19.188  0.00  0.00    +0.000 A 
ATOM     10  C   UNL     1       1.610   9.754  17.865  0.00  0.00    +0.000 A 
ATOM     11  C   UNL     1       2.243   8.540  17.711  0.00  0.00    +0.000 A 
ATOM     12  N   UNL     1       2.109   7.898  18.906  0.00  0.00    +0.000 N 
ATOM     13  N   UNL     1       1.417   8.606  19.825  0.00  0.00    +0.000 NA
BRANCH   9  16
ATOM     14  C   UNL     1      -1.714  12.198  19.607  0.00  0.00    +0.000 C 
ATOM     15  N   UNL     1      -0.830  11.168  19.137  0.00  0.00    +0.000 N 
ATOM     16  C   UNL     1       0.308  10.816  19.832  0.00  0.00    +0.000 C 
ATOM     17  O   UNL     1       0.641  11.339  20.889  0.00  0.00    +0.000 OA
ATOM     18  H   UNL     1      -1.055  10.602  18.324  0.00  0.00    +0.000 HD
ENDBRANCH   9  16
ENDBRANCH   1  12
BRANCH   6  19
ATOM     19  C   UNL     1       4.083   4.106  16.309  0.00  0.00    +0.000 C 
BRANCH  19  20
ATOM     20  C   UNL     1       4.974   5.275  16.585  0.00  0.00    +0.000 A 
ATOM     21  C   UNL     1       5.086   6.394  15.780  0.00  0.00    +0.000 A 
ATOM     22  O   UNL     1       6.055   7.228  16.227  0.00  0.00    +0.000 OA
ATOM     23  C   UNL     1       6.589   6.656  17.336  0.00  0.00    +0.000 A 
ATOM     24  C   UNL     1       7.689   7.148  18.036  0.00  0.00    +0.000 A 
ATOM     25  C   UNL     1       8.123   6.396  19.130  0.00  0.00    +0.000 A 
ATOM     26  C   UNL     1       7.420   5.263  19.543  0.00  0.00    +0.000 A 
ATOM     27  C   UNL     1       6.300   4.803  18.828  0.00  0.00    +0.000 A 
ATOM     28  C   UNL     1       5.909   5.485  17.656  0.00  0.00    +0.000 A 
ENDBRANCH  19  20
ENDBRANCH   6  19
TORSDOF 4
ENDMDL
MODEL 4
REMARK VINA RESULT:      -8.3      2.358      9.228
REMARK  Name = 
REMARK  5 active torsions:
REMARK  status: ('A' for Active; 'I' for Inactive)
REMARK    1  A    between atoms: C_1  and  N_2
REMARK    2  A    between atoms: C_3  and  C_5
REMARK    3  A    between atoms: N_8  and  C_9
REMARK    4  A    between atoms: C_14  and  C_16
REMARK    5  A    between atoms: C_16  and  C_17
REMARK                            x       y       z     vdW  Elec       q    Type
REMARK                         _______ _______ _______ _____ _____    ______ ____
ROOT
ATOM      1  C   UNL     1       3.505   4.729  17.613  0.00  0.00    +0.000 C 
ATOM      2  C   UNL     1       2.872   3.343  17.461  0.00  0.00    +0.000 C 
ATOM      3  C   UNL     1       1.512   3.267  18.165  0.00  0.00    +0.000 C 
ATOM      4  C   UNL     1       1.594   3.740  19.620  0.00  0.00    +0.000 C 
ATOM      5  N   UNL     1       2.206   5.071  19.694  0.00  0.00    +0.000 N 
ATOM      6  C   UNL     1       1.589   6.121  20.367  0.00  0.00    +0.000 C 
ATOM      7  O   UNL     1       0.492   5.988  20.904  0.00  0.00    +0.000 OA
ATOM      8  C   UNL     1       3.529   5.151  19.084  0.00  0.00    +0.000 C 
ENDROOT
BRANCH   1  12
ATOM      9  C   UNL     1       6.345   4.771  15.526  0.00  0.00    +0.000 A 
ATOM     10  C   UNL     1       7.007   4.907  16.774  0.00  0.00    +0.000 A 
ATOM     11  C   UNL     1       6.010   4.893  17.725  0.00  0.00    +0.000 A 
ATOM     12  N   UNL     1       4.841   4.779  17.034  0.00  0.00    +0.000 N 
ATOM     13  N   UNL     1       5.009   4.704  15.697  0.00  0.00    +0.000 NA
BRANCH   9  16
ATOM     14  C   UNL     1       6.900   3.550  12.025  0.00  0.00    +0.000 C 
ATOM     15  N   UNL     1       6.409   3.766  13.357  0.00  0.00    +0.000 N 
ATOM     16  C   UNL     1       6.975   4.703  14.196  0.00  0.00    +0.000 C 
ATOM     17  O   UNL     1       7.917   5.417  13.872  0.00  0.00    +0.000 OA
ATOM     18  H   UNL     1       5.574   3.300  13.699  0.00  0.00    +0.000 HD
ENDBRANCH   9  16
ENDBRANCH   1  12
BRANCH   6  19
ATOM     19  C   UNL     1       2.307   7.484  20.393  0.00  0.00    +0.000 C 
BRANCH  19  20
ATOM     20  C   UNL     1       1.343   8.611  20.193  0.00  0.00    +0.000 A 
ATOM     21  C   UNL     1       1.142   9.280  18.999  0.00  0.00    +0.000 A 
ATOM     22  O   UNL     1       0.295  10.324  19.155  0.00  0.00    +0.000 OA
ATOM     23  C   UNL     1      -0.068  10.347  20.463  0.00  0.00    +0.000 A 
ATOM     24  C   UNL     1      -0.850  11.337  21.056  0.00  0.00    +0.000 A 
ATOM     25  C   UNL     1      -1.082  11.213  22.428  0.00  0.00    +0.000 A 
ATOM     26  C   UNL     1      -0.625  10.099  23.133  0.00  0.00    +0.000 A 
ATOM     27  C   UNL     1       0.145   9.106  22.501  0.00  0.00    +0.000 A 
ATOM     28  C   UNL     1       0.484   9.264  21.141  0.00  0.00    +0.000 A 
ENDBRANCH  19  20
ENDBRANCH   6  19
TORSDOF 4
ENDMDL
MODEL 5
REMARK VINA RESULT:      -8.3      1.508      1.805
REMARK  Name = 
REMARK  5 active torsions:
REMARK  status: ('A' for Active; 'I' for Inactive)
REMARK    1  A    between atoms: C_1  and  N_2
REMARK    2  A    between atoms: C_3  and  C_5
REMARK    3  A    between atoms: N_8  and  C_9
REMARK    4  A    between atoms: C_14  and  C_16
REMARK    5  A    between atoms: C_16  and  C_17
REMARK                            x       y       z     vdW  Elec       q    Type
REMARK                         _______ _______ _______ _____ _____    ______ ____
ROOT
ATOM      1  C   UNL     1       2.477   6.314  19.922  0.00  0.00    +0.000 C 
ATOM      2  C   UNL     1       1.954   5.195  20.826  0.00  0.00    +0.000 C 
ATOM      3  C   UNL     1       2.625   3.855  20.505  0.00  0.00    +0.000 C 
ATOM      4  C   UNL     1       2.542   3.516  19.012  0.00  0.00    +0.000 C 
ATOM      5  N   UNL     1       3.060   4.627  18.206  0.00  0.00    +0.000 N 
ATOM      6  C   UNL     1       4.043   4.430  17.241  0.00  0.00    +0.000 C 
ATOM      7  O   UNL     1       4.542   3.324  17.042  0.00  0.00    +0.000 OA
ATOM      8  C   UNL     1       2.393   5.901  18.450  0.00  0.00    +0.000 C 
ENDROOT
BRANCH   1  12
ATOM      9  C   UNL     1       1.014   9.516  19.739  0.00  0.00    +0.000 A 
ATOM     10  C   UNL     1       0.609   9.181  21.058  0.00  0.00    +0.000 A 
ATOM     11  C   UNL     1       1.128   7.927  21.297  0.00  0.00    +0.000 A 
ATOM     12  N   UNL     1       1.773   7.569  20.152  0.00  0.00    +0.000 N 
ATOM     13  N   UNL     1       1.723   8.511  19.185  0.00  0.00    +0.000 NA
BRANCH   9  16
ATOM     14  C   UNL     1      -1.070  12.256  18.254  0.00  0.00    +0.000 C 
ATOM     15  N   UNL     1      -0.608  11.076  18.930  0.00  0.00    +0.000 N 
ATOM     16  C   UNL     1       0.734  10.772  19.022  0.00  0.00    +0.000 C 
ATOM     17  O   UNL     1       1.620  11.477  18.551  0.00  0.00    +0.000 OA
ATOM     18  H   UNL     1      -1.244  10.470  19.440  0.00  0.00    +0.000 HD
ENDBRANCH   9  16
ENDBRANCH   1  12
BRANCH   6  19
ATOM     19  C   UNL     1       4.526   5.655  16.440  0.00  0.00    +0.000 C 
BRANCH  19  20
ATOM     20  C   UNL     1       5.709   5.317  15.589  0.00  0.00    +0.000 A 
ATOM     21  C   UNL     1       7.005   5.736  15.831  0.00  0.00    +0.000 A 
ATOM     22  O   UNL     1       7.837   5.370  14.827  0.00  0.00    +0.000 OA
ATOM     23  C   UNL     1       7.085   4.704  13.913  0.00  0.00    +0.000 A 
ATOM     24  C   UNL     1       7.547   4.254  12.678  0.00  0.00    +0.000 A 
ATOM     25  C   UNL     1       6.613   3.626  11.851  0.00  0.00    +0.000 A 
ATOM     26  C   UNL     1       5.311   3.387  12.296  0.00  0.00    +0.000 A 
ATOM     27  C   UNL     1       4.881   3.836  13.557  0.00  0.00    +0.000 A 
ATOM     28  C   UNL     1       5.776   4.568  14.365  0.00  0.00    +0.000 A 
ENDBRANCH  19  20
ENDBRANCH   6  19
TORSDOF 4
ENDMDL
MODEL 6
REMARK VINA RESULT:      -8.2      2.359      3.154
REMARK  Name = 
REMARK  5 active torsions:
REMARK  status: ('A' for Active; 'I' for Inactive)
REMARK    1  A    between atoms: C_1  and  N_2
REMARK    2  A    between atoms: C_3  and  C_5
REMARK    3  A    between atoms: N_8  and  C_9
REMARK    4  A    between atoms: C_14  and  C_16
REMARK    5  A    between atoms: C_16  and  C_17
REMARK                            x       y       z     vdW  Elec       q    Type
REMARK                         _______ _______ _______ _____ _____    ______ ____
ROOT
ATOM      1  C   UNL     1       2.091   5.605  19.817  0.00  0.00    +0.000 C 
ATOM      2  C   UNL     1       1.052   4.884  20.679  0.00  0.00    +0.000 C 
ATOM      3  C   UNL     1       1.234   3.363  20.621  0.00  0.00    +0.000 C 
ATOM      4  C   UNL     1       1.286   2.848  19.178  0.00  0.00    +0.000 C 
ATOM      5  N   UNL     1       2.301   3.579  18.410  0.00  0.00    +0.000 N 
ATOM      6  C   UNL     1       3.293   2.914  17.696  0.00  0.00    +0.000 C 
ATOM      7  O   UNL     1       3.381   1.688  17.700  0.00  0.00    +0.000 OA
ATOM      8  C   UNL     1       2.112   5.025  18.401  0.00  0.00    +0.000 C 
ENDROOT
BRANCH   1  12
ATOM      9  C   UNL     1       1.317   8.976  20.501  0.00  0.00    +0.000 A 
ATOM     10  C   UNL     1       1.717   9.128  19.147  0.00  0.00    +0.000 A 
ATOM     11  C   UNL     1       2.046   7.863  18.713  0.00  0.00    +0.000 A 
ATOM     12  N   UNL     1       1.863   7.044  19.787  0.00  0.00    +0.000 N 
ATOM     13  N   UNL     1       1.421   7.688  20.889  0.00  0.00    +0.000 NA
BRANCH   9  16
ATOM     14  C   UNL     1      -0.081  12.315  21.477  0.00  0.00    +0.000 C 
ATOM     15  N   UNL     1       0.406  11.172  20.756  0.00  0.00    +0.000 N 
ATOM     16  C   UNL     1       0.842  10.036  21.406  0.00  0.00    +0.000 C 
ATOM     17  O   UNL     1       0.839   9.914  22.626  0.00  0.00    +0.000 OA
ATOM     18  H   UNL     1       0.365  11.124  19.742  0.00  0.00    +0.000 HD
ENDBRANCH   9  16
ENDBRANCH   1  12
BRANCH   6  19
ATOM     19  C   UNL     1       4.316   3.764  16.917  0.00  0.00    +0.000 C 
BRANCH  19  20
ATOM     20  C   UNL     1       5.360   4.329  17.827  0.00  0.00    +0.000 A 
ATOM     21  C   UNL     1       5.576   3.927  19.132  0.00  0.00    +0.000 A 
ATOM     22  O   UNL     1       6.508   4.699  19.739  0.00  0.00    +0.000 OA
ATOM     23  C   UNL     1       6.913   5.621  18.827  0.00  0.00    +0.000 A 
ATOM     24  C   UNL     1       7.789   6.671  19.091  0.00  0.00    +0.000 A 
ATOM     25  C   UNL     1       8.054   7.546  18.035  0.00  0.00    +0.000 A 
ATOM     26  C   UNL     1       7.532   7.309  16.762  0.00  0.00    +0.000 A 
ATOM     27  C   UNL     1       6.665   6.227  16.523  0.00  0.00    +0.000 A 
ATOM     28  C   UNL     1       6.298   5.393  17.599  0.00  0.00    +0.000 A 
ENDBRANCH  19  20
ENDBRANCH   6  19
TORSDOF 4
ENDMDL
MODEL 7
REMARK VINA RESULT:      -8.2      2.413      3.493
REMARK  Name = 
REMARK  5 active torsions:
REMARK  status: ('A' for Active; 'I' for Inactive)
REMARK    1  A    between atoms: C_1  and  N_2
REMARK    2  A    between atoms: C_3  and  C_5
REMARK    3  A    between atoms: N_8  and  C_9
REMARK    4  A    between atoms: C_14  and  C_16
REMARK    5  A    between atoms: C_16  and  C_17
REMARK                            x       y       z     vdW  Elec       q    Type
REMARK                         _______ _______ _______ _____ _____    ______ ____
ROOT
ATOM      1  C   UNL     1       2.396   5.462  20.103  0.00  0.00    +0.000 C 
ATOM      2  C   UNL     1       2.054   4.697  21.385  0.00  0.00    +0.000 C 
ATOM      3  C   UNL     1       2.482   3.228  21.291  0.00  0.00    +0.000 C 
ATOM      4  C   UNL     1       1.945   2.556  20.023  0.00  0.00    +0.000 C 
ATOM      5  N   UNL     1       2.308   3.337  18.836  0.00  0.00    +0.000 N 
ATOM      6  C   UNL     1       2.951   2.755  17.748  0.00  0.00    +0.000 C 
ATOM      7  O   UNL     1       3.270   1.567  17.746  0.00  0.00    +0.000 OA
ATOM      8  C   UNL     1       1.857   4.724  18.876  0.00  0.00    +0.000 C 
ENDROOT
BRANCH   1  12
ATOM      9  C   UNL     1       1.552   8.830  19.492  0.00  0.00    +0.000 A 
ATOM     10  C   UNL     1       0.948   8.696  20.769  0.00  0.00    +0.000 A 
ATOM     11  C   UNL     1       1.206   7.403  21.168  0.00  0.00    +0.000 A 
ATOM     12  N   UNL     1       1.903   6.833  20.145  0.00  0.00    +0.000 N 
ATOM     13  N   UNL     1       2.130   7.672  19.112  0.00  0.00    +0.000 NA
BRANCH   9  16
ATOM     14  C   UNL     1       1.120  12.455  18.638  0.00  0.00    +0.000 C 
ATOM     15  N   UNL     1       1.169  11.183  19.302  0.00  0.00    +0.000 N 
ATOM     16  C   UNL     1       1.582  10.039  18.652  0.00  0.00    +0.000 C 
ATOM     17  O   UNL     1       1.941  10.022  17.480  0.00  0.00    +0.000 OA
ATOM     18  H   UNL     1       0.986  11.094  20.298  0.00  0.00    +0.000 HD
ENDBRANCH   9  16
ENDBRANCH   1  12
BRANCH   6  19
ATOM     19  C   UNL     1       3.293   3.653  16.543  0.00  0.00    +0.000 C 
BRANCH  19  20
ATOM     20  C   UNL     1       4.752   3.977  16.503  0.00  0.00    +0.000 A 
ATOM     21  C   UNL     1       5.606   3.662  15.461  0.00  0.00    +0.000 A 
ATOM     22  O   UNL     1       6.887   3.979  15.760  0.00  0.00    +0.000 OA
ATOM     23  C   UNL     1       6.883   4.507  17.011  0.00  0.00    +0.000 A 
ATOM     24  C   UNL     1       8.022   4.864  17.729  0.00  0.00    +0.000 A 
ATOM     25  C   UNL     1       7.820   5.352  19.023  0.00  0.00    +0.000 A 
ATOM     26  C   UNL     1       6.530   5.554  19.517  0.00  0.00    +0.000 A 
ATOM     27  C   UNL     1       5.399   5.203  18.758  0.00  0.00    +0.000 A 
ATOM     28  C   UNL     1       5.581   4.608  17.492  0.00  0.00    +0.000 A 
ENDBRANCH  19  20
ENDBRANCH   6  19
TORSDOF 4
ENDMDL
MODEL 8
REMARK VINA RESULT:      -8.2      2.511      8.782
REMARK  Name = 
REMARK  5 active torsions:
REMARK  status: ('A' for Active; 'I' for Inactive)
REMARK    1  A    between atoms: C_1  and  N_2
REMARK    2  A    between atoms: C_3  and  C_5
REMARK    3  A    between atoms: N_8  and  C_9
REMARK    4  A    between atoms: C_14  and  C_16
REMARK    5  A    between atoms: C_16  and  C_17
REMARK                            x       y       z     vdW  Elec       q    Type
REMARK                         _______ _______ _______ _____ _____    ______ ____
ROOT
ATOM      1  C   UNL     1       3.663   4.472  17.539  0.00  0.00    +0.000 C 
ATOM      2  C   UNL     1       3.025   3.086  17.417  0.00  0.00    +0.000 C 
ATOM      3  C   UNL     1       1.685   3.019  18.158  0.00  0.00    +0.000 C 
ATOM      4  C   UNL     1       1.807   3.504  19.607  0.00  0.00    +0.000 C 
ATOM      5  N   UNL     1       2.423   4.835  19.651  0.00  0.00    +0.000 N 
ATOM      6  C   UNL     1       1.826   5.892  20.331  0.00  0.00    +0.000 C 
ATOM      7  O   UNL     1       0.743   5.765  20.900  0.00  0.00    +0.000 OA
ATOM      8  C   UNL     1       3.728   4.908  19.005  0.00  0.00    +0.000 C 
ENDROOT
BRANCH   1  12
ATOM      9  C   UNL     1       6.441   4.604  15.373  0.00  0.00    +0.000 A 
ATOM     10  C   UNL     1       7.144   4.548  16.604  0.00  0.00    +0.000 A 
ATOM     11  C   UNL     1       6.176   4.476  17.581  0.00  0.00    +0.000 A 
ATOM     12  N   UNL     1       4.983   4.515  16.923  0.00  0.00    +0.000 N 
ATOM     13  N   UNL     1       5.108   4.594  15.581  0.00  0.00    +0.000 NA
BRANCH   9  16
ATOM     14  C   UNL     1       7.008   3.597  11.806  0.00  0.00    +0.000 C 
ATOM     15  N   UNL     1       6.542   3.702  13.160  0.00  0.00    +0.000 N 
ATOM     16  C   UNL     1       7.027   4.662  14.023  0.00  0.00    +0.000 C 
ATOM     17  O   UNL     1       7.871   5.492  13.702  0.00  0.00    +0.000 OA
ATOM     18  H   UNL     1       5.777   3.130  13.507  0.00  0.00    +0.000 HD
ENDBRANCH   9  16
ENDBRANCH   1  12
BRANCH   6  19
ATOM     19  C   UNL     1       2.545   7.254  20.325  0.00  0.00    +0.000 C 
BRANCH  19  20
ATOM     20  C   UNL     1       1.811   8.254  19.488  0.00  0.00    +0.000 A 
ATOM     21  C   UNL     1       2.001   8.444  18.132  0.00  0.00    +0.000 A 
ATOM     22  O   UNL     1       1.280   9.495  17.675  0.00  0.00    +0.000 OA
ATOM     23  C   UNL     1       0.608  10.006  18.739  0.00  0.00    +0.000 A 
ATOM     24  C   UNL     1      -0.167  11.163  18.710  0.00  0.00    +0.000 A 
ATOM     25  C   UNL     1      -0.749  11.557  19.918  0.00  0.00    +0.000 A 
ATOM     26  C   UNL     1      -0.626  10.767  21.062  0.00  0.00    +0.000 A 
ATOM     27  C   UNL     1       0.146   9.591  21.053  0.00  0.00    +0.000 A 
ATOM     28  C   UNL     1       0.831   9.231  19.874  0.00  0.00    +0.000 A 
ENDBRANCH  19  20
ENDBRANCH   6  19
TORSDOF 4
ENDMDL
MODEL 9
REMARK VINA RESULT:      -8.2      1.982      2.473
REMARK  Name = 
REMARK  5 active torsions:
REMARK  status: ('A' for Active; 'I' for Inactive)
REMARK    1  A    between atoms: C_1  and  N_2
REMARK    2  A    between atoms: C_3  and  C_5
REMARK    3  A    between atoms: N_8  and  C_9
REMARK    4  A    between atoms: C_14  and  C_16
REMARK    5  A    between atoms: C_16  and  C_17
REMARK                            x       y       z     vdW  Elec       q    Type
REMARK                         _______ _______ _______ _____ _____    ______ ____
ROOT
ATOM      1  C   UNL     1       2.428   6.205  19.458  0.00  0.00    +0.000 C 
ATOM      2  C   UNL     1       1.932   6.020  20.895  0.00  0.00    +0.000 C 
ATOM      3  C   UNL     1       2.104   4.571  21.365  0.00  0.00    +0.000 C 
ATOM      4  C   UNL     1       1.489   3.572  20.379  0.00  0.00    +0.000 C 
ATOM      5  N   UNL     1       2.007   3.803  19.025  0.00  0.00    +0.000 N 
ATOM      6  C   UNL     1       2.565   2.774  18.274  0.00  0.00    +0.000 C 
ATOM      7  O   UNL     1       2.677   1.634  18.720  0.00  0.00    +0.000 OA
ATOM      8  C   UNL     1       1.799   5.160  18.532  0.00  0.00    +0.000 C 
ENDROOT
BRANCH   1  12
ATOM      9  C   UNL     1       1.417   9.544  18.956  0.00  0.00    +0.000 A 
ATOM     10  C   UNL     1       2.138   9.365  17.747  0.00  0.00    +0.000 A 
ATOM     11  C   UNL     1       2.600   8.068  17.780  0.00  0.00    +0.000 A 
ATOM     12  N   UNL     1       2.176   7.554  18.968  0.00  0.00    +0.000 N 
ATOM     13  N   UNL     1       1.455   8.424  19.708  0.00  0.00    +0.000 NA
BRANCH   9  16
ATOM     14  C   UNL     1      -0.708  12.612  18.598  0.00  0.00    +0.000 C 
ATOM     15  N   UNL     1       0.034  11.404  18.368  0.00  0.00    +0.000 N 
ATOM     16  C   UNL     1       0.702  10.758  19.387  0.00  0.00    +0.000 C 
ATOM     17  O   UNL     1       0.707  11.153  20.547  0.00  0.00    +0.000 OA
ATOM     18  H   UNL     1       0.022  10.934  17.468  0.00  0.00    +0.000 HD
ENDBRANCH   9  16
ENDBRANCH   1  12
BRANCH   6  19
ATOM     19  C   UNL     1       3.083   3.109  16.861  0.00  0.00    +0.000 C 
BRANCH  19  20
ATOM     20  C   UNL     1       4.485   3.628  16.903  0.00  0.00    +0.000 A 
ATOM     21  C   UNL     1       5.168   3.974  18.055  0.00  0.00    +0.000 A 
ATOM     22  O   UNL     1       6.374   4.519  17.769  0.00  0.00    +0.000 OA
ATOM     23  C   UNL     1       6.490   4.536  16.416  0.00  0.00    +0.000 A 
ATOM     24  C   UNL     1       7.543   5.118  15.713  0.00  0.00    +0.000 A 
ATOM     25  C   UNL     1       7.466   5.073  14.319  0.00  0.00    +0.000 A 
ATOM     26  C   UNL     1       6.426   4.394  13.682  0.00  0.00    +0.000 A 
ATOM     27  C   UNL     1       5.388   3.798  14.420  0.00  0.00    +0.000 A 
ATOM     28  C   UNL     1       5.388   3.924  15.825  0.00  0.00    +0.000 A 
ENDBRANCH  19  20
ENDBRANCH   6  19
TORSDOF 4
ENDMDL
