MODEL 1
REMARK VINA RESULT:      -7.1      0.000      0.000
REMARK  Name = 
REMARK  14 active torsions:
REMARK  status: ('A' for Active; 'I' for Inactive)
REMARK    1  A    between atoms: C_1  and  C_2
REMARK    2  A    between atoms: C_2  and  O_3
REMARK    3  A    between atoms: O_3  and  C_4
REMARK    4  A    between atoms: C_4  and  C_6
REMARK    5  A    between atoms: C_9  and  N_10
REMARK    6  A    between atoms: C_11  and  C_13
REMARK    7  A    between atoms: C_13  and  S_14
REMARK    8  A    between atoms: S_14  and  C_15
REMARK    9  A    between atoms: C_18  and  C_19
REMARK   10  A    between atoms: C_19  and  S_20
REMARK   11  A    between atoms: S_20  and  C_21
REMARK   12  A    between atoms: C_21  and  C_22
REMARK   13  A    between atoms: N_28  and  C_29
REMARK   14  A    between atoms: C_29  and  C_30
REMARK                            x       y       z     vdW  Elec       q    Type
REMARK                         _______ _______ _______ _____ _____    ______ ____
ROOT
ATOM      1  S   UNL     1       2.092   8.638  17.629  0.00  0.00    +0.000 S 
ENDROOT
BRANCH   1   2
ATOM      2  C   UNL     1       2.859   7.311  18.425  0.00  0.00    +0.000 A 
ATOM      3  N   UNL     1       2.535   6.819  19.596  0.00  0.00    +0.000 NA
ATOM      4  N   UNL     1       3.251   5.663  19.774  0.00  0.00    +0.000 NA
ATOM      5  C   UNL     1       4.044   5.496  18.729  0.00  0.00    +0.000 A 
ATOM      6  N   UNL     1       3.888   6.580  17.887  0.00  0.00    +0.000 N 
BRANCH   6   7
ATOM      7  C   UNL     1       4.737   6.957  16.776  0.00  0.00    +0.000 C 
ATOM      8  C   UNL     1       6.187   7.222  17.143  0.00  0.00    +0.000 C 
ENDBRANCH   6   7
BRANCH   5   9
ATOM      9  C   UNL     1       4.902   4.295  18.474  0.00  0.00    +0.000 C 
BRANCH   9  10
ATOM     10  S   UNL     1       4.250   3.269  17.118  0.00  0.00    +0.000 S 
BRANCH  10  11
ATOM     11  C   UNL     1       3.696   1.809  18.068  0.00  0.00    +0.000 C 
BRANCH  11  12
ATOM     12  C   UNL     1       2.808   2.210  19.226  0.00  0.00    +0.000 A 
ATOM     13  C   UNL     1       1.481   2.612  19.011  0.00  0.00    +0.000 A 
ATOM     14  C   UNL     1       0.669   3.003  20.081  0.00  0.00    +0.000 A 
ATOM     15  C   UNL     1       1.172   3.001  21.380  0.00  0.00    +0.000 A 
ATOM     16  C   UNL     1       2.488   2.601  21.608  0.00  0.00    +0.000 A 
ATOM     17  C   UNL     1       3.299   2.210  20.541  0.00  0.00    +0.000 A 
ENDBRANCH  11  12
ENDBRANCH  10  11
ENDBRANCH   9  10
ENDBRANCH   5   9
ENDBRANCH   1   2
BRANCH   1  18
ATOM     18  C   UNL     1       1.796   9.802  18.991  0.00  0.00    +0.000 C 
BRANCH  18  20
ATOM     19  N   UNL     1      -0.412  10.550  18.293  0.00  0.00    +0.000 N 
ATOM     20  C   UNL     1       0.315   9.948  19.310  0.00  0.00    +0.000 C 
ATOM     21  O   UNL     1      -0.133   9.537  20.378  0.00  0.00    +0.000 OA
ATOM     22  H   UNL     1       0.136  10.991  17.555  0.00  0.00    +0.000 HD
BRANCH  19  26
ATOM     23  C   UNL     1      -4.546  11.410  18.171  0.00  0.00    +0.000 A 
ATOM     24  C   UNL     1      -3.709  12.138  19.024  0.00  0.00    +0.000 A 
ATOM     25  C   UNL     1      -2.343  11.860  19.088  0.00  0.00    +0.000 A 
ATOM     26  C   UNL     1      -1.785  10.865  18.288  0.00  0.00    +0.000 A 
ATOM     27  C   UNL     1      -2.621  10.139  17.427  0.00  0.00    +0.000 A 
ATOM     28  C   UNL     1      -3.997  10.404  17.369  0.00  0.00    +0.000 A 
BRANCH  23  29
ATOM     29  C   UNL     1      -5.999  11.716  18.226  0.00  0.00    +0.000 C 
ATOM     30  O   UNL     1      -6.863  10.856  18.150  0.00  0.00    +0.000 OA
BRANCH  29  31
ATOM     31  O   UNL     1      -6.206  13.055  18.250  0.00  0.00    +0.000 OA
BRANCH  31  33
ATOM     32  C   UNL     1      -7.301  14.279  16.520  0.00  0.00    +0.000 C 
ATOM     33  C   UNL     1      -7.500  13.466  17.786  0.00  0.00    +0.000 C 
ENDBRANCH  31  33
ENDBRANCH  29  31
ENDBRANCH  23  29
ENDBRANCH  19  26
ENDBRANCH  18  20
ENDBRANCH   1  18
TORSDOF 12
ENDMDL
MODEL 2
REMARK VINA RESULT:      -7.1      3.958      7.750
REMARK  Name = 
REMARK  14 active torsions:
REMARK  status: ('A' for Active; 'I' for Inactive)
REMARK    1  A    between atoms: C_1  and  C_2
REMARK    2  A    between atoms: C_2  and  O_3
REMARK    3  A    between atoms: O_3  and  C_4
REMARK    4  A    between atoms: C_4  and  C_6
REMARK    5  A    between atoms: C_9  and  N_10
REMARK    6  A    between atoms: C_11  and  C_13
REMARK    7  A    between atoms: C_13  and  S_14
REMARK    8  A    between atoms: S_14  and  C_15
REMARK    9  A    between atoms: C_18  and  C_19
REMARK   10  A    between atoms: C_19  and  S_20
REMARK   11  A    between atoms: S_20  and  C_21
REMARK   12  A    between atoms: C_21  and  C_22
REMARK   13  A    between atoms: N_28  and  C_29
REMARK   14  A    between atoms: C_29  and  C_30
REMARK                            x       y       z     vdW  Elec       q    Type
REMARK                         _______ _______ _______ _____ _____    ______ ____
ROOT
ATOM      1  S   UNL     1       4.536   3.343  17.751  0.00  0.00    +0.000 S 
ENDROOT
BRANCH   1   2
ATOM      2  C   UNL     1       5.607   4.632  18.173  0.00  0.00    +0.000 A 
ATOM      3  N   UNL     1       6.135   4.843  19.354  0.00  0.00    +0.000 NA
ATOM      4  N   UNL     1       7.068   5.839  19.220  0.00  0.00    +0.000 NA
ATOM      5  C   UNL     1       7.056   6.259  17.966  0.00  0.00    +0.000 A 
ATOM      6  N   UNL     1       6.067   5.573  17.287  0.00  0.00    +0.000 N 
BRANCH   6   7
ATOM      7  C   UNL     1       5.516   5.888  15.986  0.00  0.00    +0.000 C 
ATOM      8  C   UNL     1       6.088   5.073  14.838  0.00  0.00    +0.000 C 
ENDBRANCH   6   7
BRANCH   5   9
ATOM      9  C   UNL     1       8.007   7.253  17.374  0.00  0.00    +0.000 C 
BRANCH   9  10
ATOM     10  S   UNL     1       7.515   8.968  17.740  0.00  0.00    +0.000 S 
BRANCH  10  11
ATOM     11  C   UNL     1       8.939   9.489  18.761  0.00  0.00    +0.000 C 
BRANCH  11  12
ATOM     12  C   UNL     1       9.445  10.854  18.345  0.00  0.00    +0.000 A 
ATOM     13  C   UNL     1       8.556  11.855  17.925  0.00  0.00    +0.000 A 
ATOM     14  C   UNL     1       9.029  13.107  17.520  0.00  0.00    +0.000 A 
ATOM     15  C   UNL     1      10.396  13.377  17.526  0.00  0.00    +0.000 A 
ATOM     16  C   UNL     1      11.290  12.392  17.945  0.00  0.00    +0.000 A 
ATOM     17  C   UNL     1      10.819  11.141  18.350  0.00  0.00    +0.000 A 
ENDBRANCH  11  12
ENDBRANCH  10  11
ENDBRANCH   9  10
ENDBRANCH   5   9
ENDBRANCH   1   2
BRANCH   1  18
ATOM     18  C   UNL     1       3.137   3.602  18.879  0.00  0.00    +0.000 C 
BRANCH  18  20
ATOM     19  N   UNL     1       2.808   5.996  19.170  0.00  0.00    +0.000 N 
ATOM     20  C   UNL     1       2.343   4.854  18.533  0.00  0.00    +0.000 C 
ATOM     21  O   UNL     1       1.402   4.793  17.744  0.00  0.00    +0.000 OA
ATOM     22  H   UNL     1       3.477   5.844  19.923  0.00  0.00    +0.000 HD
BRANCH  19  26
ATOM     23  C   UNL     1       1.155   9.882  19.074  0.00  0.00    +0.000 A 
ATOM     24  C   UNL     1       1.751   9.352  17.924  0.00  0.00    +0.000 A 
ATOM     25  C   UNL     1       2.314   8.075  17.940  0.00  0.00    +0.000 A 
ATOM     26  C   UNL     1       2.275   7.298  19.096  0.00  0.00    +0.000 A 
ATOM     27  C   UNL     1       1.671   7.825  20.247  0.00  0.00    +0.000 A 
ATOM     28  C   UNL     1       1.117   9.113  20.242  0.00  0.00    +0.000 A 
BRANCH  23  29
ATOM     29  C   UNL     1       0.655  11.278  18.992  0.00  0.00    +0.000 C 
ATOM     30  O   UNL     1      -0.528  11.568  19.088  0.00  0.00    +0.000 OA
BRANCH  29  31
ATOM     31  O   UNL     1       1.662  12.132  18.686  0.00  0.00    +0.000 OA
BRANCH  31  33
ATOM     32  C   UNL     1       2.760  13.662  20.151  0.00  0.00    +0.000 C 
ATOM     33  C   UNL     1       1.541  13.434  19.276  0.00  0.00    +0.000 C 
ENDBRANCH  31  33
ENDBRANCH  29  31
ENDBRANCH  23  29
ENDBRANCH  19  26
ENDBRANCH  18  20
ENDBRANCH   1  18
TORSDOF 12
ENDMDL
MODEL 3
REMARK VINA RESULT:      -7.0      6.448      9.883
REMARK  Name = 
REMARK  14 active torsions:
REMARK  status: ('A' for Active; 'I' for Inactive)
REMARK    1  A    between atoms: C_1  and  C_2
REMARK    2  A    between atoms: C_2  and  O_3
REMARK    3  A    between atoms: O_3  and  C_4
REMARK    4  A    between atoms: C_4  and  C_6
REMARK    5  A    between atoms: C_9  and  N_10
REMARK    6  A    between atoms: C_11  and  C_13
REMARK    7  A    between atoms: C_13  and  S_14
REMARK    8  A    between atoms: S_14  and  C_15
REMARK    9  A    between atoms: C_18  and  C_19
REMARK   10  A    between atoms: C_19  and  S_20
REMARK   11  A    between atoms: S_20  and  C_21
REMARK   12  A    between atoms: C_21  and  C_22
REMARK   13  A    between atoms: N_28  and  C_29
REMARK   14  A    between atoms: C_29  and  C_30
REMARK                            x       y       z     vdW  Elec       q    Type
REMARK                         _______ _______ _______ _____ _____    ______ ____
ROOT
ATOM      1  S   UNL     1       6.178   6.551  17.520  0.00  0.00    +0.000 S 
ENDROOT
BRANCH   1   2
ATOM      2  C   UNL     1       5.776   5.073  18.320  0.00  0.00    +0.000 A 
ATOM      3  N   UNL     1       6.022   4.779  19.573  0.00  0.00    +0.000 NA
ATOM      4  N   UNL     1       5.376   3.604  19.859  0.00  0.00    +0.000 NA
ATOM      5  C   UNL     1       4.789   3.169  18.757  0.00  0.00    +0.000 A 
ATOM      6  N   UNL     1       5.101   4.036  17.728  0.00  0.00    +0.000 N 
BRANCH   6   7
ATOM      7  C   UNL     1       4.909   3.818  16.309  0.00  0.00    +0.000 C 
ATOM      8  C   UNL     1       6.191   3.747  15.496  0.00  0.00    +0.000 C 
ENDBRANCH   6   7
BRANCH   5   9
ATOM      9  C   UNL     1       3.881   1.982  18.669  0.00  0.00    +0.000 C 
BRANCH   9  10
ATOM     10  S   UNL     1       2.284   2.403  17.901  0.00  0.00    +0.000 S 
BRANCH  10  11
ATOM     11  C   UNL     1       1.491   3.284  19.294  0.00  0.00    +0.000 C 
BRANCH  11  12
ATOM     12  C   UNL     1       1.805   4.764  19.261  0.00  0.00    +0.000 A 
ATOM     13  C   UNL     1       1.877   5.512  20.445  0.00  0.00    +0.000 A 
ATOM     14  C   UNL     1       2.146   6.884  20.409  0.00  0.00    +0.000 A 
ATOM     15  C   UNL     1       2.345   7.529  19.190  0.00  0.00    +0.000 A 
ATOM     16  C   UNL     1       2.279   6.796  18.005  0.00  0.00    +0.000 A 
ATOM     17  C   UNL     1       2.011   5.426  18.040  0.00  0.00    +0.000 A 
ENDBRANCH  11  12
ENDBRANCH  10  11
ENDBRANCH   9  10
ENDBRANCH   5   9
ENDBRANCH   1   2
BRANCH   1  18
ATOM     18  C   UNL     1       7.792   6.967  18.240  0.00  0.00    +0.000 C 
BRANCH  18  20
ATOM     19  N   UNL     1       8.893   8.946  19.128  0.00  0.00    +0.000 N 
ATOM     20  C   UNL     1       8.127   8.444  18.087  0.00  0.00    +0.000 C 
ATOM     21  O   UNL     1       7.737   9.069  17.103  0.00  0.00    +0.000 OA
ATOM     22  H   UNL     1       8.979   8.347  19.948  0.00  0.00    +0.000 HD
BRANCH  19  26
ATOM     23  C   UNL     1      10.256  12.924  19.532  0.00  0.00    +0.000 A 
ATOM     24  C   UNL     1       9.864  12.205  20.667  0.00  0.00    +0.000 A 
ATOM     25  C   UNL     1       9.399  10.895  20.552  0.00  0.00    +0.000 A 
ATOM     26  C   UNL     1       9.335  10.272  19.307  0.00  0.00    +0.000 A 
ATOM     27  C   UNL     1       9.735  10.989  18.170  0.00  0.00    +0.000 A 
ATOM     28  C   UNL     1      10.189  12.312  18.277  0.00  0.00    +0.000 A 
BRANCH  23  29
ATOM     29  C   UNL     1      10.660  14.339  19.735  0.00  0.00    +0.000 C 
ATOM     30  O   UNL     1      10.679  15.162  18.833  0.00  0.00    +0.000 OA
BRANCH  29  31
ATOM     31  O   UNL     1      11.103  14.534  21.001  0.00  0.00    +0.000 OA
BRANCH  31  33
ATOM     32  C   UNL     1       9.400  15.484  22.377  0.00  0.00    +0.000 C 
ATOM     33  C   UNL     1      10.674  15.766  21.600  0.00  0.00    +0.000 C 
ENDBRANCH  31  33
ENDBRANCH  29  31
ENDBRANCH  23  29
ENDBRANCH  19  26
ENDBRANCH  18  20
ENDBRANCH   1  18
TORSDOF 12
ENDMDL
MODEL 4
REMARK VINA RESULT:      -6.9      6.382     10.181
REMARK  Name = 
REMARK  14 active torsions:
REMARK  status: ('A' for Active; 'I' for Inactive)
REMARK    1  A    between atoms: C_1  and  C_2
REMARK    2  A    between atoms: C_2  and  O_3
REMARK    3  A    between atoms: O_3  and  C_4
REMARK    4  A    between atoms: C_4  and  C_6
REMARK    5  A    between atoms: C_9  and  N_10
REMARK    6  A    between atoms: C_11  and  C_13
REMARK    7  A    between atoms: C_13  and  S_14
REMARK    8  A    between atoms: S_14  and  C_15
REMARK    9  A    between atoms: C_18  and  C_19
REMARK   10  A    between atoms: C_19  and  S_20
REMARK   11  A    between atoms: S_20  and  C_21
REMARK   12  A    between atoms: C_21  and  C_22
REMARK   13  A    between atoms: N_28  and  C_29
REMARK   14  A    between atoms: C_29  and  C_30
REMARK                            x       y       z     vdW  Elec       q    Type
REMARK                         _______ _______ _______ _____ _____    ______ ____
ROOT
ATOM      1  S   UNL     1       7.273   7.102  17.326  0.00  0.00    +0.000 S 
ENDROOT
BRANCH   1   2
ATOM      2  C   UNL     1       6.501   5.733  18.042  0.00  0.00    +0.000 A 
ATOM      3  N   UNL     1       6.243   5.568  19.317  0.00  0.00    +0.000 NA
ATOM      4  N   UNL     1       5.456   4.452  19.442  0.00  0.00    +0.000 NA
ATOM      5  C   UNL     1       5.291   3.920  18.242  0.00  0.00    +0.000 A 
ATOM      6  N   UNL     1       6.022   4.660  17.333  0.00  0.00    +0.000 N 
BRANCH   6   7
ATOM      7  C   UNL     1       6.355   4.296  15.972  0.00  0.00    +0.000 C 
ATOM      8  C   UNL     1       5.432   4.876  14.914  0.00  0.00    +0.000 C 
ENDBRANCH   6   7
BRANCH   5   9
ATOM      9  C   UNL     1       4.399   2.760  17.923  0.00  0.00    +0.000 C 
BRANCH   9  10
ATOM     10  S   UNL     1       2.794   3.301  17.253  0.00  0.00    +0.000 S 
BRANCH  10  11
ATOM     11  C   UNL     1       1.898   3.627  18.813  0.00  0.00    +0.000 C 
BRANCH  11  12
ATOM     12  C   UNL     1       1.934   5.097  19.171  0.00  0.00    +0.000 A 
ATOM     13  C   UNL     1       2.362   6.056  18.241  0.00  0.00    +0.000 A 
ATOM     14  C   UNL     1       2.414   7.411  18.582  0.00  0.00    +0.000 A 
ATOM     15  C   UNL     1       2.043   7.829  19.858  0.00  0.00    +0.000 A 
ATOM     16  C   UNL     1       1.613   6.886  20.792  0.00  0.00    +0.000 A 
ATOM     17  C   UNL     1       1.559   5.533  20.452  0.00  0.00    +0.000 A 
ENDBRANCH  11  12
ENDBRANCH  10  11
ENDBRANCH   9  10
ENDBRANCH   5   9
ENDBRANCH   1   2
BRANCH   1  18
ATOM     18  C   UNL     1       8.259   7.766  18.699  0.00  0.00    +0.000 C 
BRANCH  18  20
ATOM     19  N   UNL     1       9.461   9.742  19.455  0.00  0.00    +0.000 N 
ATOM     20  C   UNL     1       8.548   9.252  18.534  0.00  0.00    +0.000 C 
ATOM     21  O   UNL     1       8.002   9.893  17.638  0.00  0.00    +0.000 OA
ATOM     22  H   UNL     1       9.680   9.125  20.237  0.00  0.00    +0.000 HD
BRANCH  19  26
ATOM     23  C   UNL     1      10.925  13.687  19.826  0.00  0.00    +0.000 A 
ATOM     24  C   UNL     1       9.701  13.342  20.410  0.00  0.00    +0.000 A 
ATOM     25  C   UNL     1       9.195  12.048  20.287  0.00  0.00    +0.000 A 
ATOM     26  C   UNL     1       9.909  11.070  19.598  0.00  0.00    +0.000 A 
ATOM     27  C   UNL     1      11.140  11.412  19.018  0.00  0.00    +0.000 A 
ATOM     28  C   UNL     1      11.647  12.716  19.125  0.00  0.00    +0.000 A 
BRANCH  23  29
ATOM     29  C   UNL     1      11.350  15.106  19.935  0.00  0.00    +0.000 C 
ATOM     30  O   UNL     1      11.266  15.749  20.970  0.00  0.00    +0.000 OA
BRANCH  29  31
ATOM     31  O   UNL     1      11.716  15.592  18.724  0.00  0.00    +0.000 OA
BRANCH  31  33
ATOM     32  C   UNL     1      10.283  17.306  17.887  0.00  0.00    +0.000 C 
ATOM     33  C   UNL     1      10.625  15.829  17.822  0.00  0.00    +0.000 C 
ENDBRANCH  31  33
ENDBRANCH  29  31
ENDBRANCH  23  29
ENDBRANCH  19  26
ENDBRANCH  18  20
ENDBRANCH   1  18
TORSDOF 12
ENDMDL
MODEL 5
REMARK VINA RESULT:      -6.9      3.721     10.267
REMARK  Name = 
REMARK  14 active torsions:
REMARK  status: ('A' for Active; 'I' for Inactive)
REMARK    1  A    between atoms: C_1  and  C_2
REMARK    2  A    between atoms: C_2  and  O_3
REMARK    3  A    between atoms: O_3  and  C_4
REMARK    4  A    between atoms: C_4  and  C_6
REMARK    5  A    between atoms: C_9  and  N_10
REMARK    6  A    between atoms: C_11  and  C_13
REMARK    7  A    between atoms: C_13  and  S_14
REMARK    8  A    between atoms: S_14  and  C_15
REMARK    9  A    between atoms: C_18  and  C_19
REMARK   10  A    between atoms: C_19  and  S_20
REMARK   11  A    between atoms: S_20  and  C_21
REMARK   12  A    between atoms: C_21  and  C_22
REMARK   13  A    between atoms: N_28  and  C_29
REMARK   14  A    between atoms: C_29  and  C_30
REMARK                            x       y       z     vdW  Elec       q    Type
REMARK                         _______ _______ _______ _____ _____    ______ ____
ROOT
ATOM      1  S   UNL     1      -0.942  11.101  22.886  0.00  0.00    +0.000 S 
ENDROOT
BRANCH   1   2
ATOM      2  C   UNL     1      -1.854  12.055  21.772  0.00  0.00    +0.000 A 
ATOM      3  N   UNL     1      -1.451  12.469  20.596  0.00  0.00    +0.000 NA
ATOM      4  N   UNL     1      -2.531  13.022  19.957  0.00  0.00    +0.000 NA
ATOM      5  C   UNL     1      -3.567  12.987  20.777  0.00  0.00    +0.000 A 
ATOM      6  N   UNL     1      -3.149  12.459  21.984  0.00  0.00    +0.000 N 
BRANCH   6   7
ATOM      7  C   UNL     1      -3.859  12.482  23.245  0.00  0.00    +0.000 C 
ATOM      8  C   UNL     1      -3.555  13.682  24.126  0.00  0.00    +0.000 C 
ENDBRANCH   6   7
BRANCH   5   9
ATOM      9  C   UNL     1      -4.968  13.382  20.424  0.00  0.00    +0.000 C 
BRANCH   9  10
ATOM     10  S   UNL     1      -5.916  11.985  19.739  0.00  0.00    +0.000 S 
BRANCH  10  11
ATOM     11  C   UNL     1      -5.704  12.312  17.952  0.00  0.00    +0.000 C 
BRANCH  11  12
ATOM     12  C   UNL     1      -4.639  11.419  17.352  0.00  0.00    +0.000 A 
ATOM     13  C   UNL     1      -4.029  10.412  18.114  0.00  0.00    +0.000 A 
ATOM     14  C   UNL     1      -3.030   9.603  17.563  0.00  0.00    +0.000 A 
ATOM     15  C   UNL     1      -2.624   9.790  16.243  0.00  0.00    +0.000 A 
ATOM     16  C   UNL     1      -3.225  10.786  15.473  0.00  0.00    +0.000 A 
ATOM     17  C   UNL     1      -4.222  11.593  16.023  0.00  0.00    +0.000 A 
ENDBRANCH  11  12
ENDBRANCH  10  11
ENDBRANCH   9  10
ENDBRANCH   5   9
ENDBRANCH   1   2
BRANCH   1  18
ATOM     18  C   UNL     1       0.530  10.658  21.919  0.00  0.00    +0.000 C 
BRANCH  18  20
ATOM     19  N   UNL     1       1.607   8.840  20.713  0.00  0.00    +0.000 N 
ATOM     20  C   UNL     1       0.460   9.234  21.386  0.00  0.00    +0.000 C 
ATOM     21  O   UNL     1      -0.540   8.546  21.583  0.00  0.00    +0.000 OA
ATOM     22  H   UNL     1       2.267   9.583  20.484  0.00  0.00    +0.000 HD
BRANCH  19  26
ATOM     23  C   UNL     1       2.343   5.216  18.671  0.00  0.00    +0.000 A 
ATOM     24  C   UNL     1       1.906   5.189  20.000  0.00  0.00    +0.000 A 
ATOM     25  C   UNL     1       1.671   6.375  20.696  0.00  0.00    +0.000 A 
ATOM     26  C   UNL     1       1.847   7.609  20.072  0.00  0.00    +0.000 A 
ATOM     27  C   UNL     1       2.277   7.638  18.737  0.00  0.00    +0.000 A 
ATOM     28  C   UNL     1       2.530   6.449  18.037  0.00  0.00    +0.000 A 
BRANCH  23  29
ATOM     29  C   UNL     1       2.648   3.910  18.033  0.00  0.00    +0.000 C 
ATOM     30  O   UNL     1       1.875   3.341  17.277  0.00  0.00    +0.000 OA
BRANCH  29  31
ATOM     31  O   UNL     1       3.820   3.411  18.498  0.00  0.00    +0.000 OA
BRANCH  31  33
ATOM     32  C   UNL     1       5.065   3.962  16.538  0.00  0.00    +0.000 C 
ATOM     33  C   UNL     1       4.987   4.113  18.047  0.00  0.00    +0.000 C 
ENDBRANCH  31  33
ENDBRANCH  29  31
ENDBRANCH  23  29
ENDBRANCH  19  26
ENDBRANCH  18  20
ENDBRANCH   1  18
TORSDOF 12
ENDMDL
MODEL 6
REMARK VINA RESULT:      -6.8      0.940      1.468
REMARK  Name = 
REMARK  14 active torsions:
REMARK  status: ('A' for Active; 'I' for Inactive)
REMARK    1  A    between atoms: C_1  and  C_2
REMARK    2  A    between atoms: C_2  and  O_3
REMARK    3  A    between atoms: O_3  and  C_4
REMARK    4  A    between atoms: C_4  and  C_6
REMARK    5  A    between atoms: C_9  and  N_10
REMARK    6  A    between atoms: C_11  and  C_13
REMARK    7  A    between atoms: C_13  and  S_14
REMARK    8  A    between atoms: S_14  and  C_15
REMARK    9  A    between atoms: C_18  and  C_19
REMARK   10  A    between atoms: C_19  and  S_20
REMARK   11  A    between atoms: S_20  and  C_21
REMARK   12  A    between atoms: C_21  and  C_22
REMARK   13  A    between atoms: N_28  and  C_29
REMARK   14  A    between atoms: C_29  and  C_30
REMARK                            x       y       z     vdW  Elec       q    Type
REMARK                         _______ _______ _______ _____ _____    ______ ____
ROOT
ATOM      1  S   UNL     1       1.947   8.488  17.487  0.00  0.00    +0.000 S 
ENDROOT
BRANCH   1   2
ATOM      2  C   UNL     1       2.784   7.275  18.390  0.00  0.00    +0.000 A 
ATOM      3  N   UNL     1       2.480   6.860  19.595  0.00  0.00    +0.000 NA
ATOM      4  N   UNL     1       3.261   5.766  19.867  0.00  0.00    +0.000 NA
ATOM      5  C   UNL     1       4.070   5.563  18.842  0.00  0.00    +0.000 A 
ATOM      6  N   UNL     1       3.858   6.566  17.915  0.00  0.00    +0.000 N 
BRANCH   6   7
ATOM      7  C   UNL     1       4.692   6.902  16.780  0.00  0.00    +0.000 C 
ATOM      8  C   UNL     1       6.155   7.138  17.113  0.00  0.00    +0.000 C 
ENDBRANCH   6   7
BRANCH   5   9
ATOM      9  C   UNL     1       4.999   4.398  18.686  0.00  0.00    +0.000 C 
BRANCH   9  10
ATOM     10  S   UNL     1       4.529   3.337  17.283  0.00  0.00    +0.000 S 
BRANCH  10  11
ATOM     11  C   UNL     1       3.917   1.872  18.191  0.00  0.00    +0.000 C 
BRANCH  11  12
ATOM     12  C   UNL     1       2.942   2.266  19.279  0.00  0.00    +0.000 A 
ATOM     13  C   UNL     1       1.643   2.691  18.963  0.00  0.00    +0.000 A 
ATOM     14  C   UNL     1       0.751   3.076  19.970  0.00  0.00    +0.000 A 
ATOM     15  C   UNL     1       1.145   3.044  21.306  0.00  0.00    +0.000 A 
ATOM     16  C   UNL     1       2.432   2.620  21.634  0.00  0.00    +0.000 A 
ATOM     17  C   UNL     1       3.323   2.236  20.629  0.00  0.00    +0.000 A 
ENDBRANCH  11  12
ENDBRANCH  10  11
ENDBRANCH   9  10
ENDBRANCH   5   9
ENDBRANCH   1   2
BRANCH   1  18
ATOM     18  C   UNL     1       2.238   9.987  18.470  0.00  0.00    +0.000 C 
BRANCH  18  20
ATOM     19  N   UNL     1      -0.169  10.175  18.165  0.00  0.00    +0.000 N 
ATOM     20  C   UNL     1       0.953  10.758  18.735  0.00  0.00    +0.000 C 
ATOM     21  O   UNL     1       0.974  11.785  19.412  0.00  0.00    +0.000 OA
ATOM     22  H   UNL     1       0.010   9.432  17.490  0.00  0.00    +0.000 HD
BRANCH  19  26
ATOM     23  C   UNL     1      -4.166  11.542  18.124  0.00  0.00    +0.000 A 
ATOM     24  C   UNL     1      -3.254  12.088  19.033  0.00  0.00    +0.000 A 
ATOM     25  C   UNL     1      -1.933  11.641  19.071  0.00  0.00    +0.000 A 
ATOM     26  C   UNL     1      -1.493  10.655  18.189  0.00  0.00    +0.000 A 
ATOM     27  C   UNL     1      -2.404  10.111  17.272  0.00  0.00    +0.000 A 
ATOM     28  C   UNL     1      -3.738  10.546  17.239  0.00  0.00    +0.000 A 
BRANCH  23  29
ATOM     29  C   UNL     1      -5.571  12.017  18.207  0.00  0.00    +0.000 C 
ATOM     30  O   UNL     1      -5.868  13.177  18.447  0.00  0.00    +0.000 OA
BRANCH  29  31
ATOM     31  O   UNL     1      -6.435  10.979  18.101  0.00  0.00    +0.000 OA
BRANCH  31  33
ATOM     32  C   UNL     1      -6.851   9.065  19.464  0.00  0.00    +0.000 C 
ATOM     33  C   UNL     1      -7.028  10.567  19.341  0.00  0.00    +0.000 C 
ENDBRANCH  31  33
ENDBRANCH  29  31
ENDBRANCH  23  29
ENDBRANCH  19  26
ENDBRANCH  18  20
ENDBRANCH   1  18
TORSDOF 12
ENDMDL
MODEL 7
REMARK VINA RESULT:      -6.7      3.121      6.214
REMARK  Name = 
REMARK  14 active torsions:
REMARK  status: ('A' for Active; 'I' for Inactive)
REMARK    1  A    between atoms: C_1  and  C_2
REMARK    2  A    between atoms: C_2  and  O_3
REMARK    3  A    between atoms: O_3  and  C_4
REMARK    4  A    between atoms: C_4  and  C_6
REMARK    5  A    between atoms: C_9  and  N_10
REMARK    6  A    between atoms: C_11  and  C_13
REMARK    7  A    between atoms: C_13  and  S_14
REMARK    8  A    between atoms: S_14  and  C_15
REMARK    9  A    between atoms: C_18  and  C_19
REMARK   10  A    between atoms: C_19  and  S_20
REMARK   11  A    between atoms: S_20  and  C_21
REMARK   12  A    between atoms: C_21  and  C_22
REMARK   13  A    between atoms: N_28  and  C_29
REMARK   14  A    between atoms: C_29  and  C_30
REMARK                            x       y       z     vdW  Elec       q    Type
REMARK                         _______ _______ _______ _____ _____    ______ ____
ROOT
ATOM      1  S   UNL     1       3.419   2.586  20.040  0.00  0.00    +0.000 S 
ENDROOT
BRANCH   1   2
ATOM      2  C   UNL     1       4.434   3.921  19.623  0.00  0.00    +0.000 A 
ATOM      3  N   UNL     1       5.515   4.300  20.259  0.00  0.00    +0.000 NA
ATOM      4  N   UNL     1       6.127   5.265  19.501  0.00  0.00    +0.000 NA
ATOM      5  C   UNL     1       5.378   5.499  18.436  0.00  0.00    +0.000 A 
ATOM      6  N   UNL     1       4.239   4.723  18.527  0.00  0.00    +0.000 N 
BRANCH   6   7
ATOM      7  C   UNL     1       3.029   4.847  17.741  0.00  0.00    +0.000 C 
ATOM      8  C   UNL     1       2.664   3.614  16.933  0.00  0.00    +0.000 C 
ENDBRANCH   6   7
BRANCH   5   9
ATOM      9  C   UNL     1       5.749   6.395  17.295  0.00  0.00    +0.000 C 
BRANCH   9  10
ATOM     10  S   UNL     1       7.227   5.799  16.413  0.00  0.00    +0.000 S 
BRANCH  10  11
ATOM     11  C   UNL     1       6.576   4.228  15.741  0.00  0.00    +0.000 C 
BRANCH  11  12
ATOM     12  C   UNL     1       6.648   4.204  14.229  0.00  0.00    +0.000 A 
ATOM     13  C   UNL     1       5.830   3.344  13.482  0.00  0.00    +0.000 A 
ATOM     14  C   UNL     1       5.915   3.309  12.086  0.00  0.00    +0.000 A 
ATOM     15  C   UNL     1       6.821   4.130  11.417  0.00  0.00    +0.000 A 
ATOM     16  C   UNL     1       7.638   4.992  12.148  0.00  0.00    +0.000 A 
ATOM     17  C   UNL     1       7.553   5.028  13.541  0.00  0.00    +0.000 A 
ENDBRANCH  11  12
ENDBRANCH  10  11
ENDBRANCH   9  10
ENDBRANCH   5   9
ENDBRANCH   1   2
BRANCH   1  18
ATOM     18  C   UNL     1       2.341   3.292  21.320  0.00  0.00    +0.000 C 
BRANCH  18  20
ATOM     19  N   UNL     1       2.142   5.701  21.047  0.00  0.00    +0.000 N 
ATOM     20  C   UNL     1       1.537   4.477  20.805  0.00  0.00    +0.000 C 
ATOM     21  O   UNL     1       0.468   4.296  20.225  0.00  0.00    +0.000 OA
ATOM     22  H   UNL     1       2.931   5.688  21.693  0.00  0.00    +0.000 HD
BRANCH  19  26
ATOM     23  C   UNL     1       0.742   9.549  20.009  0.00  0.00    +0.000 A 
ATOM     24  C   UNL     1       0.287   8.937  21.182  0.00  0.00    +0.000 A 
ATOM     25  C   UNL     1       0.727   7.660  21.535  0.00  0.00    +0.000 A 
ATOM     26  C   UNL     1       1.645   6.982  20.735  0.00  0.00    +0.000 A 
ATOM     27  C   UNL     1       2.109   7.598  19.563  0.00  0.00    +0.000 A 
ATOM     28  C   UNL     1       1.658   8.874  19.196  0.00  0.00    +0.000 A 
BRANCH  23  29
ATOM     29  C   UNL     1       0.160  10.873  19.668  0.00  0.00    +0.000 C 
ATOM     30  O   UNL     1       0.829  11.890  19.572  0.00  0.00    +0.000 OA
BRANCH  29  31
ATOM     31  O   UNL     1      -1.192  10.799  19.602  0.00  0.00    +0.000 OA
BRANCH  31  33
ATOM     32  C   UNL     1      -2.917  11.523  18.122  0.00  0.00    +0.000 C 
ATOM     33  C   UNL     1      -1.715  10.610  18.279  0.00  0.00    +0.000 C 
ENDBRANCH  31  33
ENDBRANCH  29  31
ENDBRANCH  23  29
ENDBRANCH  19  26
ENDBRANCH  18  20
ENDBRANCH   1  18
TORSDOF 12
ENDMDL
MODEL 8
REMARK VINA RESULT:      -6.6      4.552     10.626
REMARK  Name = 
REMARK  14 active torsions:
REMARK  status: ('A' for Active; 'I' for Inactive)
REMARK    1  A    between atoms: C_1  and  C_2
REMARK    2  A    between atoms: C_2  and  O_3
REMARK    3  A    between atoms: O_3  and  C_4
REMARK    4  A    between atoms: C_4  and  C_6
REMARK    5  A    between atoms: C_9  and  N_10
REMARK    6  A    between atoms: C_11  and  C_13
REMARK    7  A    between atoms: C_13  and  S_14
REMARK    8  A    between atoms: S_14  and  C_15
REMARK    9  A    between atoms: C_18  and  C_19
REMARK   10  A    between atoms: C_19  and  S_20
REMARK   11  A    between atoms: S_20  and  C_21
REMARK   12  A    between atoms: C_21  and  C_22
REMARK   13  A    between atoms: N_28  and  C_29
REMARK   14  A    between atoms: C_29  and  C_30
REMARK                            x       y       z     vdW  Elec       q    Type
REMARK                         _______ _______ _______ _____ _____    ______ ____
ROOT
ATOM      1  S   UNL     1       1.603   5.701  20.545  0.00  0.00    +0.000 S 
ENDROOT
BRANCH   1   2
ATOM      2  C   UNL     1       1.831   7.221  19.757  0.00  0.00    +0.000 A 
ATOM      3  N   UNL     1       2.377   7.408  18.580  0.00  0.00    +0.000 NA
ATOM      4  N   UNL     1       2.191   8.724  18.239  0.00  0.00    +0.000 NA
ATOM      5  C   UNL     1       1.580   9.333  19.241  0.00  0.00    +0.000 A 
ATOM      6  N   UNL     1       1.416   8.424  20.269  0.00  0.00    +0.000 N 
BRANCH   6   7
ATOM      7  C   UNL     1       1.049   8.708  21.640  0.00  0.00    +0.000 C 
ATOM      8  C   UNL     1      -0.414   8.471  21.971  0.00  0.00    +0.000 C 
ENDBRANCH   6   7
BRANCH   5   9
ATOM      9  C   UNL     1       1.084  10.746  19.224  0.00  0.00    +0.000 C 
BRANCH   9  10
ATOM     10  S   UNL     1      -0.688  10.841  18.816  0.00  0.00    +0.000 S 
BRANCH  10  11
ATOM     11  C   UNL     1      -1.057  12.529  19.415  0.00  0.00    +0.000 C 
BRANCH  11  12
ATOM     12  C   UNL     1      -1.838  12.496  20.710  0.00  0.00    +0.000 A 
ATOM     13  C   UNL     1      -1.336  11.830  21.838  0.00  0.00    +0.000 A 
ATOM     14  C   UNL     1      -2.071  11.782  23.028  0.00  0.00    +0.000 A 
ATOM     15  C   UNL     1      -3.320  12.396  23.106  0.00  0.00    +0.000 A 
ATOM     16  C   UNL     1      -3.829  13.063  21.993  0.00  0.00    +0.000 A 
ATOM     17  C   UNL     1      -3.096  13.112  20.806  0.00  0.00    +0.000 A 
ENDBRANCH  11  12
ENDBRANCH  10  11
ENDBRANCH   9  10
ENDBRANCH   5   9
ENDBRANCH   1   2
BRANCH   1  18
ATOM     18  C   UNL     1       3.297   5.058  20.668  0.00  0.00    +0.000 C 
BRANCH  18  20
ATOM     19  N   UNL     1       4.741   5.366  18.735  0.00  0.00    +0.000 N 
ATOM     20  C   UNL     1       3.810   4.532  19.336  0.00  0.00    +0.000 C 
ATOM     21  O   UNL     1       3.408   3.456  18.898  0.00  0.00    +0.000 OA
ATOM     22  H   UNL     1       4.830   6.298  19.137  0.00  0.00    +0.000 HD
BRANCH  19  26
ATOM     23  C   UNL     1       6.537   4.910  14.939  0.00  0.00    +0.000 A 
ATOM     24  C   UNL     1       7.048   4.210  16.038  0.00  0.00    +0.000 A 
ATOM     25  C   UNL     1       6.477   4.358  17.302  0.00  0.00    +0.000 A 
ATOM     26  C   UNL     1       5.374   5.190  17.489  0.00  0.00    +0.000 A 
ATOM     27  C   UNL     1       4.856   5.885  16.387  0.00  0.00    +0.000 A 
ATOM     28  C   UNL     1       5.435   5.753  15.116  0.00  0.00    +0.000 A 
BRANCH  23  29
ATOM     29  C   UNL     1       7.256   4.758  13.647  0.00  0.00    +0.000 C 
ATOM     30  O   UNL     1       7.909   5.656  13.139  0.00  0.00    +0.000 OA
BRANCH  29  31
ATOM     31  O   UNL     1       6.983   3.555  13.086  0.00  0.00    +0.000 OA
BRANCH  31  33
ATOM     32  C   UNL     1       5.773   2.168  11.568  0.00  0.00    +0.000 C 
ATOM     33  C   UNL     1       5.935   3.578  12.106  0.00  0.00    +0.000 C 
ENDBRANCH  31  33
ENDBRANCH  29  31
ENDBRANCH  23  29
ENDBRANCH  19  26
ENDBRANCH  18  20
ENDBRANCH   1  18
TORSDOF 12
ENDMDL
MODEL 9
REMARK VINA RESULT:      -6.5      3.768     10.600
REMARK  Name = 
REMARK  14 active torsions:
REMARK  status: ('A' for Active; 'I' for Inactive)
REMARK    1  A    between atoms: C_1  and  C_2
REMARK    2  A    between atoms: C_2  and  O_3
REMARK    3  A    between atoms: O_3  and  C_4
REMARK    4  A    between atoms: C_4  and  C_6
REMARK    5  A    between atoms: C_9  and  N_10
REMARK    6  A    between atoms: C_11  and  C_13
REMARK    7  A    between atoms: C_13  and  S_14
REMARK    8  A    between atoms: S_14  and  C_15
REMARK    9  A    between atoms: C_18  and  C_19
REMARK   10  A    between atoms: C_19  and  S_20
REMARK   11  A    between atoms: S_20  and  C_21
REMARK   12  A    between atoms: C_21  and  C_22
REMARK   13  A    between atoms: N_28  and  C_29
REMARK   14  A    between atoms: C_29  and  C_30
REMARK                            x       y       z     vdW  Elec       q    Type
REMARK                         _______ _______ _______ _____ _____    ______ ____
ROOT
ATOM      1  S   UNL     1       1.898   8.295  21.178  0.00  0.00    +0.000 S 
ENDROOT
BRANCH   1   2
ATOM      2  C   UNL     1       1.070   9.122  19.906  0.00  0.00    +0.000 A 
ATOM      3  N   UNL     1       1.301   8.995  18.622  0.00  0.00    +0.000 NA
ATOM      4  N   UNL     1       0.309   9.666  17.953  0.00  0.00    +0.000 NA
ATOM      5  C   UNL     1      -0.484  10.238  18.843  0.00  0.00    +0.000 A 
ATOM      6  N   UNL     1       0.025   9.989  20.103  0.00  0.00    +0.000 N 
BRANCH   6   7
ATOM      7  C   UNL     1      -0.349  10.634  21.343  0.00  0.00    +0.000 C 
ATOM      8  C   UNL     1      -0.675   9.684  22.483  0.00  0.00    +0.000 C 
ENDBRANCH   6   7
BRANCH   5   9
ATOM      9  C   UNL     1      -1.756  10.963  18.531  0.00  0.00    +0.000 C 
BRANCH   9  10
ATOM     10  S   UNL     1      -2.908   9.933  17.567  0.00  0.00    +0.000 S 
BRANCH  10  11
ATOM     11  C   UNL     1      -3.845  11.242  16.699  0.00  0.00    +0.000 C 
BRANCH  11  12
ATOM     12  C   UNL     1      -5.132  11.571  17.425  0.00  0.00    +0.000 A 
ATOM     13  C   UNL     1      -5.931  12.652  17.021  0.00  0.00    +0.000 A 
ATOM     14  C   UNL     1      -7.108  12.966  17.707  0.00  0.00    +0.000 A 
ATOM     15  C   UNL     1      -7.503  12.208  18.808  0.00  0.00    +0.000 A 
ATOM     16  C   UNL     1      -6.720  11.130  19.218  0.00  0.00    +0.000 A 
ATOM     17  C   UNL     1      -5.545  10.814  18.533  0.00  0.00    +0.000 A 
ENDBRANCH  11  12
ENDBRANCH  10  11
ENDBRANCH   9  10
ENDBRANCH   5   9
ENDBRANCH   1   2
BRANCH   1  18
ATOM     18  C   UNL     1       1.334   6.582  20.972  0.00  0.00    +0.000 C 
BRANCH  18  20
ATOM     19  N   UNL     1       3.224   6.528  19.442  0.00  0.00    +0.000 N 
ATOM     20  C   UNL     1       2.087   5.857  19.866  0.00  0.00    +0.000 C 
ATOM     21  O   UNL     1       1.681   4.776  19.445  0.00  0.00    +0.000 OA
ATOM     22  H   UNL     1       3.319   7.491  19.763  0.00  0.00    +0.000 HD
BRANCH  19  26
ATOM     23  C   UNL     1       5.964   5.327  16.459  0.00  0.00    +0.000 A 
ATOM     24  C   UNL     1       4.955   6.245  16.147  0.00  0.00    +0.000 A 
ATOM     25  C   UNL     1       4.032   6.644  17.115  0.00  0.00    +0.000 A 
ATOM     26  C   UNL     1       4.112   6.150  18.415  0.00  0.00    +0.000 A 
ATOM     27  C   UNL     1       5.128   5.236  18.732  0.00  0.00    +0.000 A 
ATOM     28  C   UNL     1       6.049   4.820  17.760  0.00  0.00    +0.000 A 
BRANCH  23  29
ATOM     29  C   UNL     1       6.851   4.895  15.349  0.00  0.00    +0.000 C 
ATOM     30  O   UNL     1       7.786   5.569  14.943  0.00  0.00    +0.000 OA
BRANCH  29  31
ATOM     31  O   UNL     1       6.404   3.740  14.800  0.00  0.00    +0.000 OA
BRANCH  31  33
ATOM     32  C   UNL     1       5.092   3.859  12.811  0.00  0.00    +0.000 C 
ATOM     33  C   UNL     1       6.493   3.686  13.368  0.00  0.00    +0.000 C 
ENDBRANCH  31  33
ENDBRANCH  29  31
ENDBRANCH  23  29
ENDBRANCH  19  26
ENDBRANCH  18  20
ENDBRANCH   1  18
TORSDOF 12
ENDMDL
