MODEL 1
REMARK VINA RESULT:      -7.6      0.000      0.000
REMARK  Name = 
REMARK  5 active torsions:
REMARK  status: ('A' for Active; 'I' for Inactive)
REMARK    1  A    between atoms: C_1  and  C_2
REMARK    2  A    between atoms: C_2  and  C_4
REMARK    3  A    between atoms: C_9  and  N_10
REMARK    4  A    between atoms: C_11  and  C_13
REMARK    5  A    between atoms: C_13  and  N_14
REMARK                            x       y       z     vdW  Elec       q    Type
REMARK                         _______ _______ _______ _____ _____    ______ ____
ROOT
ATOM      1  N   UNL     1       4.682   5.213  17.700  0.00  0.00    +0.000 N 
ATOM      2  C   UNL     1       3.939   6.350  17.961  0.00  0.00    +0.000 C 
ATOM      3  O   UNL     1       3.884   7.334  17.212  0.00  0.00    +0.000 OA
ATOM      4  H   UNL     1       4.308   4.356  18.107  0.00  0.00    +0.000 HD
ENDROOT
BRANCH   1  10
ATOM      5  C   UNL     1       6.778   5.591  16.439  0.00  0.00    +0.000 A 
ATOM      6  C   UNL     1       7.546   5.400  15.278  0.00  0.00    +0.000 A 
ATOM      7  C   UNL     1       6.970   4.748  14.211  0.00  0.00    +0.000 A 
ATOM      8  C   UNL     1       5.683   4.279  14.262  0.00  0.00    +0.000 A 
ATOM      9  C   UNL     1       4.906   4.415  15.396  0.00  0.00    +0.000 A 
ATOM     10  C   UNL     1       5.457   5.068  16.517  0.00  0.00    +0.000 A 
ATOM     11  O   UNL     1       5.311   3.690  13.093  0.00  0.00    +0.000 OA
ATOM     12  C   UNL     1       6.519   3.826  12.315  0.00  0.00    +0.000 C 
ATOM     13  O   UNL     1       7.579   4.501  13.025  0.00  0.00    +0.000 OA
BRANCH   5  15
ATOM     14  C   UNL     1       7.643   7.772  17.508  0.00  0.00    +0.000 C 
ATOM     15  C   UNL     1       7.412   6.284  17.601  0.00  0.00    +0.000 C 
ATOM     16  O   UNL     1       7.733   5.649  18.605  0.00  0.00    +0.000 OA
ENDBRANCH   5  15
ENDBRANCH   1  10
BRANCH   2  17
ATOM     17  C   UNL     1       3.124   6.325  19.266  0.00  0.00    +0.000 C 
BRANCH  17  18
ATOM     18  N   UNL     1       2.454   5.022  19.471  0.00  0.00    +0.000 NA
ATOM     19  C   UNL     1       1.743   4.961  20.757  0.00  0.00    +0.000 C 
ATOM     20  C   UNL     1       1.712   3.557  21.376  0.00  0.00    +0.000 C 
ATOM     21  C   UNL     1       2.819   2.599  20.919  0.00  0.00    +0.000 C 
ATOM     22  C   UNL     1       2.388   1.642  19.804  0.00  0.00    +0.000 C 
ATOM     23  C   UNL     1       2.180   2.242  18.410  0.00  0.00    +0.000 C 
ATOM     24  C   UNL     1       1.054   3.276  18.305  0.00  0.00    +0.000 C 
ATOM     25  C   UNL     1       1.558   4.725  18.345  0.00  0.00    +0.000 C 
ENDBRANCH  17  18
ENDBRANCH   2  17
TORSDOF 4
ENDMDL
MODEL 2
REMARK VINA RESULT:      -7.5      0.695      1.133
REMARK  Name = 
REMARK  5 active torsions:
REMARK  status: ('A' for Active; 'I' for Inactive)
REMARK    1  A    between atoms: C_1  and  C_2
REMARK    2  A    between atoms: C_2  and  C_4
REMARK    3  A    between atoms: C_9  and  N_10
REMARK    4  A    between atoms: C_11  and  C_13
REMARK    5  A    between atoms: C_13  and  N_14
REMARK                            x       y       z     vdW  Elec       q    Type
REMARK                         _______ _______ _______ _____ _____    ______ ____
ROOT
ATOM      1  N   UNL     1       4.779   5.085  17.742  0.00  0.00    +0.000 N 
ATOM      2  C   UNL     1       3.991   6.179  18.050  0.00  0.00    +0.000 C 
ATOM      3  O   UNL     1       3.867   7.175  17.325  0.00  0.00    +0.000 OA
ATOM      4  H   UNL     1       4.459   4.202  18.140  0.00  0.00    +0.000 HD
ENDROOT
BRANCH   1  10
ATOM      5  C   UNL     1       6.809   5.601  16.424  0.00  0.00    +0.000 A 
ATOM      6  C   UNL     1       7.550   5.471  15.237  0.00  0.00    +0.000 A 
ATOM      7  C   UNL     1       6.978   4.802  14.178  0.00  0.00    +0.000 A 
ATOM      8  C   UNL     1       5.723   4.260  14.260  0.00  0.00    +0.000 A 
ATOM      9  C   UNL     1       4.976   4.335  15.419  0.00  0.00    +0.000 A 
ATOM     10  C   UNL     1       5.523   5.002  16.533  0.00  0.00    +0.000 A 
ATOM     11  O   UNL     1       5.349   3.667  13.094  0.00  0.00    +0.000 OA
ATOM     12  C   UNL     1       6.522   3.883  12.281  0.00  0.00    +0.000 C 
ATOM     13  O   UNL     1       7.564   4.608  12.969  0.00  0.00    +0.000 OA
BRANCH   5  15
ATOM     14  C   UNL     1       7.638   7.805  17.475  0.00  0.00    +0.000 C 
ATOM     15  C   UNL     1       7.438   6.313  17.577  0.00  0.00    +0.000 C 
ATOM     16  O   UNL     1       7.781   5.690  18.581  0.00  0.00    +0.000 OA
ENDBRANCH   5  15
ENDBRANCH   1  10
BRANCH   2  17
ATOM     17  C   UNL     1       3.218   6.088  19.378  0.00  0.00    +0.000 C 
BRANCH  17  18
ATOM     18  N   UNL     1       2.755   4.710  19.650  0.00  0.00    +0.000 NA
ATOM     19  C   UNL     1       3.743   3.934  20.413  0.00  0.00    +0.000 C 
ATOM     20  C   UNL     1       3.739   2.435  20.081  0.00  0.00    +0.000 C 
ATOM     21  C   UNL     1       3.169   2.056  18.708  0.00  0.00    +0.000 C 
ATOM     22  C   UNL     1       1.705   1.607  18.748  0.00  0.00    +0.000 C 
ATOM     23  C   UNL     1       0.651   2.687  19.010  0.00  0.00    +0.000 C 
ATOM     24  C   UNL     1       0.742   3.372  20.377  0.00  0.00    +0.000 C 
ATOM     25  C   UNL     1       1.450   4.733  20.326  0.00  0.00    +0.000 C 
ENDBRANCH  17  18
ENDBRANCH   2  17
TORSDOF 4
ENDMDL
MODEL 3
REMARK VINA RESULT:      -6.7      4.946      7.510
REMARK  Name = 
REMARK  5 active torsions:
REMARK  status: ('A' for Active; 'I' for Inactive)
REMARK    1  A    between atoms: C_1  and  C_2
REMARK    2  A    between atoms: C_2  and  C_4
REMARK    3  A    between atoms: C_9  and  N_10
REMARK    4  A    between atoms: C_11  and  C_13
REMARK    5  A    between atoms: C_13  and  N_14
REMARK                            x       y       z     vdW  Elec       q    Type
REMARK                         _______ _______ _______ _____ _____    ______ ____
ROOT
ATOM      1  N   UNL     1       2.061   7.585  20.858  0.00  0.00    +0.000 N 
ATOM      2  C   UNL     1       0.966   8.188  21.450  0.00  0.00    +0.000 C 
ATOM      3  O   UNL     1      -0.198   7.785  21.335  0.00  0.00    +0.000 OA
ATOM      4  H   UNL     1       2.939   7.702  21.364  0.00  0.00    +0.000 HD
ENDROOT
BRANCH   1  10
ATOM      5  C   UNL     1       2.264   6.447  18.669  0.00  0.00    +0.000 A 
ATOM      6  C   UNL     1       2.184   5.272  17.901  0.00  0.00    +0.000 A 
ATOM      7  C   UNL     1       1.737   4.120  18.509  0.00  0.00    +0.000 A 
ATOM      8  C   UNL     1       1.384   4.094  19.833  0.00  0.00    +0.000 A 
ATOM      9  C   UNL     1       1.481   5.216  20.631  0.00  0.00    +0.000 A 
ATOM     10  C   UNL     1       1.942   6.417  20.055  0.00  0.00    +0.000 A 
ATOM     11  O   UNL     1       0.951   2.863  20.218  0.00  0.00    +0.000 OA
ATOM     12  C   UNL     1       1.095   2.119  18.989  0.00  0.00    +0.000 C 
ATOM     13  O   UNL     1       1.595   2.918  17.897  0.00  0.00    +0.000 OA
BRANCH   5  15
ATOM     14  C   UNL     1       1.795   8.827  17.797  0.00  0.00    +0.000 C 
ATOM     15  C   UNL     1       2.764   7.690  18.011  0.00  0.00    +0.000 C 
ATOM     16  O   UNL     1       3.939   7.778  17.657  0.00  0.00    +0.000 OA
ENDBRANCH   5  15
ENDBRANCH   1  10
BRANCH   2  17
ATOM     17  C   UNL     1       1.276   9.418  22.321  0.00  0.00    +0.000 C 
BRANCH  17  18
ATOM     18  N   UNL     1       0.389  10.557  21.997  0.00  0.00    +0.000 NA
ATOM     19  C   UNL     1       0.095  10.639  20.558  0.00  0.00    +0.000 C 
ATOM     20  C   UNL     1      -0.107  12.073  20.052  0.00  0.00    +0.000 C 
ATOM     21  C   UNL     1       0.537  13.179  20.899  0.00  0.00    +0.000 C 
ATOM     22  C   UNL     1      -0.430  13.852  21.877  0.00  0.00    +0.000 C 
ATOM     23  C   UNL     1      -0.880  13.031  23.090  0.00  0.00    +0.000 C 
ATOM     24  C   UNL     1      -1.686  11.771  22.764  0.00  0.00    +0.000 C 
ATOM     25  C   UNL     1      -0.844  10.489  22.795  0.00  0.00    +0.000 C 
ENDBRANCH  17  18
ENDBRANCH   2  17
TORSDOF 4
ENDMDL
MODEL 4
REMARK VINA RESULT:      -6.7      0.754      1.520
REMARK  Name = 
REMARK  5 active torsions:
REMARK  status: ('A' for Active; 'I' for Inactive)
REMARK    1  A    between atoms: C_1  and  C_2
REMARK    2  A    between atoms: C_2  and  C_4
REMARK    3  A    between atoms: C_9  and  N_10
REMARK    4  A    between atoms: C_11  and  C_13
REMARK    5  A    between atoms: C_13  and  N_14
REMARK                            x       y       z     vdW  Elec       q    Type
REMARK                         _______ _______ _______ _____ _____    ______ ____
ROOT
ATOM      1  N   UNL     1       4.759   5.108  17.534  0.00  0.00    +0.000 N 
ATOM      2  C   UNL     1       3.987   6.222  17.811  0.00  0.00    +0.000 C 
ATOM      3  O   UNL     1       3.906   7.214  17.076  0.00  0.00    +0.000 OA
ATOM      4  H   UNL     1       4.409   4.236  17.929  0.00  0.00    +0.000 HD
ENDROOT
BRANCH   1  10
ATOM      5  C   UNL     1       6.838   5.570  16.273  0.00  0.00    +0.000 A 
ATOM      6  C   UNL     1       7.611   5.415  15.109  0.00  0.00    +0.000 A 
ATOM      7  C   UNL     1       7.056   4.751  14.038  0.00  0.00    +0.000 A 
ATOM      8  C   UNL     1       5.787   4.237  14.087  0.00  0.00    +0.000 A 
ATOM      9  C   UNL     1       5.008   4.337  15.223  0.00  0.00    +0.000 A 
ATOM     10  C   UNL     1       5.537   5.000  16.349  0.00  0.00    +0.000 A 
ATOM     11  O   UNL     1       5.434   3.644  12.915  0.00  0.00    +0.000 OA
ATOM     12  C   UNL     1       6.635   3.828  12.135  0.00  0.00    +0.000 C 
ATOM     13  O   UNL     1       7.671   4.535  12.849  0.00  0.00    +0.000 OA
BRANCH   5  15
ATOM     14  C   UNL     1       7.606   7.776  17.367  0.00  0.00    +0.000 C 
ATOM     15  C   UNL     1       7.449   6.276  17.439  0.00  0.00    +0.000 C 
ATOM     16  O   UNL     1       7.812   5.644  18.430  0.00  0.00    +0.000 OA
ENDBRANCH   5  15
ENDBRANCH   1  10
BRANCH   2  17
ATOM     17  C   UNL     1       3.174   6.158  19.116  0.00  0.00    +0.000 C 
BRANCH  17  18
ATOM     18  N   UNL     1       2.780   4.772  19.450  0.00  0.00    +0.000 NA
ATOM     19  C   UNL     1       1.982   4.150  18.383  0.00  0.00    +0.000 C 
ATOM     20  C   UNL     1       0.945   3.143  18.897  0.00  0.00    +0.000 C 
ATOM     21  C   UNL     1       0.505   3.321  20.356  0.00  0.00    +0.000 C 
ATOM     22  C   UNL     1       1.239   2.406  21.340  0.00  0.00    +0.000 C 
ATOM     23  C   UNL     1       2.709   2.728  21.629  0.00  0.00    +0.000 C 
ATOM     24  C   UNL     1       3.651   2.613  20.427  0.00  0.00    +0.000 C 
ATOM     25  C   UNL     1       3.966   3.966  19.774  0.00  0.00    +0.000 C 
ENDBRANCH  17  18
ENDBRANCH   2  17
TORSDOF 4
ENDMDL
MODEL 5
REMARK VINA RESULT:      -6.7      4.071      6.102
REMARK  Name = 
REMARK  5 active torsions:
REMARK  status: ('A' for Active; 'I' for Inactive)
REMARK    1  A    between atoms: C_1  and  C_2
REMARK    2  A    between atoms: C_2  and  C_4
REMARK    3  A    between atoms: C_9  and  N_10
REMARK    4  A    between atoms: C_11  and  C_13
REMARK    5  A    between atoms: C_13  and  N_14
REMARK                            x       y       z     vdW  Elec       q    Type
REMARK                         _______ _______ _______ _____ _____    ______ ____
ROOT
ATOM      1  N   UNL     1       3.237   7.471  17.651  0.00  0.00    +0.000 N 
ATOM      2  C   UNL     1       2.406   8.297  18.385  0.00  0.00    +0.000 C 
ATOM      3  O   UNL     1       2.016   8.051  19.534  0.00  0.00    +0.000 OA
ATOM      4  H   UNL     1       3.827   7.952  16.973  0.00  0.00    +0.000 HD
ENDROOT
BRANCH   1  10
ATOM      5  C   UNL     1       5.049   5.797  17.852  0.00  0.00    +0.000 A 
ATOM      6  C   UNL     1       5.542   4.604  18.409  0.00  0.00    +0.000 A 
ATOM      7  C   UNL     1       4.706   3.862  19.214  0.00  0.00    +0.000 A 
ATOM      8  C   UNL     1       3.425   4.264  19.488  0.00  0.00    +0.000 A 
ATOM      9  C   UNL     1       2.914   5.446  18.990  0.00  0.00    +0.000 A 
ATOM     10  C   UNL     1       3.736   6.243  18.168  0.00  0.00    +0.000 A 
ATOM     11  O   UNL     1       2.773   3.372  20.282  0.00  0.00    +0.000 OA
ATOM     12  C   UNL     1       3.800   2.379  20.491  0.00  0.00    +0.000 C 
ATOM     13  O   UNL     1       5.035   2.689  19.809  0.00  0.00    +0.000 OA
BRANCH   5  15
ATOM     14  C   UNL     1       7.282   7.055  17.574  0.00  0.00    +0.000 C 
ATOM     15  C   UNL     1       5.963   6.608  16.993  0.00  0.00    +0.000 C 
ATOM     16  O   UNL     1       5.641   6.898  15.842  0.00  0.00    +0.000 OA
ENDBRANCH   5  15
ENDBRANCH   1  10
BRANCH   2  17
ATOM     17  C   UNL     1       1.992   9.607  17.692  0.00  0.00    +0.000 C 
BRANCH  17  18
ATOM     18  N   UNL     1       1.151  10.451  18.570  0.00  0.00    +0.000 NA
ATOM     19  C   UNL     1       1.503  11.875  18.472  0.00  0.00    +0.000 C 
ATOM     20  C   UNL     1       1.295  12.652  19.779  0.00  0.00    +0.000 C 
ATOM     21  C   UNL     1       1.305  11.814  21.064  0.00  0.00    +0.000 C 
ATOM     22  C   UNL     1      -0.092  11.444  21.572  0.00  0.00    +0.000 C 
ATOM     23  C   UNL     1      -0.874  10.401  20.767  0.00  0.00    +0.000 C 
ATOM     24  C   UNL     1      -1.227  10.812  19.334  0.00  0.00    +0.000 C 
ATOM     25  C   UNL     1      -0.273  10.226  18.284  0.00  0.00    +0.000 C 
ENDBRANCH  17  18
ENDBRANCH   2  17
TORSDOF 4
ENDMDL
MODEL 6
REMARK VINA RESULT:      -6.7      4.263      6.257
REMARK  Name = 
REMARK  5 active torsions:
REMARK  status: ('A' for Active; 'I' for Inactive)
REMARK    1  A    between atoms: C_1  and  C_2
REMARK    2  A    between atoms: C_2  and  C_4
REMARK    3  A    between atoms: C_9  and  N_10
REMARK    4  A    between atoms: C_11  and  C_13
REMARK    5  A    between atoms: C_13  and  N_14
REMARK                            x       y       z     vdW  Elec       q    Type
REMARK                         _______ _______ _______ _____ _____    ______ ____
ROOT
ATOM      1  N   UNL     1       3.357   7.791  18.033  0.00  0.00    +0.000 N 
ATOM      2  C   UNL     1       2.283   8.617  17.751  0.00  0.00    +0.000 C 
ATOM      3  O   UNL     1       1.175   8.214  17.373  0.00  0.00    +0.000 OA
ATOM      4  H   UNL     1       4.003   8.155  18.732  0.00  0.00    +0.000 HD
ENDROOT
BRANCH   1  10
ATOM      5  C   UNL     1       4.208   5.650  17.129  0.00  0.00    +0.000 A 
ATOM      6  C   UNL     1       4.140   4.248  17.065  0.00  0.00    +0.000 A 
ATOM      7  C   UNL     1       3.123   3.610  17.740  0.00  0.00    +0.000 A 
ATOM      8  C   UNL     1       2.195   4.305  18.470  0.00  0.00    +0.000 A 
ATOM      9  C   UNL     1       2.247   5.680  18.587  0.00  0.00    +0.000 A 
ATOM     10  C   UNL     1       3.275   6.376  17.921  0.00  0.00    +0.000 A 
ATOM     11  O   UNL     1       1.271   3.480  19.033  0.00  0.00    +0.000 OA
ATOM     12  C   UNL     1       1.740   2.189  18.588  0.00  0.00    +0.000 C 
ATOM     13  O   UNL     1       2.922   2.269  17.762  0.00  0.00    +0.000 OA
BRANCH   5  15
ATOM     14  C   UNL     1       6.716   6.227  16.975  0.00  0.00    +0.000 C 
ATOM     15  C   UNL     1       5.321   6.338  16.409  0.00  0.00    +0.000 C 
ATOM     16  O   UNL     1       5.099   6.976  15.381  0.00  0.00    +0.000 OA
ENDBRANCH   5  15
ENDBRANCH   1  10
BRANCH   2  17
ATOM     17  C   UNL     1       2.528  10.121  17.965  0.00  0.00    +0.000 C 
BRANCH  17  18
ATOM     18  N   UNL     1       1.360  10.784  18.584  0.00  0.00    +0.000 NA
ATOM     19  C   UNL     1       0.950  10.129  19.835  0.00  0.00    +0.000 C 
ATOM     20  C   UNL     1      -0.560  10.202  20.103  0.00  0.00    +0.000 C 
ATOM     21  C   UNL     1      -1.447  10.413  18.869  0.00  0.00    +0.000 C 
ATOM     22  C   UNL     1      -1.858  11.871  18.645  0.00  0.00    +0.000 C 
ATOM     23  C   UNL     1      -0.770  12.837  18.163  0.00  0.00    +0.000 C 
ATOM     24  C   UNL     1       0.393  13.049  19.137  0.00  0.00    +0.000 C 
ATOM     25  C   UNL     1       1.633  12.214  18.789  0.00  0.00    +0.000 C 
ENDBRANCH  17  18
ENDBRANCH   2  17
TORSDOF 4
ENDMDL
MODEL 7
REMARK VINA RESULT:      -6.5      5.227      8.064
REMARK  Name = 
REMARK  5 active torsions:
REMARK  status: ('A' for Active; 'I' for Inactive)
REMARK    1  A    between atoms: C_1  and  C_2
REMARK    2  A    between atoms: C_2  and  C_4
REMARK    3  A    between atoms: C_9  and  N_10
REMARK    4  A    between atoms: C_11  and  C_13
REMARK    5  A    between atoms: C_13  and  N_14
REMARK                            x       y       z     vdW  Elec       q    Type
REMARK                         _______ _______ _______ _____ _____    ______ ____
ROOT
ATOM      1  N   UNL     1       1.031   9.421  17.732  0.00  0.00    +0.000 N 
ATOM      2  C   UNL     1       1.663   8.624  18.670  0.00  0.00    +0.000 C 
ATOM      3  O   UNL     1       1.303   8.517  19.849  0.00  0.00    +0.000 OA
ATOM      4  H   UNL     1       1.108   9.092  16.770  0.00  0.00    +0.000 HD
ENDROOT
BRANCH   1  10
ATOM      5  C   UNL     1       0.003  11.445  18.717  0.00  0.00    +0.000 A 
ATOM      6  C   UNL     1      -1.140  12.220  18.980  0.00  0.00    +0.000 A 
ATOM      7  C   UNL     1      -2.370  11.714  18.624  0.00  0.00    +0.000 A 
ATOM      8  C   UNL     1      -2.500  10.493  18.016  0.00  0.00    +0.000 A 
ATOM      9  C   UNL     1      -1.400   9.716  17.709  0.00  0.00    +0.000 A 
ATOM     10  C   UNL     1      -0.119  10.196  18.047  0.00  0.00    +0.000 A 
ATOM     11  O   UNL     1      -3.802  10.182  17.774  0.00  0.00    +0.000 OA
ATOM     12  C   UNL     1      -4.469  11.358  18.280  0.00  0.00    +0.000 C 
ATOM     13  O   UNL     1      -3.558  12.337  18.823  0.00  0.00    +0.000 OA
BRANCH   5  15
ATOM     14  C   UNL     1       1.539  12.493  20.504  0.00  0.00    +0.000 C 
ATOM     15  C   UNL     1       1.337  12.003  19.090  0.00  0.00    +0.000 C 
ATOM     16  O   UNL     1       2.244  12.058  18.260  0.00  0.00    +0.000 OA
ENDBRANCH   5  15
ENDBRANCH   1  10
BRANCH   2  17
ATOM     17  C   UNL     1       2.867   7.818  18.153  0.00  0.00    +0.000 C 
BRANCH  17  18
ATOM     18  N   UNL     1       2.760   6.384  18.503  0.00  0.00    +0.000 NA
ATOM     19  C   UNL     1       3.561   5.534  17.610  0.00  0.00    +0.000 C 
ATOM     20  C   UNL     1       2.955   4.143  17.378  0.00  0.00    +0.000 C 
ATOM     21  C   UNL     1       1.443   4.025  17.608  0.00  0.00    +0.000 C 
ATOM     22  C   UNL     1       1.069   3.478  18.989  0.00  0.00    +0.000 C 
ATOM     23  C   UNL     1       1.291   4.403  20.190  0.00  0.00    +0.000 C 
ATOM     24  C   UNL     1       2.749   4.788  20.457  0.00  0.00    +0.000 C 
ATOM     25  C   UNL     1       3.119   6.174  19.913  0.00  0.00    +0.000 C 
ENDBRANCH  17  18
ENDBRANCH   2  17
TORSDOF 4
ENDMDL
MODEL 8
REMARK VINA RESULT:      -6.5      4.253      7.387
REMARK  Name = 
REMARK  5 active torsions:
REMARK  status: ('A' for Active; 'I' for Inactive)
REMARK    1  A    between atoms: C_1  and  C_2
REMARK    2  A    between atoms: C_2  and  C_4
REMARK    3  A    between atoms: C_9  and  N_10
REMARK    4  A    between atoms: C_11  and  C_13
REMARK    5  A    between atoms: C_13  and  N_14
REMARK                            x       y       z     vdW  Elec       q    Type
REMARK                         _______ _______ _______ _____ _____    ______ ____
ROOT
ATOM      1  N   UNL     1       1.914   8.105  20.060  0.00  0.00    +0.000 N 
ATOM      2  C   UNL     1       2.399   7.317  19.031  0.00  0.00    +0.000 C 
ATOM      3  O   UNL     1       1.996   7.372  17.862  0.00  0.00    +0.000 OA
ATOM      4  H   UNL     1       2.586   8.299  20.802  0.00  0.00    +0.000 HD
ENDROOT
BRANCH   1  10
ATOM      5  C   UNL     1       0.328   9.782  20.953  0.00  0.00    +0.000 A 
ATOM      6  C   UNL     1      -0.646  10.771  20.729  0.00  0.00    +0.000 A 
ATOM      7  C   UNL     1      -1.068  10.994  19.438  0.00  0.00    +0.000 A 
ATOM      8  C   UNL     1      -0.557  10.288  18.380  0.00  0.00    +0.000 A 
ATOM      9  C   UNL     1       0.426   9.333  18.552  0.00  0.00    +0.000 A 
ATOM     10  C   UNL     1       0.896   9.076  19.856  0.00  0.00    +0.000 A 
ATOM     11  O   UNL     1      -1.131  10.654  17.202  0.00  0.00    +0.000 OA
ATOM     12  C   UNL     1      -2.042  11.683  17.642  0.00  0.00    +0.000 C 
ATOM     13  O   UNL     1      -2.005  11.902  19.068  0.00  0.00    +0.000 OA
BRANCH   5  15
ATOM     14  C   UNL     1      -0.237   9.488  23.452  0.00  0.00    +0.000 C 
ATOM     15  C   UNL     1       0.796   9.554  22.353  0.00  0.00    +0.000 C 
ATOM     16  O   UNL     1       1.995   9.423  22.596  0.00  0.00    +0.000 OA
ENDBRANCH   5  15
ENDBRANCH   1  10
BRANCH   2  17
ATOM     17  C   UNL     1       3.530   6.347  19.415  0.00  0.00    +0.000 C 
BRANCH  17  18
ATOM     18  N   UNL     1       3.043   4.955  19.528  0.00  0.00    +0.000 NA
ATOM     19  C   UNL     1       4.090   3.974  19.203  0.00  0.00    +0.000 C 
ATOM     20  C   UNL     1       3.550   2.690  18.558  0.00  0.00    +0.000 C 
ATOM     21  C   UNL     1       2.189   2.812  17.861  0.00  0.00    +0.000 C 
ATOM     22  C   UNL     1       1.009   2.356  18.724  0.00  0.00    +0.000 C 
ATOM     23  C   UNL     1       0.613   3.257  19.897  0.00  0.00    +0.000 C 
ATOM     24  C   UNL     1       1.676   3.415  20.988  0.00  0.00    +0.000 C 
ATOM     25  C   UNL     1       2.480   4.717  20.865  0.00  0.00    +0.000 C 
ENDBRANCH  17  18
ENDBRANCH   2  17
TORSDOF 4
ENDMDL
MODEL 9
REMARK VINA RESULT:      -6.5      3.778      5.862
REMARK  Name = 
REMARK  5 active torsions:
REMARK  status: ('A' for Active; 'I' for Inactive)
REMARK    1  A    between atoms: C_1  and  C_2
REMARK    2  A    between atoms: C_2  and  C_4
REMARK    3  A    between atoms: C_9  and  N_10
REMARK    4  A    between atoms: C_11  and  C_13
REMARK    5  A    between atoms: C_13  and  N_14
REMARK                            x       y       z     vdW  Elec       q    Type
REMARK                         _______ _______ _______ _____ _____    ______ ____
ROOT
ATOM      1  N   UNL     1       2.900   6.491  19.672  0.00  0.00    +0.000 N 
ATOM      2  C   UNL     1       2.134   7.625  19.470  0.00  0.00    +0.000 C 
ATOM      3  O   UNL     1       1.938   8.146  18.364  0.00  0.00    +0.000 OA
ATOM      4  H   UNL     1       2.624   5.927  20.475  0.00  0.00    +0.000 HD
ENDROOT
BRANCH   1  10
ATOM      5  C   UNL     1       3.278   4.424  18.365  0.00  0.00    +0.000 A 
ATOM      6  C   UNL     1       3.878   3.771  17.274  0.00  0.00    +0.000 A 
ATOM      7  C   UNL     1       4.753   4.484  16.484  0.00  0.00    +0.000 A 
ATOM      8  C   UNL     1       5.038   5.801  16.731  0.00  0.00    +0.000 A 
ATOM      9  C   UNL     1       4.443   6.489  17.770  0.00  0.00    +0.000 A 
ATOM     10  C   UNL     1       3.534   5.803  18.600  0.00  0.00    +0.000 A 
ATOM     11  O   UNL     1       5.941   6.299  15.843  0.00  0.00    +0.000 OA
ATOM     12  C   UNL     1       6.171   5.149  15.002  0.00  0.00    +0.000 C 
ATOM     13  O   UNL     1       5.415   3.988  15.409  0.00  0.00    +0.000 OA
BRANCH   5  15
ATOM     14  C   UNL     1       1.144   2.987  18.534  0.00  0.00    +0.000 C 
ATOM     15  C   UNL     1       2.318   3.653  19.209  0.00  0.00    +0.000 C 
ATOM     16  O   UNL     1       2.487   3.568  20.425  0.00  0.00    +0.000 OA
ENDBRANCH   5  15
ENDBRANCH   1  10
BRANCH   2  17
ATOM     17  C   UNL     1       1.485   8.221  20.731  0.00  0.00    +0.000 C 
BRANCH  17  18
ATOM     18  N   UNL     1       0.818   9.511  20.448  0.00  0.00    +0.000 NA
ATOM     19  C   UNL     1      -0.626   9.349  20.218  0.00  0.00    +0.000 C 
ATOM     20  C   UNL     1      -1.208  10.362  19.223  0.00  0.00    +0.000 C 
ATOM     21  C   UNL     1      -0.209  10.983  18.238  0.00  0.00    +0.000 C 
ATOM     22  C   UNL     1       0.308  12.359  18.667  0.00  0.00    +0.000 C 
ATOM     23  C   UNL     1       1.280  12.402  19.851  0.00  0.00    +0.000 C 
ATOM     24  C   UNL     1       0.704  11.921  21.187  0.00  0.00    +0.000 C 
ATOM     25  C   UNL     1       1.087  10.474  21.525  0.00  0.00    +0.000 C 
ENDBRANCH  17  18
ENDBRANCH   2  17
TORSDOF 4
ENDMDL
