MODEL 1
REMARK VINA RESULT:      -8.7      0.000      0.000
REMARK  Name = 
REMARK  6 active torsions:
REMARK  status: ('A' for Active; 'I' for Inactive)
REMARK    1  A    between atoms: C_1  and  C_2
REMARK    2  A    between atoms: C_4  and  C_5
REMARK    3  A    between atoms: C_6  and  C_7
REMARK    4  A    between atoms: C_10  and  C_11
REMARK    5  A    between atoms: C_20  and  C_21
REMARK    6  A    between atoms: N_23  and  N_24
REMARK                            x       y       z     vdW  Elec       q    Type
REMARK                         _______ _______ _______ _____ _____    ______ ____
ROOT
ATOM      1  C   UNL     1       7.638   5.513  12.161  0.00  0.00    +0.000 C 
ATOM      2  C   UNL     1       7.115   5.086  13.502  0.00  0.00    +0.000 A 
ATOM      3  N   UNL     1       7.530   5.861  14.538  0.00  0.00    +0.000 NA
ATOM      4  C   UNL     1       7.107   5.581  15.799  0.00  0.00    +0.000 A 
ATOM      5  C   UNL     1       7.609   6.536  16.846  0.00  0.00    +0.000 C 
ATOM      6  C   UNL     1       6.264   4.503  16.091  0.00  0.00    +0.000 A 
ATOM      7  C   UNL     1       5.853   3.708  15.008  0.00  0.00    +0.000 A 
ATOM      8  C   UNL     1       6.276   3.991  13.697  0.00  0.00    +0.000 A 
ENDROOT
BRANCH   6   9
ATOM      9  C   UNL     1       5.811   4.232  17.453  0.00  0.00    +0.000 A 
ATOM     10  N   UNL     1       6.498   4.181  18.573  0.00  0.00    +0.000 NA
ATOM     11  N   UNL     1       5.613   3.882  19.576  0.00  0.00    +0.000 NA
ATOM     12  C   UNL     1       4.434   3.745  19.003  0.00  0.00    +0.000 A 
ATOM     13  O   UNL     1       4.474   3.981  17.652  0.00  0.00    +0.000 OA
BRANCH  12  14
ATOM     14  C   UNL     1       3.152   3.470  19.640  0.00  0.00    +0.000 A 
ATOM     15  C   UNL     1       3.186   2.885  20.924  0.00  0.00    +0.000 A 
ATOM     16  C   UNL     1       2.014   2.551  21.602  0.00  0.00    +0.000 A 
ATOM     17  C   UNL     1       0.781   2.787  21.005  0.00  0.00    +0.000 A 
ATOM     18  C   UNL     1       0.724   3.356  19.732  0.00  0.00    +0.000 A 
ATOM     19  C   UNL     1       1.901   3.696  19.049  0.00  0.00    +0.000 A 
ATOM     20 CL   UNL     1       1.712   4.338  17.453  0.00  0.00    +0.000 Cl
ENDBRANCH  12  14
ENDBRANCH   6   9
BRANCH   8  21
ATOM     21  C   UNL     1       5.770   3.177  12.556  0.00  0.00    +0.000 C 
ATOM     22  O   UNL     1       4.691   3.425  12.023  0.00  0.00    +0.000 OA
ATOM     23  N   UNL     1       6.575   2.117  12.148  0.00  0.00    +0.000 N 
ATOM     24  H   UNL     1       7.549   2.057  12.446  0.00  0.00    +0.000 HD
BRANCH  23  25
ATOM     25  N   UNL     1       6.159   1.315  11.063  0.00  0.00    +0.000 NA
ATOM     26  H   UNL     1       5.429   1.845  10.564  0.00  0.00    +0.000 HD
ATOM     27  H   UNL     1       5.660   0.505  11.438  0.00  0.00    +0.000 HD
ENDBRANCH  23  25
ENDBRANCH   8  21
TORSDOF 4
ENDMDL
MODEL 2
REMARK VINA RESULT:      -8.3      2.322      2.631
REMARK  Name = 
REMARK  6 active torsions:
REMARK  status: ('A' for Active; 'I' for Inactive)
REMARK    1  A    between atoms: C_1  and  C_2
REMARK    2  A    between atoms: C_4  and  C_5
REMARK    3  A    between atoms: C_6  and  C_7
REMARK    4  A    between atoms: C_10  and  C_11
REMARK    5  A    between atoms: C_20  and  C_21
REMARK    6  A    between atoms: N_23  and  N_24
REMARK                            x       y       z     vdW  Elec       q    Type
REMARK                         _______ _______ _______ _____ _____    ______ ____
ROOT
ATOM      1  C   UNL     1       8.059   5.021  12.472  0.00  0.00    +0.000 C 
ATOM      2  C   UNL     1       7.151   4.849  13.654  0.00  0.00    +0.000 A 
ATOM      3  N   UNL     1       7.498   5.588  14.740  0.00  0.00    +0.000 NA
ATOM      4  C   UNL     1       6.739   5.527  15.867  0.00  0.00    +0.000 A 
ATOM      5  C   UNL     1       7.211   6.420  16.980  0.00  0.00    +0.000 C 
ATOM      6  C   UNL     1       5.607   4.712  15.970  0.00  0.00    +0.000 A 
ATOM      7  C   UNL     1       5.269   3.948  14.841  0.00  0.00    +0.000 A 
ATOM      8  C   UNL     1       6.040   4.008  13.666  0.00  0.00    +0.000 A 
ENDROOT
BRANCH   6   9
ATOM      9  C   UNL     1       4.798   4.675  17.186  0.00  0.00    +0.000 A 
ATOM     10  N   UNL     1       4.635   3.704  18.059  0.00  0.00    +0.000 NA
ATOM     11  N   UNL     1       3.769   4.165  19.016  0.00  0.00    +0.000 NA
ATOM     12  C   UNL     1       3.434   5.388  18.659  0.00  0.00    +0.000 A 
ATOM     13  O   UNL     1       4.073   5.796  17.516  0.00  0.00    +0.000 OA
BRANCH  12  14
ATOM     14  C   UNL     1       2.572   6.326  19.366  0.00  0.00    +0.000 A 
ATOM     15  C   UNL     1       2.442   7.618  18.814  0.00  0.00    +0.000 A 
ATOM     16  C   UNL     1       1.668   8.599  19.436  0.00  0.00    +0.000 A 
ATOM     17  C   UNL     1       1.014   8.310  20.627  0.00  0.00    +0.000 A 
ATOM     18  C   UNL     1       1.135   7.041  21.195  0.00  0.00    +0.000 A 
ATOM     19  C   UNL     1       1.910   6.052  20.572  0.00  0.00    +0.000 A 
ATOM     20 CL   UNL     1       2.039   4.535  21.396  0.00  0.00    +0.000 Cl
ENDBRANCH  12  14
ENDBRANCH   6   9
BRANCH   8  21
ATOM     21  C   UNL     1       5.622   3.244  12.457  0.00  0.00    +0.000 C 
ATOM     22  O   UNL     1       4.665   3.602  11.775  0.00  0.00    +0.000 OA
ATOM     23  N   UNL     1       6.360   2.100  12.163  0.00  0.00    +0.000 N 
ATOM     24  H   UNL     1       7.268   1.938  12.599  0.00  0.00    +0.000 HD
BRANCH  23  25
ATOM     25  N   UNL     1       6.023   1.339  11.022  0.00  0.00    +0.000 NA
ATOM     26  H   UNL     1       6.909   1.078  10.566  0.00  0.00    +0.000 HD
ATOM     27  H   UNL     1       5.573   1.961  10.346  0.00  0.00    +0.000 HD
ENDBRANCH  23  25
ENDBRANCH   8  21
TORSDOF 4
ENDMDL
MODEL 3
REMARK VINA RESULT:      -8.3      5.183      7.026
REMARK  Name = 
REMARK  6 active torsions:
REMARK  status: ('A' for Active; 'I' for Inactive)
REMARK    1  A    between atoms: C_1  and  C_2
REMARK    2  A    between atoms: C_4  and  C_5
REMARK    3  A    between atoms: C_6  and  C_7
REMARK    4  A    between atoms: C_10  and  C_11
REMARK    5  A    between atoms: C_20  and  C_21
REMARK    6  A    between atoms: N_23  and  N_24
REMARK                            x       y       z     vdW  Elec       q    Type
REMARK                         _______ _______ _______ _____ _____    ______ ____
ROOT
ATOM      1  C   UNL     1       4.801   2.298  19.673  0.00  0.00    +0.000 C 
ATOM      2  C   UNL     1       4.216   3.672  19.526  0.00  0.00    +0.000 A 
ATOM      3  N   UNL     1       2.922   3.777  19.929  0.00  0.00    +0.000 NA
ATOM      4  C   UNL     1       2.290   4.978  19.859  0.00  0.00    +0.000 A 
ATOM      5  C   UNL     1       0.876   4.964  20.370  0.00  0.00    +0.000 C 
ATOM      6  C   UNL     1       2.912   6.131  19.367  0.00  0.00    +0.000 A 
ATOM      7  C   UNL     1       4.246   6.001  18.946  0.00  0.00    +0.000 A 
ATOM      8  C   UNL     1       4.915   4.766  19.022  0.00  0.00    +0.000 A 
ENDROOT
BRANCH   6   9
ATOM      9  C   UNL     1       2.216   7.414  19.316  0.00  0.00    +0.000 A 
ATOM     10  N   UNL     1       1.995   8.211  18.293  0.00  0.00    +0.000 NA
ATOM     11  N   UNL     1       1.308   9.297  18.769  0.00  0.00    +0.000 NA
ATOM     12  C   UNL     1       1.169   9.110  20.066  0.00  0.00    +0.000 A 
ATOM     13  O   UNL     1       1.697   7.916  20.486  0.00  0.00    +0.000 OA
BRANCH  12  14
ATOM     14  C   UNL     1       0.471   9.956  21.026  0.00  0.00    +0.000 A 
ATOM     15  C   UNL     1      -0.114   9.316  22.139  0.00  0.00    +0.000 A 
ATOM     16  C   UNL     1      -0.835  10.033  23.095  0.00  0.00    +0.000 A 
ATOM     17  C   UNL     1      -0.992  11.406  22.952  0.00  0.00    +0.000 A 
ATOM     18  C   UNL     1      -0.429  12.059  21.855  0.00  0.00    +0.000 A 
ATOM     19  C   UNL     1       0.298  11.342  20.893  0.00  0.00    +0.000 A 
ATOM     20 CL   UNL     1       0.898  12.244  19.543  0.00  0.00    +0.000 Cl
ENDBRANCH  12  14
ENDBRANCH   6   9
BRANCH   8  21
ATOM     21  C   UNL     1       6.352   4.670  18.637  0.00  0.00    +0.000 C 
ATOM     22  O   UNL     1       7.246   4.918  19.441  0.00  0.00    +0.000 OA
ATOM     23  N   UNL     1       6.615   4.305  17.319  0.00  0.00    +0.000 N 
ATOM     24  H   UNL     1       5.886   3.895  16.734  0.00  0.00    +0.000 HD
BRANCH  23  25
ATOM     25  N   UNL     1       7.956   4.182  16.895  0.00  0.00    +0.000 NA
ATOM     26  H   UNL     1       8.483   3.781  17.686  0.00  0.00    +0.000 HD
ATOM     27  H   UNL     1       8.346   5.122  16.792  0.00  0.00    +0.000 HD
ENDBRANCH  23  25
ENDBRANCH   8  21
TORSDOF 4
ENDMDL
MODEL 4
REMARK VINA RESULT:      -8.2      5.367      6.979
REMARK  Name = 
REMARK  6 active torsions:
REMARK  status: ('A' for Active; 'I' for Inactive)
REMARK    1  A    between atoms: C_1  and  C_2
REMARK    2  A    between atoms: C_4  and  C_5
REMARK    3  A    between atoms: C_6  and  C_7
REMARK    4  A    between atoms: C_10  and  C_11
REMARK    5  A    between atoms: C_20  and  C_21
REMARK    6  A    between atoms: N_23  and  N_24
REMARK                            x       y       z     vdW  Elec       q    Type
REMARK                         _______ _______ _______ _____ _____    ______ ____
ROOT
ATOM      1  C   UNL     1       4.482   2.759  19.728  0.00  0.00    +0.000 C 
ATOM      2  C   UNL     1       4.007   4.117  19.301  0.00  0.00    +0.000 A 
ATOM      3  N   UNL     1       2.979   4.610  20.041  0.00  0.00    +0.000 NA
ATOM      4  C   UNL     1       2.474   5.839  19.759  0.00  0.00    +0.000 A 
ATOM      5  C   UNL     1       1.366   6.279  20.674  0.00  0.00    +0.000 C 
ATOM      6  C   UNL     1       2.959   6.632  18.713  0.00  0.00    +0.000 A 
ATOM      7  C   UNL     1       4.016   6.103  17.953  0.00  0.00    +0.000 A 
ATOM      8  C   UNL     1       4.554   4.835  18.240  0.00  0.00    +0.000 A 
ENDROOT
BRANCH   6   9
ATOM      9  C   UNL     1       2.411   7.958  18.439  0.00  0.00    +0.000 A 
ATOM     10  N   UNL     1       2.592   8.745  17.399  0.00  0.00    +0.000 NA
ATOM     11  N   UNL     1       1.867   9.885  17.627  0.00  0.00    +0.000 NA
ATOM     12  C   UNL     1       1.300   9.738  18.807  0.00  0.00    +0.000 A 
ATOM     13  O   UNL     1       1.577   8.521  19.376  0.00  0.00    +0.000 OA
BRANCH  12  14
ATOM     14  C   UNL     1       0.391  10.651  19.487  0.00  0.00    +0.000 A 
ATOM     15  C   UNL     1       0.864  11.270  20.663  0.00  0.00    +0.000 A 
ATOM     16  C   UNL     1       0.057  12.132  21.407  0.00  0.00    +0.000 A 
ATOM     17  C   UNL     1      -1.245  12.387  20.992  0.00  0.00    +0.000 A 
ATOM     18  C   UNL     1      -1.737  11.778  19.837  0.00  0.00    +0.000 A 
ATOM     19  C   UNL     1      -0.928  10.913  19.086  0.00  0.00    +0.000 A 
ATOM     20 CL   UNL     1      -1.661  10.167  17.707  0.00  0.00    +0.000 Cl
ENDBRANCH  12  14
ENDBRANCH   6   9
BRANCH   8  21
ATOM     21  C   UNL     1       5.721   4.326  17.467  0.00  0.00    +0.000 C 
ATOM     22  O   UNL     1       5.572   3.750  16.392  0.00  0.00    +0.000 OA
ATOM     23  N   UNL     1       6.975   4.521  18.040  0.00  0.00    +0.000 N 
ATOM     24  H   UNL     1       7.101   5.180  18.808  0.00  0.00    +0.000 HD
BRANCH  23  25
ATOM     25  N   UNL     1       8.123   4.073  17.350  0.00  0.00    +0.000 NA
ATOM     26  H   UNL     1       8.601   4.913  16.992  0.00  0.00    +0.000 HD
ATOM     27  H   UNL     1       7.817   3.586  16.504  0.00  0.00    +0.000 HD
ENDBRANCH  23  25
ENDBRANCH   8  21
TORSDOF 4
ENDMDL
MODEL 5
REMARK VINA RESULT:      -8.1      1.251      1.276
REMARK  Name = 
REMARK  6 active torsions:
REMARK  status: ('A' for Active; 'I' for Inactive)
REMARK    1  A    between atoms: C_1  and  C_2
REMARK    2  A    between atoms: C_4  and  C_5
REMARK    3  A    between atoms: C_6  and  C_7
REMARK    4  A    between atoms: C_10  and  C_11
REMARK    5  A    between atoms: C_20  and  C_21
REMARK    6  A    between atoms: N_23  and  N_24
REMARK                            x       y       z     vdW  Elec       q    Type
REMARK                         _______ _______ _______ _____ _____    ______ ____
ROOT
ATOM      1  C   UNL     1       7.924   5.544  12.195  0.00  0.00    +0.000 C 
ATOM      2  C   UNL     1       7.319   5.120  13.501  0.00  0.00    +0.000 A 
ATOM      3  N   UNL     1       7.719   5.858  14.570  0.00  0.00    +0.000 NA
ATOM      4  C   UNL     1       7.225   5.578  15.805  0.00  0.00    +0.000 A 
ATOM      5  C   UNL     1       7.719   6.491  16.892  0.00  0.00    +0.000 C 
ATOM      6  C   UNL     1       6.320   4.536  16.036  0.00  0.00    +0.000 A 
ATOM      7  C   UNL     1       5.925   3.778  14.921  0.00  0.00    +0.000 A 
ATOM      8  C   UNL     1       6.422   4.063  13.636  0.00  0.00    +0.000 A 
ENDROOT
BRANCH   6   9
ATOM      9  C   UNL     1       5.790   4.264  17.370  0.00  0.00    +0.000 A 
ATOM     10  N   UNL     1       6.424   4.130  18.515  0.00  0.00    +0.000 NA
ATOM     11  N   UNL     1       5.476   3.873  19.472  0.00  0.00    +0.000 NA
ATOM     12  C   UNL     1       4.316   3.843  18.849  0.00  0.00    +0.000 A 
ATOM     13  O   UNL     1       4.430   4.113  17.509  0.00  0.00    +0.000 OA
BRANCH  12  14
ATOM     14  C   UNL     1       2.991   3.652  19.426  0.00  0.00    +0.000 A 
ATOM     15  C   UNL     1       2.482   2.336  19.440  0.00  0.00    +0.000 A 
ATOM     16  C   UNL     1       1.210   2.054  19.938  0.00  0.00    +0.000 A 
ATOM     17  C   UNL     1       0.415   3.085  20.424  0.00  0.00    +0.000 A 
ATOM     18  C   UNL     1       0.895   4.395  20.411  0.00  0.00    +0.000 A 
ATOM     19  C   UNL     1       2.175   4.682  19.914  0.00  0.00    +0.000 A 
ATOM     20 CL   UNL     1       2.642   6.349  19.890  0.00  0.00    +0.000 Cl
ENDBRANCH  12  14
ENDBRANCH   6   9
BRANCH   8  21
ATOM     21  C   UNL     1       5.934   3.292  12.458  0.00  0.00    +0.000 C 
ATOM     22  O   UNL     1       6.668   2.511  11.859  0.00  0.00    +0.000 OA
ATOM     23  N   UNL     1       4.617   3.524  12.070  0.00  0.00    +0.000 N 
ATOM     24  H   UNL     1       3.965   3.999  12.693  0.00  0.00    +0.000 HD
BRANCH  23  25
ATOM     25  N   UNL     1       4.090   2.814  10.968  0.00  0.00    +0.000 NA
ATOM     26  H   UNL     1       4.309   3.367  10.126  0.00  0.00    +0.000 HD
ATOM     27  H   UNL     1       3.069   2.849  11.026  0.00  0.00    +0.000 HD
ENDBRANCH  23  25
ENDBRANCH   8  21
TORSDOF 4
ENDMDL
MODEL 6
REMARK VINA RESULT:      -8.1      2.706      2.871
REMARK  Name = 
REMARK  6 active torsions:
REMARK  status: ('A' for Active; 'I' for Inactive)
REMARK    1  A    between atoms: C_1  and  C_2
REMARK    2  A    between atoms: C_4  and  C_5
REMARK    3  A    between atoms: C_6  and  C_7
REMARK    4  A    between atoms: C_10  and  C_11
REMARK    5  A    between atoms: C_20  and  C_21
REMARK    6  A    between atoms: N_23  and  N_24
REMARK                            x       y       z     vdW  Elec       q    Type
REMARK                         _______ _______ _______ _____ _____    ______ ____
ROOT
ATOM      1  C   UNL     1       8.138   5.062  13.042  0.00  0.00    +0.000 C 
ATOM      2  C   UNL     1       7.135   4.990  14.157  0.00  0.00    +0.000 A 
ATOM      3  N   UNL     1       7.466   5.719  15.256  0.00  0.00    +0.000 NA
ATOM      4  C   UNL     1       6.626   5.744  16.324  0.00  0.00    +0.000 A 
ATOM      5  C   UNL     1       7.091   6.615  17.457  0.00  0.00    +0.000 C 
ATOM      6  C   UNL     1       5.423   5.029  16.355  0.00  0.00    +0.000 A 
ATOM      7  C   UNL     1       5.103   4.275  15.214  0.00  0.00    +0.000 A 
ATOM      8  C   UNL     1       5.958   4.247  14.098  0.00  0.00    +0.000 A 
ENDROOT
BRANCH   6   9
ATOM      9  C   UNL     1       4.529   5.085  17.509  0.00  0.00    +0.000 A 
ATOM     10  N   UNL     1       4.206   4.142  18.369  0.00  0.00    +0.000 NA
ATOM     11  N   UNL     1       3.324   4.696  19.260  0.00  0.00    +0.000 NA
ATOM     12  C   UNL     1       3.142   5.944  18.878  0.00  0.00    +0.000 A 
ATOM     13  O   UNL     1       3.899   6.276  17.784  0.00  0.00    +0.000 OA
BRANCH  12  14
ATOM     14  C   UNL     1       2.330   6.970  19.519  0.00  0.00    +0.000 A 
ATOM     15  C   UNL     1       1.764   6.651  20.772  0.00  0.00    +0.000 A 
ATOM     16  C   UNL     1       0.942   7.552  21.450  0.00  0.00    +0.000 A 
ATOM     17  C   UNL     1       0.663   8.790  20.884  0.00  0.00    +0.000 A 
ATOM     18  C   UNL     1       1.205   9.124  19.642  0.00  0.00    +0.000 A 
ATOM     19  C   UNL     1       2.033   8.222  18.959  0.00  0.00    +0.000 A 
ATOM     20 CL   UNL     1       2.599   8.716  17.400  0.00  0.00    +0.000 Cl
ENDBRANCH  12  14
ENDBRANCH   6   9
BRANCH   8  21
ATOM     21  C   UNL     1       5.564   3.498  12.872  0.00  0.00    +0.000 C 
ATOM     22  O   UNL     1       4.559   3.802  12.234  0.00  0.00    +0.000 OA
ATOM     23  N   UNL     1       6.382   2.431  12.510  0.00  0.00    +0.000 N 
ATOM     24  H   UNL     1       7.314   2.327  12.912  0.00  0.00    +0.000 HD
BRANCH  23  25
ATOM     25  N   UNL     1       6.070   1.689  11.349  0.00  0.00    +0.000 NA
ATOM     26  H   UNL     1       6.892   1.103  11.142  0.00  0.00    +0.000 HD
ATOM     27  H   UNL     1       6.025   2.337  10.559  0.00  0.00    +0.000 HD
ENDBRANCH  23  25
ENDBRANCH   8  21
TORSDOF 4
ENDMDL
MODEL 7
REMARK VINA RESULT:      -8.0      1.416      1.437
REMARK  Name = 
REMARK  6 active torsions:
REMARK  status: ('A' for Active; 'I' for Inactive)
REMARK    1  A    between atoms: C_1  and  C_2
REMARK    2  A    between atoms: C_4  and  C_5
REMARK    3  A    between atoms: C_6  and  C_7
REMARK    4  A    between atoms: C_10  and  C_11
REMARK    5  A    between atoms: C_20  and  C_21
REMARK    6  A    between atoms: N_23  and  N_24
REMARK                            x       y       z     vdW  Elec       q    Type
REMARK                         _______ _______ _______ _____ _____    ______ ____
ROOT
ATOM      1  C   UNL     1       8.285   4.742  12.630  0.00  0.00    +0.000 C 
ATOM      2  C   UNL     1       7.253   4.840  13.715  0.00  0.00    +0.000 A 
ATOM      3  N   UNL     1       7.611   5.634  14.759  0.00  0.00    +0.000 NA
ATOM      4  C   UNL     1       6.750   5.812  15.795  0.00  0.00    +0.000 A 
ATOM      5  C   UNL     1       7.253   6.740  16.865  0.00  0.00    +0.000 C 
ATOM      6  C   UNL     1       5.495   5.195  15.848  0.00  0.00    +0.000 A 
ATOM      7  C   UNL     1       5.146   4.371  14.764  0.00  0.00    +0.000 A 
ATOM      8  C   UNL     1       6.024   4.185  13.682  0.00  0.00    +0.000 A 
ENDROOT
BRANCH   6   9
ATOM      9  C   UNL     1       4.580   5.416  16.965  0.00  0.00    +0.000 A 
ATOM     10  N   UNL     1       4.081   6.539  17.433  0.00  0.00    +0.000 NA
ATOM     11  N   UNL     1       3.282   6.212  18.498  0.00  0.00    +0.000 NA
ATOM     12  C   UNL     1       3.358   4.903  18.633  0.00  0.00    +0.000 A 
ATOM     13  O   UNL     1       4.145   4.320  17.673  0.00  0.00    +0.000 OA
BRANCH  12  14
ATOM     14  C   UNL     1       2.658   4.057  19.590  0.00  0.00    +0.000 A 
ATOM     15  C   UNL     1       2.617   4.501  20.929  0.00  0.00    +0.000 A 
ATOM     16  C   UNL     1       2.002   3.744  21.927  0.00  0.00    +0.000 A 
ATOM     17  C   UNL     1       1.422   2.522  21.608  0.00  0.00    +0.000 A 
ATOM     18  C   UNL     1       1.459   2.060  20.292  0.00  0.00    +0.000 A 
ATOM     19  C   UNL     1       2.073   2.819  19.285  0.00  0.00    +0.000 A 
ATOM     20 CL   UNL     1       2.113   2.119  17.702  0.00  0.00    +0.000 Cl
ENDBRANCH  12  14
ENDBRANCH   6   9
BRANCH   8  21
ATOM     21  C   UNL     1       5.604   3.365  12.511  0.00  0.00    +0.000 C 
ATOM     22  O   UNL     1       4.645   3.690  11.815  0.00  0.00    +0.000 OA
ATOM     23  N   UNL     1       6.342   2.209  12.269  0.00  0.00    +0.000 N 
ATOM     24  H   UNL     1       7.251   2.068  12.710  0.00  0.00    +0.000 HD
BRANCH  23  25
ATOM     25  N   UNL     1       6.003   1.395  11.165  0.00  0.00    +0.000 NA
ATOM     26  H   UNL     1       5.344   0.683  11.513  0.00  0.00    +0.000 HD
ATOM     27  H   UNL     1       6.831   0.855  10.901  0.00  0.00    +0.000 HD
ENDBRANCH  23  25
ENDBRANCH   8  21
TORSDOF 4
ENDMDL
MODEL 8
REMARK VINA RESULT:      -8.0      1.091      1.091
REMARK  Name = 
REMARK  6 active torsions:
REMARK  status: ('A' for Active; 'I' for Inactive)
REMARK    1  A    between atoms: C_1  and  C_2
REMARK    2  A    between atoms: C_4  and  C_5
REMARK    3  A    between atoms: C_6  and  C_7
REMARK    4  A    between atoms: C_10  and  C_11
REMARK    5  A    between atoms: C_20  and  C_21
REMARK    6  A    between atoms: N_23  and  N_24
REMARK                            x       y       z     vdW  Elec       q    Type
REMARK                         _______ _______ _______ _____ _____    ______ ____
ROOT
ATOM      1  C   UNL     1       7.899   5.547  12.204  0.00  0.00    +0.000 C 
ATOM      2  C   UNL     1       7.317   5.120  13.520  0.00  0.00    +0.000 A 
ATOM      3  N   UNL     1       7.727   5.863  14.582  0.00  0.00    +0.000 NA
ATOM      4  C   UNL     1       7.254   5.579  15.824  0.00  0.00    +0.000 A 
ATOM      5  C   UNL     1       7.757   6.498  16.902  0.00  0.00    +0.000 C 
ATOM      6  C   UNL     1       6.362   4.530  16.071  0.00  0.00    +0.000 A 
ATOM      7  C   UNL     1       5.957   3.767  14.962  0.00  0.00    +0.000 A 
ATOM      8  C   UNL     1       6.431   4.055  13.670  0.00  0.00    +0.000 A 
ENDROOT
BRANCH   6   9
ATOM      9  C   UNL     1       5.855   4.256  17.413  0.00  0.00    +0.000 A 
ATOM     10  N   UNL     1       6.497   4.210  18.561  0.00  0.00    +0.000 NA
ATOM     11  N   UNL     1       5.573   3.904  19.526  0.00  0.00    +0.000 NA
ATOM     12  C   UNL     1       4.420   3.757  18.906  0.00  0.00    +0.000 A 
ATOM     13  O   UNL     1       4.513   3.994  17.558  0.00  0.00    +0.000 OA
BRANCH  12  14
ATOM     14  C   UNL     1       3.115   3.472  19.490  0.00  0.00    +0.000 A 
ATOM     15  C   UNL     1       2.864   3.985  20.780  0.00  0.00    +0.000 A 
ATOM     16  C   UNL     1       1.660   3.737  21.439  0.00  0.00    +0.000 A 
ATOM     17  C   UNL     1       0.684   2.963  20.824  0.00  0.00    +0.000 A 
ATOM     18  C   UNL     1       0.914   2.439  19.551  0.00  0.00    +0.000 A 
ATOM     19  C   UNL     1       2.122   2.688  18.884  0.00  0.00    +0.000 A 
ATOM     20 CL   UNL     1       2.323   1.938  17.337  0.00  0.00    +0.000 Cl
ENDBRANCH  12  14
ENDBRANCH   6   9
BRANCH   8  21
ATOM     21  C   UNL     1       5.933   3.278  12.501  0.00  0.00    +0.000 C 
ATOM     22  O   UNL     1       6.656   2.482  11.908  0.00  0.00    +0.000 OA
ATOM     23  N   UNL     1       4.618   3.523  12.111  0.00  0.00    +0.000 N 
ATOM     24  H   UNL     1       3.972   4.012  12.731  0.00  0.00    +0.000 HD
BRANCH  23  25
ATOM     25  N   UNL     1       4.081   2.809  11.018  0.00  0.00    +0.000 NA
ATOM     26  H   UNL     1       4.582   1.909  10.976  0.00  0.00    +0.000 HD
ATOM     27  H   UNL     1       4.360   3.286  10.157  0.00  0.00    +0.000 HD
ENDBRANCH  23  25
ENDBRANCH   8  21
TORSDOF 4
ENDMDL
MODEL 9
REMARK VINA RESULT:      -7.9      5.500      7.640
REMARK  Name = 
REMARK  6 active torsions:
REMARK  status: ('A' for Active; 'I' for Inactive)
REMARK    1  A    between atoms: C_1  and  C_2
REMARK    2  A    between atoms: C_4  and  C_5
REMARK    3  A    between atoms: C_6  and  C_7
REMARK    4  A    between atoms: C_10  and  C_11
REMARK    5  A    between atoms: C_20  and  C_21
REMARK    6  A    between atoms: N_23  and  N_24
REMARK                            x       y       z     vdW  Elec       q    Type
REMARK                         _______ _______ _______ _____ _____    ______ ____
ROOT
ATOM      1  C   UNL     1       4.425   2.514  19.550  0.00  0.00    +0.000 C 
ATOM      2  C   UNL     1       3.814   3.864  19.312  0.00  0.00    +0.000 A 
ATOM      3  N   UNL     1       4.607   4.726  18.623  0.00  0.00    +0.000 NA
ATOM      4  C   UNL     1       4.154   5.974  18.334  0.00  0.00    +0.000 A 
ATOM      5  C   UNL     1       5.114   6.812  17.538  0.00  0.00    +0.000 C 
ATOM      6  C   UNL     1       2.892   6.430  18.733  0.00  0.00    +0.000 A 
ATOM      7  C   UNL     1       2.090   5.528  19.452  0.00  0.00    +0.000 A 
ATOM      8  C   UNL     1       2.543   4.230  19.751  0.00  0.00    +0.000 A 
ENDROOT
BRANCH   6   9
ATOM      9  C   UNL     1       2.420   7.770  18.396  0.00  0.00    +0.000 A 
ATOM     10  N   UNL     1       2.704   8.524  17.356  0.00  0.00    +0.000 NA
ATOM     11  N   UNL     1       2.014   9.699  17.510  0.00  0.00    +0.000 NA
ATOM     12  C   UNL     1       1.364   9.602  18.652  0.00  0.00    +0.000 A 
ATOM     13  O   UNL     1       1.551   8.388  19.263  0.00  0.00    +0.000 OA
BRANCH  12  14
ATOM     14  C   UNL     1       0.451  10.567  19.251  0.00  0.00    +0.000 A 
ATOM     15  C   UNL     1       0.890  11.227  20.418  0.00  0.00    +0.000 A 
ATOM     16  C   UNL     1       0.075  12.142  21.086  0.00  0.00    +0.000 A 
ATOM     17  C   UNL     1      -1.200  12.410  20.604  0.00  0.00    +0.000 A 
ATOM     18  C   UNL     1      -1.658  11.762  19.456  0.00  0.00    +0.000 A 
ATOM     19  C   UNL     1      -0.841  10.845  18.780  0.00  0.00    +0.000 A 
ATOM     20 CL   UNL     1      -1.534  10.056  17.403  0.00  0.00    +0.000 Cl
ENDBRANCH  12  14
ENDBRANCH   6   9
BRANCH   8  21
ATOM     21  C   UNL     1       1.647   3.268  20.452  0.00  0.00    +0.000 C 
ATOM     22  O   UNL     1       0.794   2.630  19.841  0.00  0.00    +0.000 OA
ATOM     23  N   UNL     1       1.820   3.154  21.829  0.00  0.00    +0.000 N 
ATOM     24  H   UNL     1       2.659   3.516  22.282  0.00  0.00    +0.000 HD
BRANCH  23  25
ATOM     25  N   UNL     1       1.011   2.248  22.550  0.00  0.00    +0.000 NA
ATOM     26  H   UNL     1       1.625   1.479  22.854  0.00  0.00    +0.000 HD
ATOM     27  H   UNL     1       0.367   1.802  21.892  0.00  0.00    +0.000 HD
ENDBRANCH  23  25
ENDBRANCH   8  21
TORSDOF 4
ENDMDL
