MODEL 1
REMARK VINA RESULT:      -7.6      0.000      0.000
REMARK  Name = 
REMARK  9 active torsions:
REMARK  status: ('A' for Active; 'I' for Inactive)
REMARK    1  A    between atoms: C_2  and  C_3
REMARK    2  A    between atoms: C_3  and  C_4
REMARK    3  A    between atoms: C_4  and  C_5
REMARK    4  A    between atoms: C_7  and  O_8
REMARK    5  A    between atoms: N_9  and  C_10
REMARK    6  A    between atoms: C_10  and  C_11
REMARK    7  A    between atoms: N_18  and  C_19
REMARK    8  A    between atoms: C_19  and  C_20
REMARK    9  A    between atoms: C_20  and  C_21
REMARK                            x       y       z     vdW  Elec       q    Type
REMARK                         _______ _______ _______ _____ _____    ______ ____
ROOT
ATOM      1  C   UNL     1       1.081   2.327  19.032  0.00  0.00    +0.000 C 
ENDROOT
BRANCH   1   2
ATOM      2  C   UNL     1       2.286   2.002  18.153  0.00  0.00    +0.000 C 
ATOM      3  N   UNL     1       3.471   1.717  19.019  0.00  0.00    +0.000 NA
ATOM      4  C   UNL     1       4.190   2.777  18.863  0.00  0.00    +0.000 C 
ATOM      5  N   UNL     1       3.789   3.736  18.026  0.00  0.00    +0.000 N 
ATOM      6  C   UNL     1       2.688   3.261  17.391  0.00  0.00    +0.000 C 
ATOM      7  O   UNL     1       2.119   3.736  16.426  0.00  0.00    +0.000 OA
BRANCH   4   8
ATOM      8  O   UNL     1       5.347   2.923  19.507  0.00  0.00    +0.000 OA
ATOM      9  H   UNL     1       5.986   2.315  19.101  0.00  0.00    +0.000 HD
ENDBRANCH   4   8
BRANCH   5  10
ATOM     10  C   UNL     1       4.429   5.002  17.762  0.00  0.00    +0.000 C 
BRANCH  10  11
ATOM     11  C   UNL     1       5.467   4.841  16.702  0.00  0.00    +0.000 A 
ATOM     12  C   UNL     1       6.807   4.501  16.711  0.00  0.00    +0.000 A 
ATOM     13  C   UNL     1       7.258   4.600  15.371  0.00  0.00    +0.000 A 
ATOM     14  C   UNL     1       6.165   4.972  14.626  0.00  0.00    +0.000 A 
ATOM     15  O   UNL     1       5.075   5.119  15.422  0.00  0.00    +0.000 OA
ENDBRANCH  10  11
ENDBRANCH   5  10
ENDBRANCH   1   2
BRANCH   1  16
ATOM     16  C   UNL     1       1.349   2.196  20.530  0.00  0.00    +0.000 C 
BRANCH  16  18
ATOM     17  O   UNL     1       2.344   3.662  22.183  0.00  0.00    +0.000 OA
ATOM     18  C   UNL     1       1.713   3.540  21.139  0.00  0.00    +0.000 C 
ATOM     19  N   UNL     1       1.268   4.619  20.402  0.00  0.00    +0.000 N 
ATOM     20  H   UNL     1       0.649   4.455  19.618  0.00  0.00    +0.000 HD
BRANCH  19  21
ATOM     21  C   UNL     1       1.506   5.978  20.865  0.00  0.00    +0.000 C 
BRANCH  21  22
ATOM     22  C   UNL     1       2.373   6.784  19.897  0.00  0.00    +0.000 C 
BRANCH  22  23
ATOM     23  C   UNL     1       1.788   8.141  19.578  0.00  0.00    +0.000 A 
ATOM     24  C   UNL     1       1.937   8.701  18.300  0.00  0.00    +0.000 A 
ATOM     25  C   UNL     1       1.393   9.955  18.008  0.00  0.00    +0.000 A 
ATOM     26  C   UNL     1       0.701  10.658  18.992  0.00  0.00    +0.000 A 
ATOM     27 CL   UNL     1       0.026  12.200  18.630  0.00  0.00    +0.000 Cl
ATOM     28  C   UNL     1       0.550  10.117  20.266  0.00  0.00    +0.000 A 
ATOM     29  C   UNL     1       1.095   8.864  20.560  0.00  0.00    +0.000 A 
ENDBRANCH  22  23
ENDBRANCH  21  22
ENDBRANCH  19  21
ENDBRANCH  16  18
ENDBRANCH   1  16
TORSDOF 9
ENDMDL
MODEL 2
REMARK VINA RESULT:      -7.5      2.090      2.947
REMARK  Name = 
REMARK  9 active torsions:
REMARK  status: ('A' for Active; 'I' for Inactive)
REMARK    1  A    between atoms: C_2  and  C_3
REMARK    2  A    between atoms: C_3  and  C_4
REMARK    3  A    between atoms: C_4  and  C_5
REMARK    4  A    between atoms: C_7  and  O_8
REMARK    5  A    between atoms: N_9  and  C_10
REMARK    6  A    between atoms: C_10  and  C_11
REMARK    7  A    between atoms: N_18  and  C_19
REMARK    8  A    between atoms: C_19  and  C_20
REMARK    9  A    between atoms: C_20  and  C_21
REMARK                            x       y       z     vdW  Elec       q    Type
REMARK                         _______ _______ _______ _____ _____    ______ ____
ROOT
ATOM      1  C   UNL     1       1.610   4.866  20.384  0.00  0.00    +0.000 C 
ENDROOT
BRANCH   1   2
ATOM      2  C   UNL     1       1.746   3.474  19.773  0.00  0.00    +0.000 C 
ATOM      3  N   UNL     1       2.927   2.780  20.373  0.00  0.00    +0.000 NA
ATOM      4  C   UNL     1       3.786   2.814  19.412  0.00  0.00    +0.000 C 
ATOM      5  N   UNL     1       3.448   3.340  18.234  0.00  0.00    +0.000 N 
ATOM      6  C   UNL     1       2.121   3.621  18.302  0.00  0.00    +0.000 C 
ATOM      7  O   UNL     1       1.379   3.942  17.393  0.00  0.00    +0.000 OA
BRANCH   4   8
ATOM      8  O   UNL     1       5.008   2.305  19.566  0.00  0.00    +0.000 OA
ATOM      9  H   UNL     1       5.402   2.220  18.682  0.00  0.00    +0.000 HD
ENDBRANCH   4   8
BRANCH   5  10
ATOM     10  C   UNL     1       4.282   3.509  17.068  0.00  0.00    +0.000 C 
BRANCH  10  11
ATOM     11  C   UNL     1       5.080   4.764  17.187  0.00  0.00    +0.000 A 
ATOM     12  C   UNL     1       4.931   6.049  16.699  0.00  0.00    +0.000 A 
ATOM     13  C   UNL     1       6.082   6.771  17.103  0.00  0.00    +0.000 A 
ATOM     14  C   UNL     1       6.850   5.891  17.827  0.00  0.00    +0.000 A 
ATOM     15  O   UNL     1       6.252   4.674  17.886  0.00  0.00    +0.000 OA
ENDBRANCH  10  11
ENDBRANCH   5  10
ENDBRANCH   1   2
BRANCH   1  16
ATOM     16  C   UNL     1       2.711   5.840  19.968  0.00  0.00    +0.000 C 
BRANCH  16  18
ATOM     17  O   UNL     1       1.516   7.812  20.710  0.00  0.00    +0.000 OA
ATOM     18  C   UNL     1       2.167   7.253  19.835  0.00  0.00    +0.000 C 
ATOM     19  N   UNL     1       2.478   7.854  18.632  0.00  0.00    +0.000 N 
ATOM     20  H   UNL     1       2.910   7.299  17.904  0.00  0.00    +0.000 HD
BRANCH  19  21
ATOM     21  C   UNL     1       2.003   9.197  18.332  0.00  0.00    +0.000 C 
BRANCH  21  22
ATOM     22  C   UNL     1       0.650   9.194  17.620  0.00  0.00    +0.000 C 
BRANCH  22  23
ATOM     23  C   UNL     1      -0.353  10.123  18.265  0.00  0.00    +0.000 A 
ATOM     24  C   UNL     1      -1.642  10.266  17.730  0.00  0.00    +0.000 A 
ATOM     25  C   UNL     1      -2.568  11.124  18.331  0.00  0.00    +0.000 A 
ATOM     26  C   UNL     1      -2.209  11.848  19.465  0.00  0.00    +0.000 A 
ATOM     27 CL   UNL     1      -3.350  12.901  20.208  0.00  0.00    +0.000 Cl
ATOM     28  C   UNL     1      -0.931  11.721  20.004  0.00  0.00    +0.000 A 
ATOM     29  C   UNL     1      -0.005  10.864  19.404  0.00  0.00    +0.000 A 
ENDBRANCH  22  23
ENDBRANCH  21  22
ENDBRANCH  19  21
ENDBRANCH  16  18
ENDBRANCH   1  16
TORSDOF 9
ENDMDL
MODEL 3
REMARK VINA RESULT:      -7.4      2.378      3.392
REMARK  Name = 
REMARK  9 active torsions:
REMARK  status: ('A' for Active; 'I' for Inactive)
REMARK    1  A    between atoms: C_2  and  C_3
REMARK    2  A    between atoms: C_3  and  C_4
REMARK    3  A    between atoms: C_4  and  C_5
REMARK    4  A    between atoms: C_7  and  O_8
REMARK    5  A    between atoms: N_9  and  C_10
REMARK    6  A    between atoms: C_10  and  C_11
REMARK    7  A    between atoms: N_18  and  C_19
REMARK    8  A    between atoms: C_19  and  C_20
REMARK    9  A    between atoms: C_20  and  C_21
REMARK                            x       y       z     vdW  Elec       q    Type
REMARK                         _______ _______ _______ _____ _____    ______ ____
ROOT
ATOM      1  C   UNL     1       1.825   4.740  20.649  0.00  0.00    +0.000 C 
ENDROOT
BRANCH   1   2
ATOM      2  C   UNL     1       1.873   3.348  20.023  0.00  0.00    +0.000 C 
ATOM      3  N   UNL     1       3.080   2.619  20.522  0.00  0.00    +0.000 NA
ATOM      4  C   UNL     1       3.860   2.637  19.495  0.00  0.00    +0.000 C 
ATOM      5  N   UNL     1       3.441   3.179  18.351  0.00  0.00    +0.000 N 
ATOM      6  C   UNL     1       2.133   3.495  18.527  0.00  0.00    +0.000 C 
ATOM      7  O   UNL     1       1.328   3.842  17.683  0.00  0.00    +0.000 OA
BRANCH   4   8
ATOM      8  O   UNL     1       5.076   2.094  19.547  0.00  0.00    +0.000 OA
ATOM      9  H   UNL     1       5.317   1.830  18.645  0.00  0.00    +0.000 HD
ENDBRANCH   4   8
BRANCH   5  10
ATOM     10  C   UNL     1       4.183   3.334  17.122  0.00  0.00    +0.000 C 
BRANCH  10  11
ATOM     11  C   UNL     1       4.988   4.590  17.165  0.00  0.00    +0.000 A 
ATOM     12  C   UNL     1       4.791   5.876  16.696  0.00  0.00    +0.000 A 
ATOM     13  C   UNL     1       5.975   6.598  16.986  0.00  0.00    +0.000 A 
ATOM     14  C   UNL     1       6.811   5.718  17.630  0.00  0.00    +0.000 A 
ATOM     15  O   UNL     1       6.223   4.500  17.745  0.00  0.00    +0.000 OA
ENDBRANCH  10  11
ENDBRANCH   5  10
ENDBRANCH   1   2
BRANCH   1  16
ATOM     16  C   UNL     1       2.849   5.718  20.076  0.00  0.00    +0.000 C 
BRANCH  16  18
ATOM     17  O   UNL     1       2.229   7.676  18.790  0.00  0.00    +0.000 OA
ATOM     18  C   UNL     1       2.233   7.091  19.868  0.00  0.00    +0.000 C 
ATOM     19  N   UNL     1       1.671   7.624  21.011  0.00  0.00    +0.000 N 
ATOM     20  H   UNL     1       1.815   7.149  21.894  0.00  0.00    +0.000 HD
BRANCH  19  21
ATOM     21  C   UNL     1       1.069   8.948  20.991  0.00  0.00    +0.000 C 
BRANCH  21  22
ATOM     22  C   UNL     1       0.140   9.188  22.181  0.00  0.00    +0.000 C 
BRANCH  22  23
ATOM     23  C   UNL     1      -0.661  10.463  22.051  0.00  0.00    +0.000 A 
ATOM     24  C   UNL     1      -1.325  11.007  23.161  0.00  0.00    +0.000 A 
ATOM     25  C   UNL     1      -2.063  12.188  23.038  0.00  0.00    +0.000 A 
ATOM     26  C   UNL     1      -2.145  12.829  21.804  0.00  0.00    +0.000 A 
ATOM     27 CL   UNL     1      -3.049  14.286  21.653  0.00  0.00    +0.000 Cl
ATOM     28  C   UNL     1      -1.496  12.299  20.692  0.00  0.00    +0.000 A 
ATOM     29  C   UNL     1      -0.759  11.117  20.814  0.00  0.00    +0.000 A 
ENDBRANCH  22  23
ENDBRANCH  21  22
ENDBRANCH  19  21
ENDBRANCH  16  18
ENDBRANCH   1  16
TORSDOF 9
ENDMDL
MODEL 4
REMARK VINA RESULT:      -7.3      2.302      3.127
REMARK  Name = 
REMARK  9 active torsions:
REMARK  status: ('A' for Active; 'I' for Inactive)
REMARK    1  A    between atoms: C_2  and  C_3
REMARK    2  A    between atoms: C_3  and  C_4
REMARK    3  A    between atoms: C_4  and  C_5
REMARK    4  A    between atoms: C_7  and  O_8
REMARK    5  A    between atoms: N_9  and  C_10
REMARK    6  A    between atoms: C_10  and  C_11
REMARK    7  A    between atoms: N_18  and  C_19
REMARK    8  A    between atoms: C_19  and  C_20
REMARK    9  A    between atoms: C_20  and  C_21
REMARK                            x       y       z     vdW  Elec       q    Type
REMARK                         _______ _______ _______ _____ _____    ______ ____
ROOT
ATOM      1  C   UNL     1       3.909   4.142  19.590  0.00  0.00    +0.000 C 
ENDROOT
BRANCH   1   2
ATOM      2  C   UNL     1       3.442   4.166  18.137  0.00  0.00    +0.000 C 
ATOM      3  N   UNL     1       4.169   3.113  17.364  0.00  0.00    +0.000 NA
ATOM      4  C   UNL     1       4.996   3.807  16.658  0.00  0.00    +0.000 C 
ATOM      5  N   UNL     1       4.975   5.139  16.727  0.00  0.00    +0.000 N 
ATOM      6  C   UNL     1       3.907   5.471  17.497  0.00  0.00    +0.000 C 
ATOM      7  O   UNL     1       3.422   6.573  17.665  0.00  0.00    +0.000 OA
BRANCH   4   8
ATOM      8  O   UNL     1       5.860   3.215  15.834  0.00  0.00    +0.000 OA
ATOM      9  H   UNL     1       6.751   3.355  16.196  0.00  0.00    +0.000 HD
ENDBRANCH   4   8
BRANCH   5  10
ATOM     10  C   UNL     1       5.848   6.073  16.056  0.00  0.00    +0.000 C 
BRANCH  10  11
ATOM     11  C   UNL     1       6.832   6.640  17.025  0.00  0.00    +0.000 A 
ATOM     12  C   UNL     1       7.480   6.143  18.140  0.00  0.00    +0.000 A 
ATOM     13  C   UNL     1       8.237   7.214  18.679  0.00  0.00    +0.000 A 
ATOM     14  C   UNL     1       8.021   8.289  17.850  0.00  0.00    +0.000 A 
ATOM     15  O   UNL     1       7.174   7.951  16.844  0.00  0.00    +0.000 OA
ENDBRANCH  10  11
ENDBRANCH   5  10
ENDBRANCH   1   2
BRANCH   1  16
ATOM     16  C   UNL     1       2.775   4.021  20.607  0.00  0.00    +0.000 C 
BRANCH  16  18
ATOM     17  O   UNL     1       0.596   5.042  20.320  0.00  0.00    +0.000 OA
ATOM     18  C   UNL     1       1.804   5.183  20.481  0.00  0.00    +0.000 C 
ATOM     19  N   UNL     1       2.408   6.421  20.565  0.00  0.00    +0.000 N 
ATOM     20  H   UNL     1       3.419   6.472  20.573  0.00  0.00    +0.000 HD
BRANCH  19  21
ATOM     21  C   UNL     1       1.623   7.638  20.429  0.00  0.00    +0.000 C 
BRANCH  21  22
ATOM     22  C   UNL     1       0.966   8.061  21.744  0.00  0.00    +0.000 C 
BRANCH  22  23
ATOM     23  C   UNL     1       0.187   9.351  21.620  0.00  0.00    +0.000 A 
ATOM     24  C   UNL     1      -0.254  10.032  22.765  0.00  0.00    +0.000 A 
ATOM     25  C   UNL     1      -0.972  11.226  22.647  0.00  0.00    +0.000 A 
ATOM     26  C   UNL     1      -1.257  11.742  21.385  0.00  0.00    +0.000 A 
ATOM     27 CL   UNL     1      -2.137  13.214  21.240  0.00  0.00    +0.000 Cl
ATOM     28  C   UNL     1      -0.832  11.074  20.240  0.00  0.00    +0.000 A 
ATOM     29  C   UNL     1      -0.115   9.880  20.356  0.00  0.00    +0.000 A 
ENDBRANCH  22  23
ENDBRANCH  21  22
ENDBRANCH  19  21
ENDBRANCH  16  18
ENDBRANCH   1  16
TORSDOF 9
ENDMDL
MODEL 5
REMARK VINA RESULT:      -7.3      2.322      3.163
REMARK  Name = 
REMARK  9 active torsions:
REMARK  status: ('A' for Active; 'I' for Inactive)
REMARK    1  A    between atoms: C_2  and  C_3
REMARK    2  A    between atoms: C_3  and  C_4
REMARK    3  A    between atoms: C_4  and  C_5
REMARK    4  A    between atoms: C_7  and  O_8
REMARK    5  A    between atoms: N_9  and  C_10
REMARK    6  A    between atoms: C_10  and  C_11
REMARK    7  A    between atoms: N_18  and  C_19
REMARK    8  A    between atoms: C_19  and  C_20
REMARK    9  A    between atoms: C_20  and  C_21
REMARK                            x       y       z     vdW  Elec       q    Type
REMARK                         _______ _______ _______ _____ _____    ______ ____
ROOT
ATOM      1  C   UNL     1       1.476   4.722  20.276  0.00  0.00    +0.000 C 
ENDROOT
BRANCH   1   2
ATOM      2  C   UNL     1       1.874   3.365  19.700  0.00  0.00    +0.000 C 
ATOM      3  N   UNL     1       3.190   2.948  20.276  0.00  0.00    +0.000 NA
ATOM      4  C   UNL     1       3.995   3.121  19.283  0.00  0.00    +0.000 C 
ATOM      5  N   UNL     1       3.520   3.525  18.104  0.00  0.00    +0.000 N 
ATOM      6  C   UNL     1       2.167   3.534  18.213  0.00  0.00    +0.000 C 
ATOM      7  O   UNL     1       1.347   3.665  17.324  0.00  0.00    +0.000 OA
BRANCH   4   8
ATOM      8  O   UNL     1       5.299   2.877  19.406  0.00  0.00    +0.000 OA
ATOM      9  H   UNL     1       5.570   3.176  20.289  0.00  0.00    +0.000 HD
ENDBRANCH   4   8
BRANCH   5  10
ATOM     10  C   UNL     1       4.266   3.819  16.904  0.00  0.00    +0.000 C 
BRANCH  10  11
ATOM     11  C   UNL     1       5.073   5.061  17.093  0.00  0.00    +0.000 A 
ATOM     12  C   UNL     1       4.791   6.412  17.017  0.00  0.00    +0.000 A 
ATOM     13  C   UNL     1       6.017   7.093  17.226  0.00  0.00    +0.000 A 
ATOM     14  C   UNL     1       6.963   6.119  17.436  0.00  0.00    +0.000 A 
ATOM     15  O   UNL     1       6.402   4.885  17.360  0.00  0.00    +0.000 OA
ENDBRANCH  10  11
ENDBRANCH   5  10
ENDBRANCH   1   2
BRANCH   1  16
ATOM     16  C   UNL     1       2.528   5.813  20.087  0.00  0.00    +0.000 C 
BRANCH  16  18
ATOM     17  O   UNL     1       1.485   7.589  21.363  0.00  0.00    +0.000 OA
ATOM     18  C   UNL     1       1.924   7.193  20.289  0.00  0.00    +0.000 C 
ATOM     19  N   UNL     1       1.917   7.966  19.146  0.00  0.00    +0.000 N 
ATOM     20  H   UNL     1       2.179   7.541  18.265  0.00  0.00    +0.000 HD
BRANCH  19  21
ATOM     21  C   UNL     1       1.342   9.303  19.161  0.00  0.00    +0.000 C 
BRANCH  21  22
ATOM     22  C   UNL     1       0.672   9.668  17.836  0.00  0.00    +0.000 C 
BRANCH  22  23
ATOM     23  C   UNL     1      -0.699  10.276  18.022  0.00  0.00    +0.000 A 
ATOM     24  C   UNL     1      -0.901  11.320  18.936  0.00  0.00    +0.000 A 
ATOM     25  C   UNL     1      -2.170  11.882  19.104  0.00  0.00    +0.000 A 
ATOM     26  C   UNL     1      -3.245  11.400  18.361  0.00  0.00    +0.000 A 
ATOM     27 CL   UNL     1      -4.807  12.095  18.564  0.00  0.00    +0.000 Cl
ATOM     28  C   UNL     1      -3.062  10.360  17.454  0.00  0.00    +0.000 A 
ATOM     29  C   UNL     1      -1.794   9.797  17.287  0.00  0.00    +0.000 A 
ENDBRANCH  22  23
ENDBRANCH  21  22
ENDBRANCH  19  21
ENDBRANCH  16  18
ENDBRANCH   1  16
TORSDOF 9
ENDMDL
MODEL 6
REMARK VINA RESULT:      -7.3      1.955      2.846
REMARK  Name = 
REMARK  9 active torsions:
REMARK  status: ('A' for Active; 'I' for Inactive)
REMARK    1  A    between atoms: C_2  and  C_3
REMARK    2  A    between atoms: C_3  and  C_4
REMARK    3  A    between atoms: C_4  and  C_5
REMARK    4  A    between atoms: C_7  and  O_8
REMARK    5  A    between atoms: N_9  and  C_10
REMARK    6  A    between atoms: C_10  and  C_11
REMARK    7  A    between atoms: N_18  and  C_19
REMARK    8  A    between atoms: C_19  and  C_20
REMARK    9  A    between atoms: C_20  and  C_21
REMARK                            x       y       z     vdW  Elec       q    Type
REMARK                         _______ _______ _______ _____ _____    ______ ____
ROOT
ATOM      1  C   UNL     1       1.648   4.939  20.319  0.00  0.00    +0.000 C 
ENDROOT
BRANCH   1   2
ATOM      2  C   UNL     1       1.740   3.544  19.704  0.00  0.00    +0.000 C 
ATOM      3  N   UNL     1       2.865   2.793  20.340  0.00  0.00    +0.000 NA
ATOM      4  C   UNL     1       3.759   2.792  19.409  0.00  0.00    +0.000 C 
ATOM      5  N   UNL     1       3.486   3.339  18.224  0.00  0.00    +0.000 N 
ATOM      6  C   UNL     1       2.172   3.681  18.247  0.00  0.00    +0.000 C 
ATOM      7  O   UNL     1       1.478   4.041  17.316  0.00  0.00    +0.000 OA
BRANCH   4   8
ATOM      8  O   UNL     1       4.949   2.226  19.602  0.00  0.00    +0.000 OA
ATOM      9  H   UNL     1       4.926   1.348  19.186  0.00  0.00    +0.000 HD
ENDBRANCH   4   8
BRANCH   5  10
ATOM     10  C   UNL     1       4.367   3.474  17.088  0.00  0.00    +0.000 C 
BRANCH  10  11
ATOM     11  C   UNL     1       5.251   4.664  17.265  0.00  0.00    +0.000 A 
ATOM     12  C   UNL     1       6.529   4.849  17.757  0.00  0.00    +0.000 A 
ATOM     13  C   UNL     1       6.774   6.245  17.733  0.00  0.00    +0.000 A 
ATOM     14  C   UNL     1       5.642   6.822  17.211  0.00  0.00    +0.000 A 
ATOM     15  O   UNL     1       4.714   5.874  16.923  0.00  0.00    +0.000 OA
ENDBRANCH  10  11
ENDBRANCH   5  10
ENDBRANCH   1   2
BRANCH   1  16
ATOM     16  C   UNL     1       2.816   5.856  19.962  0.00  0.00    +0.000 C 
BRANCH  16  18
ATOM     17  O   UNL     1       1.772   7.963  20.546  0.00  0.00    +0.000 OA
ATOM     18  C   UNL     1       2.336   7.274  19.703  0.00  0.00    +0.000 C 
ATOM     19  N   UNL     1       2.595   7.720  18.422  0.00  0.00    +0.000 N 
ATOM     20  H   UNL     1       2.950   7.064  17.738  0.00  0.00    +0.000 HD
BRANCH  19  21
ATOM     21  C   UNL     1       2.169   9.046  18.001  0.00  0.00    +0.000 C 
BRANCH  21  22
ATOM     22  C   UNL     1       0.689   9.091  17.618  0.00  0.00    +0.000 C 
BRANCH  22  23
ATOM     23  C   UNL     1      -0.062  10.202  18.316  0.00  0.00    +0.000 A 
ATOM     24  C   UNL     1       0.616  11.125  19.126  0.00  0.00    +0.000 A 
ATOM     25  C   UNL     1      -0.082  12.153  19.768  0.00  0.00    +0.000 A 
ATOM     26  C   UNL     1      -1.461  12.260  19.608  0.00  0.00    +0.000 A 
ATOM     27 CL   UNL     1      -2.320  13.527  20.394  0.00  0.00    +0.000 Cl
ATOM     28  C   UNL     1      -2.149  11.347  18.812  0.00  0.00    +0.000 A 
ATOM     29  C   UNL     1      -1.453  10.319  18.171  0.00  0.00    +0.000 A 
ENDBRANCH  22  23
ENDBRANCH  21  22
ENDBRANCH  19  21
ENDBRANCH  16  18
ENDBRANCH   1  16
TORSDOF 9
ENDMDL
MODEL 7
REMARK VINA RESULT:      -7.3      3.085      4.286
REMARK  Name = 
REMARK  9 active torsions:
REMARK  status: ('A' for Active; 'I' for Inactive)
REMARK    1  A    between atoms: C_2  and  C_3
REMARK    2  A    between atoms: C_3  and  C_4
REMARK    3  A    between atoms: C_4  and  C_5
REMARK    4  A    between atoms: C_7  and  O_8
REMARK    5  A    between atoms: N_9  and  C_10
REMARK    6  A    between atoms: C_10  and  C_11
REMARK    7  A    between atoms: N_18  and  C_19
REMARK    8  A    between atoms: C_19  and  C_20
REMARK    9  A    between atoms: C_20  and  C_21
REMARK                            x       y       z     vdW  Elec       q    Type
REMARK                         _______ _______ _______ _____ _____    ______ ____
ROOT
ATOM      1  C   UNL     1       2.501   6.882  18.915  0.00  0.00    +0.000 C 
ENDROOT
BRANCH   1   2
ATOM      2  C   UNL     1       2.317   5.433  19.359  0.00  0.00    +0.000 C 
ATOM      3  N   UNL     1       3.518   4.994  20.133  0.00  0.00    +0.000 NA
ATOM      4  C   UNL     1       4.114   4.209  19.300  0.00  0.00    +0.000 C 
ATOM      5  N   UNL     1       3.561   3.956  18.113  0.00  0.00    +0.000 N 
ATOM      6  C   UNL     1       2.335   4.538  18.123  0.00  0.00    +0.000 C 
ATOM      7  O   UNL     1       1.435   4.400  17.316  0.00  0.00    +0.000 OA
BRANCH   4   8
ATOM      8  O   UNL     1       5.267   3.621  19.615  0.00  0.00    +0.000 OA
ATOM      9  H   UNL     1       5.873   4.314  19.924  0.00  0.00    +0.000 HD
ENDBRANCH   4   8
BRANCH   5  10
ATOM     10  C   UNL     1       4.098   3.152  17.041  0.00  0.00    +0.000 C 
BRANCH  10  11
ATOM     11  C   UNL     1       5.144   3.917  16.301  0.00  0.00    +0.000 A 
ATOM     12  C   UNL     1       5.248   4.406  15.012  0.00  0.00    +0.000 A 
ATOM     13  C   UNL     1       6.539   4.981  14.901  0.00  0.00    +0.000 A 
ATOM     14  C   UNL     1       7.134   4.826  16.130  0.00  0.00    +0.000 A 
ATOM     15  O   UNL     1       6.297   4.185  16.986  0.00  0.00    +0.000 OA
ENDBRANCH  10  11
ENDBRANCH   5  10
ENDBRANCH   1   2
BRANCH   1  16
ATOM     16  C   UNL     1       1.904   7.910  19.875  0.00  0.00    +0.000 C 
BRANCH  16  18
ATOM     17  O   UNL     1       1.719   9.404  17.976  0.00  0.00    +0.000 OA
ATOM     18  C   UNL     1       1.380   9.120  19.120  0.00  0.00    +0.000 C 
ATOM     19  N   UNL     1       0.481   9.876  19.844  0.00  0.00    +0.000 N 
ATOM     20  H   UNL     1       0.337   9.661  20.823  0.00  0.00    +0.000 HD
BRANCH  19  21
ATOM     21  C   UNL     1      -0.090  11.089  19.278  0.00  0.00    +0.000 C 
BRANCH  21  22
ATOM     22  C   UNL     1      -1.618  11.101  19.336  0.00  0.00    +0.000 C 
BRANCH  22  23
ATOM     23  C   UNL     1      -2.257  10.826  17.995  0.00  0.00    +0.000 A 
ATOM     24  C   UNL     1      -1.689   9.898  17.109  0.00  0.00    +0.000 A 
ATOM     25  C   UNL     1      -2.284   9.644  15.870  0.00  0.00    +0.000 A 
ATOM     26  C   UNL     1      -3.446  10.320  15.507  0.00  0.00    +0.000 A 
ATOM     27 CL   UNL     1      -4.182  10.004  13.983  0.00  0.00    +0.000 Cl
ATOM     28  C   UNL     1      -4.018  11.249  16.372  0.00  0.00    +0.000 A 
ATOM     29  C   UNL     1      -3.423  11.505  17.611  0.00  0.00    +0.000 A 
ENDBRANCH  22  23
ENDBRANCH  21  22
ENDBRANCH  19  21
ENDBRANCH  16  18
ENDBRANCH   1  16
TORSDOF 9
ENDMDL
MODEL 8
REMARK VINA RESULT:      -7.2      5.250      7.211
REMARK  Name = 
REMARK  9 active torsions:
REMARK  status: ('A' for Active; 'I' for Inactive)
REMARK    1  A    between atoms: C_2  and  C_3
REMARK    2  A    between atoms: C_3  and  C_4
REMARK    3  A    between atoms: C_4  and  C_5
REMARK    4  A    between atoms: C_7  and  O_8
REMARK    5  A    between atoms: N_9  and  C_10
REMARK    6  A    between atoms: C_10  and  C_11
REMARK    7  A    between atoms: N_18  and  C_19
REMARK    8  A    between atoms: C_19  and  C_20
REMARK    9  A    between atoms: C_20  and  C_21
REMARK                            x       y       z     vdW  Elec       q    Type
REMARK                         _______ _______ _______ _____ _____    ______ ____
ROOT
ATOM      1  C   UNL     1       5.364   5.575  16.920  0.00  0.00    +0.000 C 
ENDROOT
BRANCH   1   2
ATOM      2  C   UNL     1       4.882   4.241  17.484  0.00  0.00    +0.000 C 
ATOM      3  N   UNL     1       3.618   3.837  16.794  0.00  0.00    +0.000 NA
ATOM      4  C   UNL     1       2.727   4.051  17.702  0.00  0.00    +0.000 C 
ATOM      5  N   UNL     1       3.096   4.472  18.912  0.00  0.00    +0.000 N 
ATOM      6  C   UNL     1       4.453   4.450  18.933  0.00  0.00    +0.000 C 
ATOM      7  O   UNL     1       5.188   4.585  19.893  0.00  0.00    +0.000 OA
BRANCH   4   8
ATOM      8  O   UNL     1       1.435   3.831  17.460  0.00  0.00    +0.000 OA
ATOM      9  H   UNL     1       1.167   4.426  16.741  0.00  0.00    +0.000 HD
ENDBRANCH   4   8
BRANCH   5  10
ATOM     10  C   UNL     1       2.246   4.809  20.029  0.00  0.00    +0.000 C 
BRANCH  10  11
ATOM     11  C   UNL     1       1.961   6.275  20.032  0.00  0.00    +0.000 A 
ATOM     12  C   UNL     1       2.231   7.309  19.156  0.00  0.00    +0.000 A 
ATOM     13  C   UNL     1       1.765   8.496  19.776  0.00  0.00    +0.000 A 
ATOM     14  C   UNL     1       1.224   8.111  20.979  0.00  0.00    +0.000 A 
ATOM     15  O   UNL     1       1.335   6.768  21.143  0.00  0.00    +0.000 OA
ENDBRANCH  10  11
ENDBRANCH   5  10
ENDBRANCH   1   2
BRANCH   1  16
ATOM     16  C   UNL     1       6.879   5.667  16.745  0.00  0.00    +0.000 C 
BRANCH  16  18
ATOM     17  O   UNL     1       7.710   6.220  18.953  0.00  0.00    +0.000 OA
ATOM     18  C   UNL     1       7.495   6.573  17.799  0.00  0.00    +0.000 C 
ATOM     19  N   UNL     1       7.795   7.838  17.334  0.00  0.00    +0.000 N 
ATOM     20  H   UNL     1       7.481   8.106  16.410  0.00  0.00    +0.000 HD
BRANCH  19  21
ATOM     21  C   UNL     1       8.360   8.838  18.227  0.00  0.00    +0.000 C 
BRANCH  21  22
ATOM     22  C   UNL     1       8.102  10.266  17.745  0.00  0.00    +0.000 C 
BRANCH  22  23
ATOM     23  C   UNL     1       9.158  11.241  18.213  0.00  0.00    +0.000 A 
ATOM     24  C   UNL     1      10.138  10.846  19.135  0.00  0.00    +0.000 A 
ATOM     25  C   UNL     1      11.115  11.750  19.563  0.00  0.00    +0.000 A 
ATOM     26  C   UNL     1      11.113  13.055  19.077  0.00  0.00    +0.000 A 
ATOM     27 CL   UNL     1      12.318  14.167  19.600  0.00  0.00    +0.000 Cl
ATOM     28  C   UNL     1      10.143  13.464  18.166  0.00  0.00    +0.000 A 
ATOM     29  C   UNL     1       9.165  12.562  17.738  0.00  0.00    +0.000 A 
ENDBRANCH  22  23
ENDBRANCH  21  22
ENDBRANCH  19  21
ENDBRANCH  16  18
ENDBRANCH   1  16
TORSDOF 9
ENDMDL
MODEL 9
REMARK VINA RESULT:      -7.2      2.358      3.375
REMARK  Name = 
REMARK  9 active torsions:
REMARK  status: ('A' for Active; 'I' for Inactive)
REMARK    1  A    between atoms: C_2  and  C_3
REMARK    2  A    between atoms: C_3  and  C_4
REMARK    3  A    between atoms: C_4  and  C_5
REMARK    4  A    between atoms: C_7  and  O_8
REMARK    5  A    between atoms: N_9  and  C_10
REMARK    6  A    between atoms: C_10  and  C_11
REMARK    7  A    between atoms: N_18  and  C_19
REMARK    8  A    between atoms: C_19  and  C_20
REMARK    9  A    between atoms: C_20  and  C_21
REMARK                            x       y       z     vdW  Elec       q    Type
REMARK                         _______ _______ _______ _____ _____    ______ ____
ROOT
ATOM      1  C   UNL     1       4.011   3.934  19.460  0.00  0.00    +0.000 C 
ENDROOT
BRANCH   1   2
ATOM      2  C   UNL     1       4.547   5.362  19.528  0.00  0.00    +0.000 C 
ATOM      3  N   UNL     1       3.866   6.199  18.493  0.00  0.00    +0.000 NA
ATOM      4  C   UNL     1       4.792   6.354  17.608  0.00  0.00    +0.000 C 
ATOM      5  N   UNL     1       6.007   5.846  17.820  0.00  0.00    +0.000 N 
ATOM      6  C   UNL     1       6.008   5.356  19.086  0.00  0.00    +0.000 C 
ATOM      7  O   UNL     1       6.960   4.973  19.738  0.00  0.00    +0.000 OA
BRANCH   4   8
ATOM      8  O   UNL     1       4.563   7.040  16.489  0.00  0.00    +0.000 OA
ATOM      9  H   UNL     1       3.629   7.305  16.495  0.00  0.00    +0.000 HD
ENDBRANCH   4   8
BRANCH   5  10
ATOM     10  C   UNL     1       7.144   5.875  16.932  0.00  0.00    +0.000 C 
BRANCH  10  11
ATOM     11  C   UNL     1       6.840   5.113  15.685  0.00  0.00    +0.000 A 
ATOM     12  C   UNL     1       6.035   4.028  15.393  0.00  0.00    +0.000 A 
ATOM     13  C   UNL     1       6.244   3.726  14.024  0.00  0.00    +0.000 A 
ATOM     14  C   UNL     1       7.144   4.656  13.561  0.00  0.00    +0.000 A 
ATOM     15  O   UNL     1       7.510   5.501  14.559  0.00  0.00    +0.000 OA
ENDBRANCH  10  11
ENDBRANCH   5  10
ENDBRANCH   1   2
BRANCH   1  16
ATOM     16  C   UNL     1       3.014   3.588  20.564  0.00  0.00    +0.000 C 
BRANCH  16  18
ATOM     17  O   UNL     1       0.715   4.156  20.054  0.00  0.00    +0.000 OA
ATOM     18  C   UNL     1       1.800   4.501  20.508  0.00  0.00    +0.000 C 
ATOM     19  N   UNL     1       2.032   5.762  21.019  0.00  0.00    +0.000 N 
ATOM     20  H   UNL     1       2.979   6.025  21.263  0.00  0.00    +0.000 HD
BRANCH  19  21
ATOM     21  C   UNL     1       0.982   6.769  21.007  0.00  0.00    +0.000 C 
BRANCH  21  22
ATOM     22  C   UNL     1       1.529   8.184  20.819  0.00  0.00    +0.000 C 
BRANCH  22  23
ATOM     23  C   UNL     1       0.602   9.247  21.363  0.00  0.00    +0.000 A 
ATOM     24  C   UNL     1       0.174   9.208  22.698  0.00  0.00    +0.000 A 
ATOM     25  C   UNL     1      -0.682  10.193  23.199  0.00  0.00    +0.000 A 
ATOM     26  C   UNL     1      -1.118  11.221  22.366  0.00  0.00    +0.000 A 
ATOM     27 CL   UNL     1      -2.168  12.438  22.983  0.00  0.00    +0.000 Cl
ATOM     28  C   UNL     1      -0.708  11.270  21.036  0.00  0.00    +0.000 A 
ATOM     29  C   UNL     1       0.147  10.285  20.535  0.00  0.00    +0.000 A 
ENDBRANCH  22  23
ENDBRANCH  21  22
ENDBRANCH  19  21
ENDBRANCH  16  18
ENDBRANCH   1  16
TORSDOF 9
ENDMDL
