MODEL 1
REMARK VINA RESULT:      -7.3      0.000      0.000
REMARK  Name = 
REMARK  11 active torsions:
REMARK  status: ('A' for Active; 'I' for Inactive)
REMARK    1  A    between atoms: C_1  and  C_2
REMARK    2  A    between atoms: C_2  and  O_3
REMARK    3  A    between atoms: O_3  and  C_4
REMARK    4  A    between atoms: C_4  and  C_6
REMARK    5  A    between atoms: C_8  and  N_9
REMARK    6  A    between atoms: C_10  and  C_12
REMARK    7  A    between atoms: C_12  and  O_13
REMARK    8  A    between atoms: O_13  and  C_14
REMARK    9  A    between atoms: C_14  and  C_16
REMARK   10  A    between atoms: C_16  and  N_17
REMARK   11  A    between atoms: C_29  and  C_30
REMARK                            x       y       z     vdW  Elec       q    Type
REMARK                         _______ _______ _______ _____ _____    ______ ____
ROOT
ATOM      1  C   UNL     1       8.351   9.390  17.931  0.00  0.00    +0.000 C 
ENDROOT
BRANCH   1   3
ATOM      2  N   UNL     1       6.714   7.787  17.110  0.00  0.00    +0.000 N 
ATOM      3  C   UNL     1       7.802   7.960  17.958  0.00  0.00    +0.000 C 
ATOM      4  O   UNL     1       8.324   7.116  18.681  0.00  0.00    +0.000 OA
ATOM      5  H   UNL     1       6.362   8.595  16.615  0.00  0.00    +0.000 HD
BRANCH   2   8
ATOM      6  C   UNL     1       4.383   4.746  17.036  0.00  0.00    +0.000 A 
ATOM      7  S   UNL     1       4.563   6.295  17.746  0.00  0.00    +0.000 S 
ATOM      8  C   UNL     1       6.004   6.613  16.927  0.00  0.00    +0.000 A 
ATOM      9  C   UNL     1       6.350   5.573  16.094  0.00  0.00    +0.000 A 
ATOM     10  C   UNL     1       5.409   4.482  16.132  0.00  0.00    +0.000 A 
ATOM     11  C   UNL     1       5.566   3.239  15.313  0.00  0.00    +0.000 C 
BRANCH   6  12
ATOM     12  C   UNL     1       3.262   3.939  17.497  0.00  0.00    +0.000 C 
ATOM     13  O   UNL     1       2.412   3.406  16.794  0.00  0.00    +0.000 OA
BRANCH  12  14
ATOM     14  O   UNL     1       3.213   3.946  18.860  0.00  0.00    +0.000 OA
BRANCH  14  16
ATOM     15  C   UNL     1       1.838   5.126  20.412  0.00  0.00    +0.000 C 
ATOM     16  C   UNL     1       1.896   3.975  19.423  0.00  0.00    +0.000 C 
ENDBRANCH  14  16
ENDBRANCH  12  14
ENDBRANCH   6  12
ENDBRANCH   2   8
ENDBRANCH   1   3
BRANCH   1  17
ATOM     17  O   UNL     1       9.050   9.699  19.136  0.00  0.00    +0.000 OA
BRANCH  17  18
ATOM     18  C   UNL     1       9.384  11.011  19.275  0.00  0.00    +0.000 C 
ATOM     19  O   UNL     1       9.662  11.549  20.341  0.00  0.00    +0.000 OA
BRANCH  18  20
ATOM     20  C   UNL     1       9.275  11.739  17.944  0.00  0.00    +0.000 C 
BRANCH  20  21
ATOM     21  N   UNL     1       9.896  13.054  17.996  0.00  0.00    +0.000 N 
ATOM     22  C   UNL     1      11.281  13.109  17.892  0.00  0.00    +0.000 A 
ATOM     23  O   UNL     1      12.031  12.153  17.742  0.00  0.00    +0.000 OA
ATOM     24  C   UNL     1      11.907  14.470  17.981  0.00  0.00    +0.000 A 
ATOM     25  N   UNL     1      11.246  15.572  18.130  0.00  0.00    +0.000 NA
ATOM     26  C   UNL     1       9.845  15.483  18.203  0.00  0.00    +0.000 A 
ATOM     27  C   UNL     1       9.140  16.682  18.355  0.00  0.00    +0.000 A 
ATOM     28  C   UNL     1       7.749  16.688  18.423  0.00  0.00    +0.000 A 
ATOM     29  C   UNL     1       7.053  15.486  18.335  0.00  0.00    +0.000 A 
ATOM     30  C   UNL     1       7.743  14.277  18.187  0.00  0.00    +0.000 A 
ATOM     31  C   UNL     1       9.145  14.259  18.127  0.00  0.00    +0.000 A 
ENDBRANCH  20  21
ENDBRANCH  18  20
ENDBRANCH  17  18
ENDBRANCH   1  17
TORSDOF 9
ENDMDL
MODEL 2
REMARK VINA RESULT:      -7.3      2.827     10.431
REMARK  Name = 
REMARK  11 active torsions:
REMARK  status: ('A' for Active; 'I' for Inactive)
REMARK    1  A    between atoms: C_1  and  C_2
REMARK    2  A    between atoms: C_2  and  O_3
REMARK    3  A    between atoms: O_3  and  C_4
REMARK    4  A    between atoms: C_4  and  C_6
REMARK    5  A    between atoms: C_8  and  N_9
REMARK    6  A    between atoms: C_10  and  C_12
REMARK    7  A    between atoms: C_12  and  O_13
REMARK    8  A    between atoms: O_13  and  C_14
REMARK    9  A    between atoms: C_14  and  C_16
REMARK   10  A    between atoms: C_16  and  N_17
REMARK   11  A    between atoms: C_29  and  C_30
REMARK                            x       y       z     vdW  Elec       q    Type
REMARK                         _______ _______ _______ _____ _____    ______ ____
ROOT
ATOM      1  C   UNL     1       7.938   7.035  17.930  0.00  0.00    +0.000 C 
ENDROOT
BRANCH   1   3
ATOM      2  N   UNL     1       8.994   8.974  18.953  0.00  0.00    +0.000 N 
ATOM      3  C   UNL     1       8.052   8.560  18.020  0.00  0.00    +0.000 C 
ATOM      4  O   UNL     1       7.348   9.271  17.307  0.00  0.00    +0.000 OA
ATOM      5  H   UNL     1       9.460   8.267  19.506  0.00  0.00    +0.000 HD
BRANCH   2   8
ATOM      6  C   UNL     1      10.065  12.643  19.232  0.00  0.00    +0.000 A 
ATOM      7  S   UNL     1       9.892  11.367  18.102  0.00  0.00    +0.000 S 
ATOM      8  C   UNL     1       9.314  10.285  19.262  0.00  0.00    +0.000 A 
ATOM      9  C   UNL     1       9.220  10.877  20.501  0.00  0.00    +0.000 A 
ATOM     10  C   UNL     1       9.639  12.256  20.500  0.00  0.00    +0.000 A 
ATOM     11  C   UNL     1       9.625  13.114  21.727  0.00  0.00    +0.000 C 
BRANCH   6  12
ATOM     12  C   UNL     1      10.657  13.879  18.742  0.00  0.00    +0.000 C 
ATOM     13  O   UNL     1      11.666  14.425  19.174  0.00  0.00    +0.000 OA
BRANCH  12  14
ATOM     14  O   UNL     1       9.858  14.429  17.782  0.00  0.00    +0.000 OA
BRANCH  14  16
ATOM     15  C   UNL     1       8.776  16.459  18.412  0.00  0.00    +0.000 C 
ATOM     16  C   UNL     1       8.613  14.957  18.255  0.00  0.00    +0.000 C 
ENDBRANCH  14  16
ENDBRANCH  12  14
ENDBRANCH   6  12
ENDBRANCH   2   8
ENDBRANCH   1   3
BRANCH   1  17
ATOM     17  O   UNL     1       6.667   6.583  18.398  0.00  0.00    +0.000 OA
BRANCH  17  18
ATOM     18  C   UNL     1       6.407   5.271  18.147  0.00  0.00    +0.000 C 
ATOM     19  O   UNL     1       7.204   4.357  18.326  0.00  0.00    +0.000 OA
BRANCH  18  20
ATOM     20  C   UNL     1       5.028   5.103  17.528  0.00  0.00    +0.000 C 
BRANCH  20  21
ATOM     21  N   UNL     1       3.970   5.423  18.474  0.00  0.00    +0.000 N 
ATOM     22  C   UNL     1       3.391   6.683  18.381  0.00  0.00    +0.000 A 
ATOM     23  O   UNL     1       3.676   7.548  17.562  0.00  0.00    +0.000 OA
ATOM     24  C   UNL     1       2.324   7.009  19.384  0.00  0.00    +0.000 A 
ATOM     25  N   UNL     1       1.911   6.197  20.302  0.00  0.00    +0.000 NA
ATOM     26  C   UNL     1       2.496   4.920  20.351  0.00  0.00    +0.000 A 
ATOM     27  C   UNL     1       2.035   4.048  21.343  0.00  0.00    +0.000 A 
ATOM     28  C   UNL     1       2.551   2.759  21.455  0.00  0.00    +0.000 A 
ATOM     29  C   UNL     1       3.535   2.335  20.568  0.00  0.00    +0.000 A 
ATOM     30  C   UNL     1       4.012   3.197  19.573  0.00  0.00    +0.000 A 
ATOM     31  C   UNL     1       3.505   4.500  19.457  0.00  0.00    +0.000 A 
ENDBRANCH  20  21
ENDBRANCH  18  20
ENDBRANCH  17  18
ENDBRANCH   1  17
TORSDOF 9
ENDMDL
MODEL 3
REMARK VINA RESULT:      -7.2      2.736     10.704
REMARK  Name = 
REMARK  11 active torsions:
REMARK  status: ('A' for Active; 'I' for Inactive)
REMARK    1  A    between atoms: C_1  and  C_2
REMARK    2  A    between atoms: C_2  and  O_3
REMARK    3  A    between atoms: O_3  and  C_4
REMARK    4  A    between atoms: C_4  and  C_6
REMARK    5  A    between atoms: C_8  and  N_9
REMARK    6  A    between atoms: C_10  and  C_12
REMARK    7  A    between atoms: C_12  and  O_13
REMARK    8  A    between atoms: O_13  and  C_14
REMARK    9  A    between atoms: C_14  and  C_16
REMARK   10  A    between atoms: C_16  and  N_17
REMARK   11  A    between atoms: C_29  and  C_30
REMARK                            x       y       z     vdW  Elec       q    Type
REMARK                         _______ _______ _______ _____ _____    ______ ____
ROOT
ATOM      1  C   UNL     1       7.737   7.188  17.873  0.00  0.00    +0.000 C 
ENDROOT
BRANCH   1   3
ATOM      2  N   UNL     1       8.943   9.012  18.942  0.00  0.00    +0.000 N 
ATOM      3  C   UNL     1       8.014   8.692  17.958  0.00  0.00    +0.000 C 
ATOM      4  O   UNL     1       7.436   9.467  17.201  0.00  0.00    +0.000 OA
ATOM      5  H   UNL     1       9.296   8.264  19.525  0.00  0.00    +0.000 HD
BRANCH   2   8
ATOM      6  C   UNL     1      10.422  12.532  19.267  0.00  0.00    +0.000 A 
ATOM      7  S   UNL     1      10.205  11.255  18.145  0.00  0.00    +0.000 S 
ATOM      8  C   UNL     1       9.389  10.283  19.259  0.00  0.00    +0.000 A 
ATOM      9  C   UNL     1       9.248  10.917  20.472  0.00  0.00    +0.000 A 
ATOM     10  C   UNL     1       9.830  12.235  20.492  0.00  0.00    +0.000 A 
ATOM     11  C   UNL     1       9.802  13.123  21.697  0.00  0.00    +0.000 C 
BRANCH   6  12
ATOM     12  C   UNL     1      11.205  13.674  18.817  0.00  0.00    +0.000 C 
ATOM     13  O   UNL     1      12.331  13.639  18.335  0.00  0.00    +0.000 OA
BRANCH  12  14
ATOM     14  O   UNL     1      10.550  14.833  19.115  0.00  0.00    +0.000 OA
BRANCH  14  16
ATOM     15  C   UNL     1      10.075  16.294  17.289  0.00  0.00    +0.000 C 
ATOM     16  C   UNL     1       9.520  15.205  18.191  0.00  0.00    +0.000 C 
ENDBRANCH  14  16
ENDBRANCH  12  14
ENDBRANCH   6  12
ENDBRANCH   2   8
ENDBRANCH   1   3
BRANCH   1  17
ATOM     17  O   UNL     1       6.827   6.890  16.815  0.00  0.00    +0.000 OA
BRANCH  17  18
ATOM     18  C   UNL     1       5.560   6.604  17.223  0.00  0.00    +0.000 C 
ATOM     19  O   UNL     1       4.561   7.227  16.882  0.00  0.00    +0.000 OA
BRANCH  18  20
ATOM     20  C   UNL     1       5.563   5.466  18.232  0.00  0.00    +0.000 C 
BRANCH  20  21
ATOM     21  N   UNL     1       4.453   4.550  18.016  0.00  0.00    +0.000 N 
ATOM     22  C   UNL     1       4.541   3.687  16.930  0.00  0.00    +0.000 A 
ATOM     23  O   UNL     1       5.477   3.612  16.144  0.00  0.00    +0.000 OA
ATOM     24  C   UNL     1       3.373   2.773  16.701  0.00  0.00    +0.000 A 
ATOM     25  N   UNL     1       2.319   2.732  17.450  0.00  0.00    +0.000 NA
ATOM     26  C   UNL     1       2.274   3.597  18.557  0.00  0.00    +0.000 A 
ATOM     27  C   UNL     1       1.133   3.537  19.364  0.00  0.00    +0.000 A 
ATOM     28  C   UNL     1       1.012   4.350  20.488  0.00  0.00    +0.000 A 
ATOM     29  C   UNL     1       2.039   5.229  20.813  0.00  0.00    +0.000 A 
ATOM     30  C   UNL     1       3.186   5.305  20.014  0.00  0.00    +0.000 A 
ATOM     31  C   UNL     1       3.315   4.498  18.874  0.00  0.00    +0.000 A 
ENDBRANCH  20  21
ENDBRANCH  18  20
ENDBRANCH  17  18
ENDBRANCH   1  17
TORSDOF 9
ENDMDL
MODEL 4
REMARK VINA RESULT:      -7.2      5.945      9.702
REMARK  Name = 
REMARK  11 active torsions:
REMARK  status: ('A' for Active; 'I' for Inactive)
REMARK    1  A    between atoms: C_1  and  C_2
REMARK    2  A    between atoms: C_2  and  O_3
REMARK    3  A    between atoms: O_3  and  C_4
REMARK    4  A    between atoms: C_4  and  C_6
REMARK    5  A    between atoms: C_8  and  N_9
REMARK    6  A    between atoms: C_10  and  C_12
REMARK    7  A    between atoms: C_12  and  O_13
REMARK    8  A    between atoms: O_13  and  C_14
REMARK    9  A    between atoms: C_14  and  C_16
REMARK   10  A    between atoms: C_16  and  N_17
REMARK   11  A    between atoms: C_29  and  C_30
REMARK                            x       y       z     vdW  Elec       q    Type
REMARK                         _______ _______ _______ _____ _____    ______ ____
ROOT
ATOM      1  C   UNL     1       2.327   5.635  20.315  0.00  0.00    +0.000 C 
ENDROOT
BRANCH   1   3
ATOM      2  N   UNL     1       1.279   7.642  21.207  0.00  0.00    +0.000 N 
ATOM      3  C   UNL     1       1.910   7.093  20.097  0.00  0.00    +0.000 C 
ATOM      4  O   UNL     1       2.146   7.645  19.026  0.00  0.00    +0.000 OA
ATOM      5  H   UNL     1       1.108   7.042  22.003  0.00  0.00    +0.000 HD
BRANCH   2   8
ATOM      6  C   UNL     1      -0.261  11.050  22.044  0.00  0.00    +0.000 A 
ATOM      7  S   UNL     1       0.108   9.526  22.735  0.00  0.00    +0.000 S 
ATOM      8  C   UNL     1       0.785   8.931  21.308  0.00  0.00    +0.000 A 
ATOM      9  C   UNL     1       0.766   9.877  20.308  0.00  0.00    +0.000 A 
ATOM     10  C   UNL     1       0.174  11.124  20.723  0.00  0.00    +0.000 A 
ATOM     11  C   UNL     1       0.041  12.307  19.815  0.00  0.00    +0.000 C 
BRANCH   6  12
ATOM     12  C   UNL     1      -0.990  11.991  22.881  0.00  0.00    +0.000 C 
ATOM     13  O   UNL     1      -0.565  13.052  23.325  0.00  0.00    +0.000 OA
BRANCH  12  14
ATOM     14  O   UNL     1      -2.208  11.473  23.211  0.00  0.00    +0.000 OA
BRANCH  14  16
ATOM     15  C   UNL     1      -4.021  12.436  24.426  0.00  0.00    +0.000 C 
ATOM     16  C   UNL     1      -3.311  12.379  23.085  0.00  0.00    +0.000 C 
ENDBRANCH  14  16
ENDBRANCH  12  14
ENDBRANCH   6  12
ENDBRANCH   2   8
ENDBRANCH   1   3
BRANCH   1  17
ATOM     17  O   UNL     1       3.600   5.368  19.727  0.00  0.00    +0.000 OA
BRANCH  17  18
ATOM     18  C   UNL     1       3.657   4.219  19.001  0.00  0.00    +0.000 C 
ATOM     19  O   UNL     1       2.685   3.658  18.507  0.00  0.00    +0.000 OA
BRANCH  18  20
ATOM     20  C   UNL     1       5.077   3.675  18.963  0.00  0.00    +0.000 C 
BRANCH  20  21
ATOM     21  N   UNL     1       5.960   4.527  18.180  0.00  0.00    +0.000 N 
ATOM     22  C   UNL     1       6.787   5.399  18.878  0.00  0.00    +0.000 A 
ATOM     23  O   UNL     1       6.857   5.507  20.096  0.00  0.00    +0.000 OA
ATOM     24  C   UNL     1       7.668   6.294  18.056  0.00  0.00    +0.000 A 
ATOM     25  N   UNL     1       7.711   6.289  16.763  0.00  0.00    +0.000 NA
ATOM     26  C   UNL     1       6.883   5.375  16.088  0.00  0.00    +0.000 A 
ATOM     27  C   UNL     1       6.946   5.373  14.691  0.00  0.00    +0.000 A 
ATOM     28  C   UNL     1       6.170   4.491  13.943  0.00  0.00    +0.000 A 
ATOM     29  C   UNL     1       5.325   3.599  14.596  0.00  0.00    +0.000 A 
ATOM     30  C   UNL     1       5.246   3.591  15.994  0.00  0.00    +0.000 A 
ATOM     31  C   UNL     1       6.017   4.481  16.756  0.00  0.00    +0.000 A 
ENDBRANCH  20  21
ENDBRANCH  18  20
ENDBRANCH  17  18
ENDBRANCH   1  17
TORSDOF 9
ENDMDL
MODEL 5
REMARK VINA RESULT:      -7.2      2.637     10.693
REMARK  Name = 
REMARK  11 active torsions:
REMARK  status: ('A' for Active; 'I' for Inactive)
REMARK    1  A    between atoms: C_1  and  C_2
REMARK    2  A    between atoms: C_2  and  O_3
REMARK    3  A    between atoms: O_3  and  C_4
REMARK    4  A    between atoms: C_4  and  C_6
REMARK    5  A    between atoms: C_8  and  N_9
REMARK    6  A    between atoms: C_10  and  C_12
REMARK    7  A    between atoms: C_12  and  O_13
REMARK    8  A    between atoms: O_13  and  C_14
REMARK    9  A    between atoms: C_14  and  C_16
REMARK   10  A    between atoms: C_16  and  N_17
REMARK   11  A    between atoms: C_29  and  C_30
REMARK                            x       y       z     vdW  Elec       q    Type
REMARK                         _______ _______ _______ _____ _____    ______ ____
ROOT
ATOM      1  C   UNL     1       7.139   7.499  17.351  0.00  0.00    +0.000 C 
ENDROOT
BRANCH   1   3
ATOM      2  N   UNL     1       8.072   9.726  17.649  0.00  0.00    +0.000 N 
ATOM      3  C   UNL     1       8.108   8.414  18.105  0.00  0.00    +0.000 C 
ATOM      4  O   UNL     1       8.809   7.958  19.005  0.00  0.00    +0.000 OA
ATOM      5  H   UNL     1       7.477   9.940  16.859  0.00  0.00    +0.000 HD
BRANCH   2   8
ATOM      6  C   UNL     1       9.884  12.973  18.576  0.00  0.00    +0.000 A 
ATOM      7  S   UNL     1       8.607  12.366  17.609  0.00  0.00    +0.000 S 
ATOM      8  C   UNL     1       8.835  10.776  18.128  0.00  0.00    +0.000 A 
ATOM      9  C   UNL     1       9.853  10.689  19.051  0.00  0.00    +0.000 A 
ATOM     10  C   UNL     1      10.466  11.962  19.337  0.00  0.00    +0.000 A 
ATOM     11  C   UNL     1      11.593  12.126  20.309  0.00  0.00    +0.000 C 
BRANCH   6  12
ATOM     12  C   UNL     1      10.201  14.387  18.434  0.00  0.00    +0.000 C 
ATOM     13  O   UNL     1      11.312  14.896  18.525  0.00  0.00    +0.000 OA
BRANCH  12  14
ATOM     14  O   UNL     1       9.052  15.109  18.293  0.00  0.00    +0.000 OA
BRANCH  14  16
ATOM     15  C   UNL     1       7.860  17.129  18.727  0.00  0.00    +0.000 C 
ATOM     16  C   UNL     1       8.838  16.114  19.292  0.00  0.00    +0.000 C 
ENDBRANCH  14  16
ENDBRANCH  12  14
ENDBRANCH   6  12
ENDBRANCH   2   8
ENDBRANCH   1   3
BRANCH   1  17
ATOM     17  O   UNL     1       7.292   6.138  17.755  0.00  0.00    +0.000 OA
BRANCH  17  18
ATOM     18  C   UNL     1       6.328   5.689  18.604  0.00  0.00    +0.000 C 
ATOM     19  O   UNL     1       6.547   5.163  19.689  0.00  0.00    +0.000 OA
BRANCH  18  20
ATOM     20  C   UNL     1       4.948   5.845  17.984  0.00  0.00    +0.000 C 
BRANCH  20  21
ATOM     21  N   UNL     1       4.191   4.603  18.033  0.00  0.00    +0.000 N 
ATOM     22  C   UNL     1       4.518   3.620  17.107  0.00  0.00    +0.000 A 
ATOM     23  O   UNL     1       5.399   3.693  16.259  0.00  0.00    +0.000 OA
ATOM     24  C   UNL     1       3.707   2.358  17.150  0.00  0.00    +0.000 A 
ATOM     25  N   UNL     1       2.751   2.132  17.992  0.00  0.00    +0.000 NA
ATOM     26  C   UNL     1       2.465   3.135  18.935  0.00  0.00    +0.000 A 
ATOM     27  C   UNL     1       1.435   2.875  19.845  0.00  0.00    +0.000 A 
ATOM     28  C   UNL     1       1.094   3.808  20.821  0.00  0.00    +0.000 A 
ATOM     29  C   UNL     1       1.789   5.011  20.892  0.00  0.00    +0.000 A 
ATOM     30  C   UNL     1       2.819   5.290  19.986  0.00  0.00    +0.000 A 
ATOM     31  C   UNL     1       3.164   4.360  18.993  0.00  0.00    +0.000 A 
ENDBRANCH  20  21
ENDBRANCH  18  20
ENDBRANCH  17  18
ENDBRANCH   1  17
TORSDOF 9
ENDMDL
MODEL 6
REMARK VINA RESULT:      -7.2      6.778      9.632
REMARK  Name = 
REMARK  11 active torsions:
REMARK  status: ('A' for Active; 'I' for Inactive)
REMARK    1  A    between atoms: C_1  and  C_2
REMARK    2  A    between atoms: C_2  and  O_3
REMARK    3  A    between atoms: O_3  and  C_4
REMARK    4  A    between atoms: C_4  and  C_6
REMARK    5  A    between atoms: C_8  and  N_9
REMARK    6  A    between atoms: C_10  and  C_12
REMARK    7  A    between atoms: C_12  and  O_13
REMARK    8  A    between atoms: O_13  and  C_14
REMARK    9  A    between atoms: C_14  and  C_16
REMARK   10  A    between atoms: C_16  and  N_17
REMARK   11  A    between atoms: C_29  and  C_30
REMARK                            x       y       z     vdW  Elec       q    Type
REMARK                         _______ _______ _______ _____ _____    ______ ____
ROOT
ATOM      1  C   UNL     1       1.175   9.559  18.426  0.00  0.00    +0.000 C 
ENDROOT
BRANCH   1   3
ATOM      2  N   UNL     1       2.692   7.832  17.629  0.00  0.00    +0.000 N 
ATOM      3  C   UNL     1       2.028   8.328  18.745  0.00  0.00    +0.000 C 
ATOM      4  O   UNL     1       2.066   7.886  19.890  0.00  0.00    +0.000 OA
ATOM      5  H   UNL     1       2.519   8.273  16.736  0.00  0.00    +0.000 HD
BRANCH   2   8
ATOM      6  C   UNL     1       5.426   5.160  17.352  0.00  0.00    +0.000 A 
ATOM      7  S   UNL     1       5.164   6.847  17.204  0.00  0.00    +0.000 S 
ATOM      8  C   UNL     1       3.527   6.728  17.602  0.00  0.00    +0.000 A 
ATOM      9  C   UNL     1       3.169   5.428  17.876  0.00  0.00    +0.000 A 
ATOM     10  C   UNL     1       4.266   4.502  17.751  0.00  0.00    +0.000 A 
ATOM     11  C   UNL     1       4.126   3.032  18.000  0.00  0.00    +0.000 C 
BRANCH   6  12
ATOM     12  C   UNL     1       6.752   4.670  17.005  0.00  0.00    +0.000 C 
ATOM     13  O   UNL     1       7.625   4.315  17.789  0.00  0.00    +0.000 OA
BRANCH  12  14
ATOM     14  O   UNL     1       6.945   4.763  15.658  0.00  0.00    +0.000 OA
BRANCH  14  16
ATOM     15  C   UNL     1       6.563   3.925  13.457  0.00  0.00    +0.000 C 
ATOM     16  C   UNL     1       5.985   4.065  14.855  0.00  0.00    +0.000 C 
ENDBRANCH  14  16
ENDBRANCH  12  14
ENDBRANCH   6  12
ENDBRANCH   2   8
ENDBRANCH   1   3
BRANCH   1  17
ATOM     17  O   UNL     1       1.255  10.527  19.473  0.00  0.00    +0.000 OA
BRANCH  17  18
ATOM     18  C   UNL     1       0.062  10.830  20.054  0.00  0.00    +0.000 C 
ATOM     19  O   UNL     1      -0.552  10.085  20.811  0.00  0.00    +0.000 OA
BRANCH  18  20
ATOM     20  C   UNL     1      -0.450  12.176  19.566  0.00  0.00    +0.000 C 
BRANCH  20  21
ATOM     21  N   UNL     1      -1.902  12.202  19.480  0.00  0.00    +0.000 N 
ATOM     22  C   UNL     1      -2.595  12.732  20.563  0.00  0.00    +0.000 A 
ATOM     23  O   UNL     1      -2.096  13.197  21.580  0.00  0.00    +0.000 OA
ATOM     24  C   UNL     1      -4.093  12.721  20.473  0.00  0.00    +0.000 A 
ATOM     25  N   UNL     1      -4.761  12.271  19.460  0.00  0.00    +0.000 NA
ATOM     26  C   UNL     1      -4.030  11.769  18.370  0.00  0.00    +0.000 A 
ATOM     27  C   UNL     1      -4.764  11.294  17.278  0.00  0.00    +0.000 A 
ATOM     28  C   UNL     1      -4.119  10.791  16.150  0.00  0.00    +0.000 A 
ATOM     29  C   UNL     1      -2.729  10.765  16.110  0.00  0.00    +0.000 A 
ATOM     30  C   UNL     1      -1.979  11.232  17.196  0.00  0.00    +0.000 A 
ATOM     31  C   UNL     1      -2.619  11.732  18.340  0.00  0.00    +0.000 A 
ENDBRANCH  20  21
ENDBRANCH  18  20
ENDBRANCH  17  18
ENDBRANCH   1  17
TORSDOF 9
ENDMDL
MODEL 7
REMARK VINA RESULT:      -7.2      6.824      9.233
REMARK  Name = 
REMARK  11 active torsions:
REMARK  status: ('A' for Active; 'I' for Inactive)
REMARK    1  A    between atoms: C_1  and  C_2
REMARK    2  A    between atoms: C_2  and  O_3
REMARK    3  A    between atoms: O_3  and  C_4
REMARK    4  A    between atoms: C_4  and  C_6
REMARK    5  A    between atoms: C_8  and  N_9
REMARK    6  A    between atoms: C_10  and  C_12
REMARK    7  A    between atoms: C_12  and  O_13
REMARK    8  A    between atoms: O_13  and  C_14
REMARK    9  A    between atoms: C_14  and  C_16
REMARK   10  A    between atoms: C_16  and  N_17
REMARK   11  A    between atoms: C_29  and  C_30
REMARK                            x       y       z     vdW  Elec       q    Type
REMARK                         _______ _______ _______ _____ _____    ______ ____
ROOT
ATOM      1  C   UNL     1       0.972   7.817  21.438  0.00  0.00    +0.000 C 
ENDROOT
BRANCH   1   3
ATOM      2  N   UNL     1       2.627   6.618  20.117  0.00  0.00    +0.000 N 
ATOM      3  C   UNL     1       1.817   7.747  20.163  0.00  0.00    +0.000 C 
ATOM      4  O   UNL     1       1.730   8.635  19.319  0.00  0.00    +0.000 OA
ATOM      5  H   UNL     1       2.629   6.000  20.918  0.00  0.00    +0.000 HD
BRANCH   2   8
ATOM      6  C   UNL     1       5.278   5.292  17.688  0.00  0.00    +0.000 A 
ATOM      7  S   UNL     1       4.605   5.014  19.239  0.00  0.00    +0.000 S 
ATOM      8  C   UNL     1       3.504   6.285  19.099  0.00  0.00    +0.000 A 
ATOM      9  C   UNL     1       3.611   6.913  17.879  0.00  0.00    +0.000 A 
ATOM     10  C   UNL     1       4.629   6.338  17.036  0.00  0.00    +0.000 A 
ATOM     11  C   UNL     1       4.933   6.844  15.661  0.00  0.00    +0.000 C 
BRANCH   6  12
ATOM     12  C   UNL     1       6.416   4.467  17.309  0.00  0.00    +0.000 C 
ATOM     13  O   UNL     1       7.497   4.410  17.884  0.00  0.00    +0.000 OA
BRANCH  12  14
ATOM     14  O   UNL     1       6.157   3.831  16.130  0.00  0.00    +0.000 OA
BRANCH  14  16
ATOM     15  C   UNL     1       6.148   3.906  13.746  0.00  0.00    +0.000 C 
ATOM     16  C   UNL     1       6.898   4.312  15.002  0.00  0.00    +0.000 C 
ENDBRANCH  14  16
ENDBRANCH  12  14
ENDBRANCH   6  12
ENDBRANCH   2   8
ENDBRANCH   1   3
BRANCH   1  17
ATOM     17  O   UNL     1      -0.023   8.836  21.343  0.00  0.00    +0.000 OA
BRANCH  17  18
ATOM     18  C   UNL     1       0.235   9.948  22.085  0.00  0.00    +0.000 C 
ATOM     19  O   UNL     1       0.274   9.975  23.309  0.00  0.00    +0.000 OA
BRANCH  18  20
ATOM     20  C   UNL     1       0.375  11.171  21.191  0.00  0.00    +0.000 C 
BRANCH  20  21
ATOM     21  N   UNL     1      -0.921  11.698  20.790  0.00  0.00    +0.000 N 
ATOM     22  C   UNL     1      -1.544  12.586  21.660  0.00  0.00    +0.000 A 
ATOM     23  O   UNL     1      -1.095  12.982  22.728  0.00  0.00    +0.000 OA
ATOM     24  C   UNL     1      -2.894  13.094  21.247  0.00  0.00    +0.000 A 
ATOM     25  N   UNL     1      -3.492  12.772  20.146  0.00  0.00    +0.000 NA
ATOM     26  C   UNL     1      -2.822  11.896  19.275  0.00  0.00    +0.000 A 
ATOM     27  C   UNL     1      -3.474  11.563  18.083  0.00  0.00    +0.000 A 
ATOM     28  C   UNL     1      -2.877  10.711  17.158  0.00  0.00    +0.000 A 
ATOM     29  C   UNL     1      -1.615  10.188  17.421  0.00  0.00    +0.000 A 
ATOM     30  C   UNL     1      -0.950  10.507  18.611  0.00  0.00    +0.000 A 
ATOM     31  C   UNL     1      -1.547  11.357  19.554  0.00  0.00    +0.000 A 
ENDBRANCH  20  21
ENDBRANCH  18  20
ENDBRANCH  17  18
ENDBRANCH   1  17
TORSDOF 9
ENDMDL
MODEL 8
REMARK VINA RESULT:      -7.1      2.703     10.664
REMARK  Name = 
REMARK  11 active torsions:
REMARK  status: ('A' for Active; 'I' for Inactive)
REMARK    1  A    between atoms: C_1  and  C_2
REMARK    2  A    between atoms: C_2  and  O_3
REMARK    3  A    between atoms: O_3  and  C_4
REMARK    4  A    between atoms: C_4  and  C_6
REMARK    5  A    between atoms: C_8  and  N_9
REMARK    6  A    between atoms: C_10  and  C_12
REMARK    7  A    between atoms: C_12  and  O_13
REMARK    8  A    between atoms: O_13  and  C_14
REMARK    9  A    between atoms: C_14  and  C_16
REMARK   10  A    between atoms: C_16  and  N_17
REMARK   11  A    between atoms: C_29  and  C_30
REMARK                            x       y       z     vdW  Elec       q    Type
REMARK                         _______ _______ _______ _____ _____    ______ ____
ROOT
ATOM      1  C   UNL     1       7.974   6.766  18.159  0.00  0.00    +0.000 C 
ENDROOT
BRANCH   1   3
ATOM      2  N   UNL     1       8.953   8.802  19.063  0.00  0.00    +0.000 N 
ATOM      3  C   UNL     1       8.063   8.294  18.124  0.00  0.00    +0.000 C 
ATOM      4  O   UNL     1       7.387   8.931  17.320  0.00  0.00    +0.000 OA
ATOM      5  H   UNL     1       9.400   8.152  19.696  0.00  0.00    +0.000 HD
BRANCH   2   8
ATOM      6  C   UNL     1       9.847  12.528  19.050  0.00  0.00    +0.000 A 
ATOM      7  S   UNL     1       9.583  11.197  18.004  0.00  0.00    +0.000 S 
ATOM      8  C   UNL     1       9.240  10.139  19.274  0.00  0.00    +0.000 A 
ATOM      9  C   UNL     1       9.294  10.779  20.491  0.00  0.00    +0.000 A 
ATOM     10  C   UNL     1       9.631  12.176  20.380  0.00  0.00    +0.000 A 
ATOM     11  C   UNL     1       9.747  13.085  21.564  0.00  0.00    +0.000 C 
BRANCH   6  12
ATOM     12  C   UNL     1      10.291  13.770  18.433  0.00  0.00    +0.000 C 
ATOM     13  O   UNL     1      11.329  13.939  17.804  0.00  0.00    +0.000 OA
BRANCH  12  14
ATOM     14  O   UNL     1       9.431  14.781  18.751  0.00  0.00    +0.000 OA
BRANCH  14  16
ATOM     15  C   UNL     1       7.277  15.802  18.686  0.00  0.00    +0.000 C 
ATOM     16  C   UNL     1       8.179  14.757  18.055  0.00  0.00    +0.000 C 
ENDBRANCH  14  16
ENDBRANCH  12  14
ENDBRANCH   6  12
ENDBRANCH   2   8
ENDBRANCH   1   3
BRANCH   1  17
ATOM     17  O   UNL     1       7.068   6.324  19.170  0.00  0.00    +0.000 OA
BRANCH  17  18
ATOM     18  C   UNL     1       6.261   5.294  18.794  0.00  0.00    +0.000 C 
ATOM     19  O   UNL     1       6.611   4.120  18.743  0.00  0.00    +0.000 OA
BRANCH  18  20
ATOM     20  C   UNL     1       4.897   5.807  18.359  0.00  0.00    +0.000 C 
BRANCH  20  21
ATOM     21  N   UNL     1       3.966   4.718  18.107  0.00  0.00    +0.000 N 
ATOM     22  C   UNL     1       4.004   4.126  16.849  0.00  0.00    +0.000 A 
ATOM     23  O   UNL     1       4.762   4.424  15.935  0.00  0.00    +0.000 OA
ATOM     24  C   UNL     1       3.015   3.026  16.594  0.00  0.00    +0.000 A 
ATOM     25  N   UNL     1       2.159   2.597  17.464  0.00  0.00    +0.000 NA
ATOM     26  C   UNL     1       2.167   3.197  18.735  0.00  0.00    +0.000 A 
ATOM     27  C   UNL     1       1.242   2.717  19.668  0.00  0.00    +0.000 A 
ATOM     28  C   UNL     1       1.190   3.246  20.956  0.00  0.00    +0.000 A 
ATOM     29  C   UNL     1       2.070   4.261  21.317  0.00  0.00    +0.000 A 
ATOM     30  C   UNL     1       2.998   4.756  20.393  0.00  0.00    +0.000 A 
ATOM     31  C   UNL     1       3.053   4.236  19.091  0.00  0.00    +0.000 A 
ENDBRANCH  20  21
ENDBRANCH  18  20
ENDBRANCH  17  18
ENDBRANCH   1  17
TORSDOF 9
ENDMDL
MODEL 9
REMARK VINA RESULT:      -7.1      7.597      9.903
REMARK  Name = 
REMARK  11 active torsions:
REMARK  status: ('A' for Active; 'I' for Inactive)
REMARK    1  A    between atoms: C_1  and  C_2
REMARK    2  A    between atoms: C_2  and  O_3
REMARK    3  A    between atoms: O_3  and  C_4
REMARK    4  A    between atoms: C_4  and  C_6
REMARK    5  A    between atoms: C_8  and  N_9
REMARK    6  A    between atoms: C_10  and  C_12
REMARK    7  A    between atoms: C_12  and  O_13
REMARK    8  A    between atoms: O_13  and  C_14
REMARK    9  A    between atoms: C_14  and  C_16
REMARK   10  A    between atoms: C_16  and  N_17
REMARK   11  A    between atoms: C_29  and  C_30
REMARK                            x       y       z     vdW  Elec       q    Type
REMARK                         _______ _______ _______ _____ _____    ______ ____
ROOT
ATOM      1  C   UNL     1       0.403   9.584  21.573  0.00  0.00    +0.000 C 
ENDROOT
BRANCH   1   3
ATOM      2  N   UNL     1       1.536   7.497  21.042  0.00  0.00    +0.000 N 
ATOM      3  C   UNL     1       1.125   8.723  20.532  0.00  0.00    +0.000 C 
ATOM      4  O   UNL     1       1.283   9.144  19.390  0.00  0.00    +0.000 OA
ATOM      5  H   UNL     1       1.379   7.312  22.024  0.00  0.00    +0.000 HD
BRANCH   2   8
ATOM      6  C   UNL     1       3.327   4.428  19.607  0.00  0.00    +0.000 A 
ATOM      7  S   UNL     1       2.406   4.949  20.954  0.00  0.00    +0.000 S 
ATOM      8  C   UNL     1       2.216   6.512  20.347  0.00  0.00    +0.000 A 
ATOM      9  C   UNL     1       2.817   6.651  19.116  0.00  0.00    +0.000 A 
ATOM     10  C   UNL     1       3.457   5.442  18.661  0.00  0.00    +0.000 A 
ATOM     11  C   UNL     1       4.176   5.342  17.352  0.00  0.00    +0.000 C 
BRANCH   6  12
ATOM     12  C   UNL     1       3.865   3.076  19.662  0.00  0.00    +0.000 C 
ATOM     13  O   UNL     1       5.050   2.763  19.647  0.00  0.00    +0.000 OA
BRANCH  12  14
ATOM     14  O   UNL     1       2.847   2.169  19.617  0.00  0.00    +0.000 OA
BRANCH  14  16
ATOM     15  C   UNL     1       0.659   2.328  18.681  0.00  0.00    +0.000 C 
ATOM     16  C   UNL     1       2.132   2.116  18.377  0.00  0.00    +0.000 C 
ENDBRANCH  14  16
ENDBRANCH  12  14
ENDBRANCH   6  12
ENDBRANCH   2   8
ENDBRANCH   1   3
BRANCH   1  17
ATOM     17  O   UNL     1       0.326  10.946  21.152  0.00  0.00    +0.000 OA
BRANCH  17  18
ATOM     18  C   UNL     1      -0.776  11.612  21.595  0.00  0.00    +0.000 C 
ATOM     19  O   UNL     1      -1.418  11.308  22.594  0.00  0.00    +0.000 OA
BRANCH  18  20
ATOM     20  C   UNL     1      -1.155  12.727  20.632  0.00  0.00    +0.000 C 
BRANCH  20  21
ATOM     21  N   UNL     1      -2.448  12.484  20.009  0.00  0.00    +0.000 N 
ATOM     22  C   UNL     1      -3.549  13.136  20.552  0.00  0.00    +0.000 A 
ATOM     23  O   UNL     1      -3.532  13.913  21.498  0.00  0.00    +0.000 OA
ATOM     24  C   UNL     1      -4.879  12.850  19.919  0.00  0.00    +0.000 A 
ATOM     25  N   UNL     1      -5.054  12.060  18.909  0.00  0.00    +0.000 NA
ATOM     26  C   UNL     1      -3.916  11.439  18.365  0.00  0.00    +0.000 A 
ATOM     27  C   UNL     1      -4.117  10.595  17.268  0.00  0.00    +0.000 A 
ATOM     28  C   UNL     1      -3.043   9.949  16.660  0.00  0.00    +0.000 A 
ATOM     29  C   UNL     1      -1.756  10.150  17.148  0.00  0.00    +0.000 A 
ATOM     30  C   UNL     1      -1.538  10.988  18.248  0.00  0.00    +0.000 A 
ATOM     31  C   UNL     1      -2.613  11.636  18.874  0.00  0.00    +0.000 A 
ENDBRANCH  20  21
ENDBRANCH  18  20
ENDBRANCH  17  18
ENDBRANCH   1  17
TORSDOF 9
ENDMDL
