MODEL 1
REMARK VINA RESULT:      -7.7      0.000      0.000
REMARK  Name = 
REMARK  8 active torsions:
REMARK  status: ('A' for Active; 'I' for Inactive)
REMARK    1  A    between atoms: C_2  and  O_3
REMARK    2  A    between atoms: C_2  and  C_24
REMARK    3  A    between atoms: O_3  and  C_4
REMARK    4  A    between atoms: C_4  and  C_5
REMARK    5  A    between atoms: C_6  and  C_7
REMARK    6  A    between atoms: C_7  and  S_8
REMARK    7  A    between atoms: S_8  and  C_9
REMARK    8  A    between atoms: C_12  and  C_13
REMARK                            x       y       z     vdW  Elec       q    Type
REMARK                         _______ _______ _______ _____ _____    ______ ____
ROOT
ATOM      1  C   UNL     1       1.852   3.755  19.846  0.00  0.00    +0.000 A 
ATOM      2  N   UNL     1       2.179   4.057  21.085  0.00  0.00    +0.000 NA
ATOM      3  N   UNL     1       2.221   5.430  21.160  0.00  0.00    +0.000 NA
ATOM      4  C   UNL     1       1.931   5.896  19.961  0.00  0.00    +0.000 A 
ATOM      5  O   UNL     1       1.662   4.878  19.071  0.00  0.00    +0.000 OA
ENDROOT
BRANCH   4   6
ATOM      6  C   UNL     1       1.872   7.285  19.476  0.00  0.00    +0.000 A 
ATOM      7  C   UNL     1       2.432   7.599  18.221  0.00  0.00    +0.000 A 
ATOM      8  C   UNL     1       2.342   8.886  17.693  0.00  0.00    +0.000 A 
ATOM      9  C   UNL     1       1.691   9.888  18.408  0.00  0.00    +0.000 A 
ATOM     10  C   UNL     1       1.131   9.626  19.662  0.00  0.00    +0.000 A 
ATOM     11  C   UNL     1       0.481  10.661  20.359  0.00  0.00    +0.000 A 
ATOM     12  C   UNL     1      -0.085  10.442  21.612  0.00  0.00    +0.000 A 
ATOM     13  C   UNL     1       0.001   9.186  22.190  0.00  0.00    +0.000 A 
ATOM     14  C   UNL     1       0.645   8.148  21.510  0.00  0.00    +0.000 A 
ATOM     15  C   UNL     1       1.216   8.320  20.222  0.00  0.00    +0.000 A 
ENDBRANCH   4   6
BRANCH   1  16
ATOM     16  S   UNL     1       1.686   2.127  19.242  0.00  0.00    +0.000 S 
BRANCH  16  17
ATOM     17  C   UNL     1       3.304   1.888  18.425  0.00  0.00    +0.000 C 
BRANCH  17  19
ATOM     18  C   UNL     1       5.086   3.948  19.000  0.00  0.00    +0.000 C 
ATOM     19  C   UNL     1       4.244   2.994  18.712  0.00  0.00    +0.000 C 
BRANCH  18  20
ATOM     20  C   UNL     1       6.067   5.060  19.336  0.00  0.00    +0.000 C 
BRANCH  20  21
ATOM     21  O   UNL     1       7.176   4.976  18.418  0.00  0.00    +0.000 OA
BRANCH  21  23
ATOM     22  O   UNL     1       7.809   7.104  17.875  0.00  0.00    +0.000 OA
ATOM     23  C   UNL     1       7.336   6.014  17.547  0.00  0.00    +0.000 C 
BRANCH  23  24
ATOM     24  C   UNL     1       6.878   5.668  16.104  0.00  0.00    +0.000 C 
ATOM     25  C   UNL     1       6.692   4.187  15.677  0.00  0.00    +0.000 C 
ATOM     26  C   UNL     1       5.465   4.632  14.857  0.00  0.00    +0.000 C 
ATOM     27  C   UNL     1       5.366   5.851  15.787  0.00  0.00    +0.000 C 
ENDBRANCH  23  24
ENDBRANCH  21  23
ENDBRANCH  20  21
ENDBRANCH  18  20
ENDBRANCH  17  19
ENDBRANCH  16  17
ENDBRANCH   1  16
TORSDOF 8
ENDMDL
MODEL 2
REMARK VINA RESULT:      -7.4      1.836      2.247
REMARK  Name = 
REMARK  8 active torsions:
REMARK  status: ('A' for Active; 'I' for Inactive)
REMARK    1  A    between atoms: C_2  and  O_3
REMARK    2  A    between atoms: C_2  and  C_24
REMARK    3  A    between atoms: O_3  and  C_4
REMARK    4  A    between atoms: C_4  and  C_5
REMARK    5  A    between atoms: C_6  and  C_7
REMARK    6  A    between atoms: C_7  and  S_8
REMARK    7  A    between atoms: S_8  and  C_9
REMARK    8  A    between atoms: C_12  and  C_13
REMARK                            x       y       z     vdW  Elec       q    Type
REMARK                         _______ _______ _______ _____ _____    ______ ____
ROOT
ATOM      1  C   UNL     1       2.518   4.398  19.353  0.00  0.00    +0.000 A 
ATOM      2  N   UNL     1       3.635   4.738  19.959  0.00  0.00    +0.000 NA
ATOM      3  N   UNL     1       3.646   6.112  20.030  0.00  0.00    +0.000 NA
ATOM      4  C   UNL     1       2.541   6.541  19.452  0.00  0.00    +0.000 A 
ATOM      5  O   UNL     1       1.758   5.496  19.011  0.00  0.00    +0.000 OA
ENDROOT
BRANCH   4   6
ATOM      6  C   UNL     1       2.069   7.917  19.220  0.00  0.00    +0.000 A 
ATOM      7  C   UNL     1       2.344   8.538  17.986  0.00  0.00    +0.000 A 
ATOM      8  C   UNL     1       1.862   9.815  17.697  0.00  0.00    +0.000 A 
ATOM      9  C   UNL     1       1.095  10.498  18.638  0.00  0.00    +0.000 A 
ATOM     10  C   UNL     1       0.807   9.925  19.881  0.00  0.00    +0.000 A 
ATOM     11  C   UNL     1       0.030  10.643  20.808  0.00  0.00    +0.000 A 
ATOM     12  C   UNL     1      -0.275  10.110  22.059  0.00  0.00    +0.000 A 
ATOM     13  C   UNL     1       0.204   8.856  22.401  0.00  0.00    +0.000 A 
ATOM     14  C   UNL     1       0.978   8.132  21.490  0.00  0.00    +0.000 A 
ATOM     15  C   UNL     1       1.294   8.626  20.197  0.00  0.00    +0.000 A 
ENDBRANCH   4   6
BRANCH   1  16
ATOM     16  S   UNL     1       2.048   2.754  19.007  0.00  0.00    +0.000 S 
BRANCH  16  17
ATOM     17  C   UNL     1       2.614   2.583  17.277  0.00  0.00    +0.000 C 
BRANCH  17  19
ATOM     18  C   UNL     1       4.717   4.312  16.693  0.00  0.00    +0.000 C 
ATOM     19  C   UNL     1       3.746   3.484  16.967  0.00  0.00    +0.000 C 
BRANCH  18  20
ATOM     20  C   UNL     1       5.848   5.276  16.375  0.00  0.00    +0.000 C 
BRANCH  20  21
ATOM     21  O   UNL     1       5.804   5.573  14.964  0.00  0.00    +0.000 OA
BRANCH  21  23
ATOM     22  O   UNL     1       7.915   5.555  14.090  0.00  0.00    +0.000 OA
ATOM     23  C   UNL     1       6.798   5.046  14.191  0.00  0.00    +0.000 C 
BRANCH  23  24
ATOM     24  C   UNL     1       6.374   3.735  13.475  0.00  0.00    +0.000 C 
ATOM     25  C   UNL     1       4.943   3.590  12.891  0.00  0.00    +0.000 C 
ATOM     26  C   UNL     1       5.560   2.826  11.703  0.00  0.00    +0.000 C 
ATOM     27  C   UNL     1       6.886   3.536  12.018  0.00  0.00    +0.000 C 
ENDBRANCH  23  24
ENDBRANCH  21  23
ENDBRANCH  20  21
ENDBRANCH  18  20
ENDBRANCH  17  19
ENDBRANCH  16  17
ENDBRANCH   1  16
TORSDOF 8
ENDMDL
MODEL 3
REMARK VINA RESULT:      -7.4      1.149      2.020
REMARK  Name = 
REMARK  8 active torsions:
REMARK  status: ('A' for Active; 'I' for Inactive)
REMARK    1  A    between atoms: C_2  and  O_3
REMARK    2  A    between atoms: C_2  and  C_24
REMARK    3  A    between atoms: O_3  and  C_4
REMARK    4  A    between atoms: C_4  and  C_5
REMARK    5  A    between atoms: C_6  and  C_7
REMARK    6  A    between atoms: C_7  and  S_8
REMARK    7  A    between atoms: S_8  and  C_9
REMARK    8  A    between atoms: C_12  and  C_13
REMARK                            x       y       z     vdW  Elec       q    Type
REMARK                         _______ _______ _______ _____ _____    ______ ____
ROOT
ATOM      1  C   UNL     1       2.082   4.038  19.586  0.00  0.00    +0.000 A 
ATOM      2  N   UNL     1       2.516   4.285  20.804  0.00  0.00    +0.000 NA
ATOM      3  N   UNL     1       2.505   5.652  20.959  0.00  0.00    +0.000 NA
ATOM      4  C   UNL     1       2.077   6.170  19.824  0.00  0.00    +0.000 A 
ATOM      5  O   UNL     1       1.767   5.193  18.903  0.00  0.00    +0.000 OA
ENDROOT
BRANCH   4   6
ATOM      6  C   UNL     1       1.908   7.580  19.433  0.00  0.00    +0.000 A 
ATOM      7  C   UNL     1       2.377   8.004  18.174  0.00  0.00    +0.000 A 
ATOM      8  C   UNL     1       2.182   9.313  17.735  0.00  0.00    +0.000 A 
ATOM      9  C   UNL     1       1.515  10.227  18.546  0.00  0.00    +0.000 A 
ATOM     10  C   UNL     1       1.042   9.854  19.809  0.00  0.00    +0.000 A 
ATOM     11  C   UNL     1       0.373  10.803  20.603  0.00  0.00    +0.000 A 
ATOM     12  C   UNL     1      -0.108  10.473  21.869  0.00  0.00    +0.000 A 
ATOM     13  C   UNL     1       0.085   9.191  22.359  0.00  0.00    +0.000 A 
ATOM     14  C   UNL     1       0.750   8.239  21.580  0.00  0.00    +0.000 A 
ATOM     15  C   UNL     1       1.237   8.525  20.278  0.00  0.00    +0.000 A 
ENDBRANCH   4   6
BRANCH   1  16
ATOM     16  S   UNL     1       1.930   2.441  18.902  0.00  0.00    +0.000 S 
BRANCH  16  17
ATOM     17  C   UNL     1       3.550   2.255  18.077  0.00  0.00    +0.000 C 
BRANCH  17  19
ATOM     18  C   UNL     1       4.381   4.581  16.792  0.00  0.00    +0.000 C 
ATOM     19  C   UNL     1       3.986   3.503  17.412  0.00  0.00    +0.000 C 
BRANCH  18  20
ATOM     20  C   UNL     1       4.841   5.836  16.068  0.00  0.00    +0.000 C 
BRANCH  20  21
ATOM     21  O   UNL     1       6.181   5.611  15.583  0.00  0.00    +0.000 OA
BRANCH  21  23
ATOM     22  O   UNL     1       7.969   4.533  16.512  0.00  0.00    +0.000 OA
ATOM     23  C   UNL     1       7.161   5.463  16.521  0.00  0.00    +0.000 C 
BRANCH  23  24
ATOM     24  C   UNL     1       7.157   6.596  17.583  0.00  0.00    +0.000 C 
ATOM     25  C   UNL     1       8.038   6.478  18.856  0.00  0.00    +0.000 C 
ATOM     26  C   UNL     1       8.315   7.990  18.742  0.00  0.00    +0.000 C 
ATOM     27  C   UNL     1       7.980   7.873  17.247  0.00  0.00    +0.000 C 
ENDBRANCH  23  24
ENDBRANCH  21  23
ENDBRANCH  20  21
ENDBRANCH  18  20
ENDBRANCH  17  19
ENDBRANCH  16  17
ENDBRANCH   1  16
TORSDOF 8
ENDMDL
MODEL 4
REMARK VINA RESULT:      -7.3      1.033      1.252
REMARK  Name = 
REMARK  8 active torsions:
REMARK  status: ('A' for Active; 'I' for Inactive)
REMARK    1  A    between atoms: C_2  and  O_3
REMARK    2  A    between atoms: C_2  and  C_24
REMARK    3  A    between atoms: O_3  and  C_4
REMARK    4  A    between atoms: C_4  and  C_5
REMARK    5  A    between atoms: C_6  and  C_7
REMARK    6  A    between atoms: C_7  and  S_8
REMARK    7  A    between atoms: S_8  and  C_9
REMARK    8  A    between atoms: C_12  and  C_13
REMARK                            x       y       z     vdW  Elec       q    Type
REMARK                         _______ _______ _______ _____ _____    ______ ____
ROOT
ATOM      1  C   UNL     1       2.105   4.014  19.750  0.00  0.00    +0.000 A 
ATOM      2  N   UNL     1       2.309   4.302  21.018  0.00  0.00    +0.000 NA
ATOM      3  N   UNL     1       2.228   5.672  21.131  0.00  0.00    +0.000 NA
ATOM      4  C   UNL     1       1.992   6.149  19.925  0.00  0.00    +0.000 A 
ATOM      5  O   UNL     1       1.880   5.142  18.991  0.00  0.00    +0.000 OA
ENDROOT
BRANCH   4   6
ATOM      6  C   UNL     1       1.852   7.543  19.471  0.00  0.00    +0.000 A 
ATOM      7  C   UNL     1       2.296   7.894  18.181  0.00  0.00    +0.000 A 
ATOM      8  C   UNL     1       2.124   9.186  17.685  0.00  0.00    +0.000 A 
ATOM      9  C   UNL     1       1.507  10.156  18.470  0.00  0.00    +0.000 A 
ATOM     10  C   UNL     1       1.061   9.857  19.761  0.00  0.00    +0.000 A 
ATOM     11  C   UNL     1       0.442  10.861  20.528  0.00  0.00    +0.000 A 
ATOM     12  C   UNL     1      -0.011  10.606  21.820  0.00  0.00    +0.000 A 
ATOM     13  C   UNL     1       0.160   9.343  22.365  0.00  0.00    +0.000 A 
ATOM     14  C   UNL     1       0.775   8.337  21.615  0.00  0.00    +0.000 A 
ATOM     15  C   UNL     1       1.231   8.546  20.288  0.00  0.00    +0.000 A 
ENDBRANCH   4   6
BRANCH   1  16
ATOM     16  S   UNL     1       2.125   2.398  19.095  0.00  0.00    +0.000 S 
BRANCH  16  17
ATOM     17  C   UNL     1       3.068   2.656  17.550  0.00  0.00    +0.000 C 
BRANCH  17  19
ATOM     18  C   UNL     1       5.387   4.128  18.008  0.00  0.00    +0.000 C 
ATOM     19  C   UNL     1       4.310   3.429  17.775  0.00  0.00    +0.000 C 
BRANCH  18  20
ATOM     20  C   UNL     1       6.641   4.942  18.281  0.00  0.00    +0.000 C 
BRANCH  20  21
ATOM     21  O   UNL     1       7.428   4.976  17.072  0.00  0.00    +0.000 OA
BRANCH  21  23
ATOM     22  O   UNL     1       6.270   6.514  15.840  0.00  0.00    +0.000 OA
ATOM     23  C   UNL     1       6.800   5.406  15.939  0.00  0.00    +0.000 C 
BRANCH  23  24
ATOM     24  C   UNL     1       6.842   4.360  14.792  0.00  0.00    +0.000 C 
ATOM     25  C   UNL     1       5.535   3.943  14.065  0.00  0.00    +0.000 C 
ATOM     26  C   UNL     1       6.342   3.894  12.753  0.00  0.00    +0.000 C 
ATOM     27  C   UNL     1       7.341   4.861  13.406  0.00  0.00    +0.000 C 
ENDBRANCH  23  24
ENDBRANCH  21  23
ENDBRANCH  20  21
ENDBRANCH  18  20
ENDBRANCH  17  19
ENDBRANCH  16  17
ENDBRANCH   1  16
TORSDOF 8
ENDMDL
MODEL 5
REMARK VINA RESULT:      -7.3      1.502      2.183
REMARK  Name = 
REMARK  8 active torsions:
REMARK  status: ('A' for Active; 'I' for Inactive)
REMARK    1  A    between atoms: C_2  and  O_3
REMARK    2  A    between atoms: C_2  and  C_24
REMARK    3  A    between atoms: O_3  and  C_4
REMARK    4  A    between atoms: C_4  and  C_5
REMARK    5  A    between atoms: C_6  and  C_7
REMARK    6  A    between atoms: C_7  and  S_8
REMARK    7  A    between atoms: S_8  and  C_9
REMARK    8  A    between atoms: C_12  and  C_13
REMARK                            x       y       z     vdW  Elec       q    Type
REMARK                         _______ _______ _______ _____ _____    ______ ____
ROOT
ATOM      1  C   UNL     1       2.464   4.626  19.726  0.00  0.00    +0.000 A 
ATOM      2  N   UNL     1       3.706   5.036  19.878  0.00  0.00    +0.000 NA
ATOM      3  N   UNL     1       3.686   6.407  19.763  0.00  0.00    +0.000 NA
ATOM      4  C   UNL     1       2.438   6.762  19.534  0.00  0.00    +0.000 A 
ATOM      5  O   UNL     1       1.594   5.673  19.518  0.00  0.00    +0.000 OA
ENDROOT
BRANCH   4   6
ATOM      6  C   UNL     1       1.863   8.098  19.296  0.00  0.00    +0.000 A 
ATOM      7  C   UNL     1       1.937   8.657  18.005  0.00  0.00    +0.000 A 
ATOM      8  C   UNL     1       1.351   9.890  17.718  0.00  0.00    +0.000 A 
ATOM      9  C   UNL     1       0.680  10.590  18.717  0.00  0.00    +0.000 A 
ATOM     10  C   UNL     1       0.591  10.079  20.016  0.00  0.00    +0.000 A 
ATOM     11  C   UNL     1      -0.094  10.813  21.001  0.00  0.00    +0.000 A 
ATOM     12  C   UNL     1      -0.200  10.342  22.308  0.00  0.00    +0.000 A 
ATOM     13  C   UNL     1       0.388   9.134  22.647  0.00  0.00    +0.000 A 
ATOM     14  C   UNL     1       1.074   8.395  21.678  0.00  0.00    +0.000 A 
ATOM     15  C   UNL     1       1.187   8.826  20.331  0.00  0.00    +0.000 A 
ENDBRANCH   4   6
BRANCH   1  16
ATOM     16  S   UNL     1       1.969   2.954  19.771  0.00  0.00    +0.000 S 
BRANCH  16  17
ATOM     17  C   UNL     1       2.008   2.527  17.995  0.00  0.00    +0.000 C 
BRANCH  17  19
ATOM     18  C   UNL     1       4.340   3.366  16.724  0.00  0.00    +0.000 C 
ATOM     19  C   UNL     1       3.258   2.971  17.339  0.00  0.00    +0.000 C 
BRANCH  18  20
ATOM     20  C   UNL     1       5.598   3.827  16.008  0.00  0.00    +0.000 C 
BRANCH  20  21
ATOM     21  O   UNL     1       5.369   5.159  15.505  0.00  0.00    +0.000 OA
BRANCH  21  23
ATOM     22  O   UNL     1       4.605   6.975  16.664  0.00  0.00    +0.000 OA
ATOM     23  C   UNL     1       5.513   6.187  16.391  0.00  0.00    +0.000 C 
BRANCH  23  24
ATOM     24  C   UNL     1       6.929   6.244  17.026  0.00  0.00    +0.000 C 
ATOM     25  C   UNL     1       7.550   7.607  17.433  0.00  0.00    +0.000 C 
ATOM     26  C   UNL     1       8.147   6.907  18.669  0.00  0.00    +0.000 C 
ATOM     27  C   UNL     1       7.039   5.852  18.528  0.00  0.00    +0.000 C 
ENDBRANCH  23  24
ENDBRANCH  21  23
ENDBRANCH  20  21
ENDBRANCH  18  20
ENDBRANCH  17  19
ENDBRANCH  16  17
ENDBRANCH   1  16
TORSDOF 8
ENDMDL
MODEL 6
REMARK VINA RESULT:      -7.3      4.189      5.778
REMARK  Name = 
REMARK  8 active torsions:
REMARK  status: ('A' for Active; 'I' for Inactive)
REMARK    1  A    between atoms: C_2  and  O_3
REMARK    2  A    between atoms: C_2  and  C_24
REMARK    3  A    between atoms: O_3  and  C_4
REMARK    4  A    between atoms: C_4  and  C_5
REMARK    5  A    between atoms: C_6  and  C_7
REMARK    6  A    between atoms: C_7  and  S_8
REMARK    7  A    between atoms: S_8  and  C_9
REMARK    8  A    between atoms: C_12  and  C_13
REMARK                            x       y       z     vdW  Elec       q    Type
REMARK                         _______ _______ _______ _____ _____    ______ ____
ROOT
ATOM      1  C   UNL     1       0.423   9.765  20.395  0.00  0.00    +0.000 A 
ATOM      2  N   UNL     1       0.847  11.003  20.257  0.00  0.00    +0.000 NA
ATOM      3  N   UNL     1      -0.016  11.623  19.382  0.00  0.00    +0.000 NA
ATOM      4  C   UNL     1      -0.914  10.728  19.021  0.00  0.00    +0.000 A 
ATOM      5  O   UNL     1      -0.708   9.518  19.647  0.00  0.00    +0.000 OA
ENDROOT
BRANCH   4   6
ATOM      6  C   UNL     1      -2.040  10.847  18.079  0.00  0.00    +0.000 A 
ATOM      7  C   UNL     1      -1.944  10.235  16.813  0.00  0.00    +0.000 A 
ATOM      8  C   UNL     1      -3.009  10.266  15.914  0.00  0.00    +0.000 A 
ATOM      9  C   UNL     1      -4.193  10.912  16.260  0.00  0.00    +0.000 A 
ATOM     10  C   UNL     1      -4.330  11.544  17.500  0.00  0.00    +0.000 A 
ATOM     11  C   UNL     1      -5.540  12.188  17.818  0.00  0.00    +0.000 A 
ATOM     12  C   UNL     1      -5.714  12.833  19.040  0.00  0.00    +0.000 A 
ATOM     13  C   UNL     1      -4.674  12.850  19.956  0.00  0.00    +0.000 A 
ATOM     14  C   UNL     1      -3.466  12.216  19.653  0.00  0.00    +0.000 A 
ATOM     15  C   UNL     1      -3.253  11.528  18.430  0.00  0.00    +0.000 A 
ENDBRANCH   4   6
BRANCH   1  16
ATOM     16  S   UNL     1       1.199   8.565  21.395  0.00  0.00    +0.000 S 
BRANCH  16  17
ATOM     17  C   UNL     1       1.928   7.468  20.128  0.00  0.00    +0.000 C 
BRANCH  17  19
ATOM     18  C   UNL     1       1.951   4.813  20.969  0.00  0.00    +0.000 C 
ATOM     19  C   UNL     1       1.937   6.050  20.553  0.00  0.00    +0.000 C 
BRANCH  18  20
ATOM     20  C   UNL     1       1.966   3.373  21.454  0.00  0.00    +0.000 C 
BRANCH  20  21
ATOM     21  O   UNL     1       2.876   2.626  20.621  0.00  0.00    +0.000 OA
BRANCH  21  23
ATOM     22  O   UNL     1       1.362   1.958  19.045  0.00  0.00    +0.000 OA
ATOM     23  C   UNL     1       2.480   2.384  19.337  0.00  0.00    +0.000 C 
BRANCH  23  24
ATOM     24  C   UNL     1       3.579   2.720  18.292  0.00  0.00    +0.000 C 
ATOM     25  C   UNL     1       3.287   3.724  17.145  0.00  0.00    +0.000 C 
ATOM     26  C   UNL     1       4.728   4.247  17.305  0.00  0.00    +0.000 C 
ATOM     27  C   UNL     1       4.696   3.705  18.743  0.00  0.00    +0.000 C 
ENDBRANCH  23  24
ENDBRANCH  21  23
ENDBRANCH  20  21
ENDBRANCH  18  20
ENDBRANCH  17  19
ENDBRANCH  16  17
ENDBRANCH   1  16
TORSDOF 8
ENDMDL
MODEL 7
REMARK VINA RESULT:      -7.2      5.036      7.373
REMARK  Name = 
REMARK  8 active torsions:
REMARK  status: ('A' for Active; 'I' for Inactive)
REMARK    1  A    between atoms: C_2  and  O_3
REMARK    2  A    between atoms: C_2  and  C_24
REMARK    3  A    between atoms: O_3  and  C_4
REMARK    4  A    between atoms: C_4  and  C_5
REMARK    5  A    between atoms: C_6  and  C_7
REMARK    6  A    between atoms: C_7  and  S_8
REMARK    7  A    between atoms: S_8  and  C_9
REMARK    8  A    between atoms: C_12  and  C_13
REMARK                            x       y       z     vdW  Elec       q    Type
REMARK                         _______ _______ _______ _____ _____    ______ ____
ROOT
ATOM      1  C   UNL     1       6.932   6.498  18.081  0.00  0.00    +0.000 A 
ATOM      2  N   UNL     1       7.396   5.948  19.183  0.00  0.00    +0.000 NA
ATOM      3  N   UNL     1       6.552   4.906  19.492  0.00  0.00    +0.000 NA
ATOM      4  C   UNL     1       5.609   4.882  18.572  0.00  0.00    +0.000 A 
ATOM      5  O   UNL     1       5.799   5.862  17.622  0.00  0.00    +0.000 OA
ENDROOT
BRANCH   4   6
ATOM      6  C   UNL     1       4.437   3.999  18.442  0.00  0.00    +0.000 A 
ATOM      7  C   UNL     1       4.527   2.855  17.624  0.00  0.00    +0.000 A 
ATOM      8  C   UNL     1       3.466   1.956  17.522  0.00  0.00    +0.000 A 
ATOM      9  C   UNL     1       2.292   2.181  18.235  0.00  0.00    +0.000 A 
ATOM     10  C   UNL     1       2.153   3.309  19.051  0.00  0.00    +0.000 A 
ATOM     11  C   UNL     1       0.953   3.507  19.757  0.00  0.00    +0.000 A 
ATOM     12  C   UNL     1       0.773   4.620  20.575  0.00  0.00    +0.000 A 
ATOM     13  C   UNL     1       1.789   5.555  20.688  0.00  0.00    +0.000 A 
ATOM     14  C   UNL     1       2.987   5.372  19.991  0.00  0.00    +0.000 A 
ATOM     15  C   UNL     1       3.222   4.242  19.164  0.00  0.00    +0.000 A 
ENDBRANCH   4   6
BRANCH   1  16
ATOM     16  S   UNL     1       7.651   7.878  17.292  0.00  0.00    +0.000 S 
BRANCH  16  17
ATOM     17  C   UNL     1       8.525   8.667  18.690  0.00  0.00    +0.000 C 
BRANCH  17  19
ATOM     18  C   UNL     1       9.291  11.274  18.080  0.00  0.00    +0.000 C 
ATOM     19  C   UNL     1       8.924  10.059  18.386  0.00  0.00    +0.000 C 
BRANCH  18  20
ATOM     20  C   UNL     1       9.717  12.688  17.723  0.00  0.00    +0.000 C 
BRANCH  20  21
ATOM     21  O   UNL     1       9.562  13.515  18.894  0.00  0.00    +0.000 OA
BRANCH  21  23
ATOM     22  O   UNL     1      11.694  13.342  19.699  0.00  0.00    +0.000 OA
ATOM     23  C   UNL     1      10.477  13.348  19.893  0.00  0.00    +0.000 C 
BRANCH  23  24
ATOM     24  C   UNL     1       9.822  13.186  21.291  0.00  0.00    +0.000 C 
ATOM     25  C   UNL     1       8.364  13.664  21.532  0.00  0.00    +0.000 C 
ATOM     26  C   UNL     1       8.163  12.430  22.433  0.00  0.00    +0.000 C 
ATOM     27  C   UNL     1       9.317  11.763  21.668  0.00  0.00    +0.000 C 
ENDBRANCH  23  24
ENDBRANCH  21  23
ENDBRANCH  20  21
ENDBRANCH  18  20
ENDBRANCH  17  19
ENDBRANCH  16  17
ENDBRANCH   1  16
TORSDOF 8
ENDMDL
MODEL 8
REMARK VINA RESULT:      -7.2      1.535      2.224
REMARK  Name = 
REMARK  8 active torsions:
REMARK  status: ('A' for Active; 'I' for Inactive)
REMARK    1  A    between atoms: C_2  and  O_3
REMARK    2  A    between atoms: C_2  and  C_24
REMARK    3  A    between atoms: O_3  and  C_4
REMARK    4  A    between atoms: C_4  and  C_5
REMARK    5  A    between atoms: C_6  and  C_7
REMARK    6  A    between atoms: C_7  and  S_8
REMARK    7  A    between atoms: S_8  and  C_9
REMARK    8  A    between atoms: C_12  and  C_13
REMARK                            x       y       z     vdW  Elec       q    Type
REMARK                         _______ _______ _______ _____ _____    ______ ____
ROOT
ATOM      1  C   UNL     1       2.148   4.587  20.468  0.00  0.00    +0.000 A 
ATOM      2  N   UNL     1       3.419   4.769  20.179  0.00  0.00    +0.000 NA
ATOM      3  N   UNL     1       3.553   6.082  19.790  0.00  0.00    +0.000 NA
ATOM      4  C   UNL     1       2.356   6.631  19.848  0.00  0.00    +0.000 A 
ATOM      5  O   UNL     1       1.407   5.737  20.295  0.00  0.00    +0.000 OA
ENDROOT
BRANCH   4   6
ATOM      6  C   UNL     1       1.925   7.997  19.506  0.00  0.00    +0.000 A 
ATOM      7  C   UNL     1       2.157   8.484  18.204  0.00  0.00    +0.000 A 
ATOM      8  C   UNL     1       1.709   9.747  17.816  0.00  0.00    +0.000 A 
ATOM      9  C   UNL     1       1.020  10.550  18.722  0.00  0.00    +0.000 A 
ATOM     10  C   UNL     1       0.777  10.112  20.028  0.00  0.00    +0.000 A 
ATOM     11  C   UNL     1       0.079  10.949  20.918  0.00  0.00    +0.000 A 
ATOM     12  C   UNL     1      -0.178  10.553  22.228  0.00  0.00    +0.000 A 
ATOM     13  C   UNL     1       0.270   9.317  22.668  0.00  0.00    +0.000 A 
ATOM     14  C   UNL     1       0.966   8.476  21.794  0.00  0.00    +0.000 A 
ATOM     15  C   UNL     1       1.231   8.830  20.446  0.00  0.00    +0.000 A 
ENDBRANCH   4   6
BRANCH   1  16
ATOM     16  S   UNL     1       1.467   3.071  20.997  0.00  0.00    +0.000 S 
BRANCH  16  17
ATOM     17  C   UNL     1       1.124   2.261  19.395  0.00  0.00    +0.000 C 
BRANCH  17  19
ATOM     18  C   UNL     1       3.001   2.926  17.448  0.00  0.00    +0.000 C 
ATOM     19  C   UNL     1       2.135   2.598  18.368  0.00  0.00    +0.000 C 
BRANCH  18  20
ATOM     20  C   UNL     1       4.009   3.307  16.377  0.00  0.00    +0.000 C 
BRANCH  20  21
ATOM     21  O   UNL     1       5.002   4.164  16.977  0.00  0.00    +0.000 OA
BRANCH  21  23
ATOM     22  O   UNL     1       6.341   3.941  15.138  0.00  0.00    +0.000 OA
ATOM     23  C   UNL     1       6.181   4.309  16.303  0.00  0.00    +0.000 C 
BRANCH  23  24
ATOM     24  C   UNL     1       7.281   4.999  17.153  0.00  0.00    +0.000 C 
ATOM     25  C   UNL     1       7.365   6.548  17.215  0.00  0.00    +0.000 C 
ATOM     26  C   UNL     1       7.744   6.416  18.703  0.00  0.00    +0.000 C 
ATOM     27  C   UNL     1       7.053   5.043  18.691  0.00  0.00    +0.000 C 
ENDBRANCH  23  24
ENDBRANCH  21  23
ENDBRANCH  20  21
ENDBRANCH  18  20
ENDBRANCH  17  19
ENDBRANCH  16  17
ENDBRANCH   1  16
TORSDOF 8
ENDMDL
MODEL 9
REMARK VINA RESULT:      -7.1      2.219      6.471
REMARK  Name = 
REMARK  8 active torsions:
REMARK  status: ('A' for Active; 'I' for Inactive)
REMARK    1  A    between atoms: C_2  and  O_3
REMARK    2  A    between atoms: C_2  and  C_24
REMARK    3  A    between atoms: O_3  and  C_4
REMARK    4  A    between atoms: C_4  and  C_5
REMARK    5  A    between atoms: C_6  and  C_7
REMARK    6  A    between atoms: C_7  and  S_8
REMARK    7  A    between atoms: S_8  and  C_9
REMARK    8  A    between atoms: C_12  and  C_13
REMARK                            x       y       z     vdW  Elec       q    Type
REMARK                         _______ _______ _______ _____ _____    ______ ____
ROOT
ATOM      1  C   UNL     1       1.978   3.057  18.826  0.00  0.00    +0.000 A 
ATOM      2  N   UNL     1       1.292   3.060  17.703  0.00  0.00    +0.000 NA
ATOM      3  N   UNL     1       2.168   3.418  16.704  0.00  0.00    +0.000 NA
ATOM      4  C   UNL     1       3.340   3.629  17.270  0.00  0.00    +0.000 A 
ATOM      5  O   UNL     1       3.299   3.396  18.627  0.00  0.00    +0.000 OA
ENDROOT
BRANCH   4   6
ATOM      6  C   UNL     1       4.613   4.066  16.672  0.00  0.00    +0.000 A 
ATOM      7  C   UNL     1       4.818   3.890  15.289  0.00  0.00    +0.000 A 
ATOM      8  C   UNL     1       5.980   4.347  14.668  0.00  0.00    +0.000 A 
ATOM      9  C   UNL     1       6.963   4.989  15.417  0.00  0.00    +0.000 A 
ATOM     10  C   UNL     1       6.807   5.176  16.795  0.00  0.00    +0.000 A 
ATOM     11  C   UNL     1       7.820   5.828  17.522  0.00  0.00    +0.000 A 
ATOM     12  C   UNL     1       7.706   6.029  18.895  0.00  0.00    +0.000 A 
ATOM     13  C   UNL     1       6.580   5.570  19.561  0.00  0.00    +0.000 A 
ATOM     14  C   UNL     1       5.567   4.918  18.851  0.00  0.00    +0.000 A 
ATOM     15  C   UNL     1       5.631   4.712  17.448  0.00  0.00    +0.000 A 
ENDBRANCH   4   6
BRANCH   1  16
ATOM     16  S   UNL     1       1.303   2.680  20.389  0.00  0.00    +0.000 S 
BRANCH  16  17
ATOM     17  C   UNL     1       2.248   3.817  21.464  0.00  0.00    +0.000 C 
BRANCH  17  19
ATOM     18  C   UNL     1       1.833   6.475  20.744  0.00  0.00    +0.000 C 
ATOM     19  C   UNL     1       2.045   5.236  21.094  0.00  0.00    +0.000 C 
BRANCH  18  20
ATOM     20  C   UNL     1       1.586   7.918  20.336  0.00  0.00    +0.000 C 
BRANCH  20  21
ATOM     21  O   UNL     1       2.047   8.088  18.980  0.00  0.00    +0.000 OA
BRANCH  21  23
ATOM     22  O   UNL     1       2.230   9.679  17.349  0.00  0.00    +0.000 OA
ATOM     23  C   UNL     1       1.640   9.216  18.327  0.00  0.00    +0.000 C 
BRANCH  23  24
ATOM     24  C   UNL     1       0.352   9.834  18.934  0.00  0.00    +0.000 C 
ATOM     25  C   UNL     1       0.272  11.360  19.209  0.00  0.00    +0.000 C 
ATOM     26  C   UNL     1      -1.201  11.312  18.756  0.00  0.00    +0.000 C 
ATOM     27  C   UNL     1      -0.849  10.041  17.967  0.00  0.00    +0.000 C 
ENDBRANCH  23  24
ENDBRANCH  21  23
ENDBRANCH  20  21
ENDBRANCH  18  20
ENDBRANCH  17  19
ENDBRANCH  16  17
ENDBRANCH   1  16
TORSDOF 8
ENDMDL
