MODEL 1
REMARK VINA RESULT:      -9.2      0.000      0.000
REMARK  Name = 
REMARK  10 active torsions:
REMARK  status: ('A' for Active; 'I' for Inactive)
REMARK    1  A    between atoms: C_1  and  C_2
REMARK    2  A    between atoms: C_5  and  C_6
REMARK    3  A    between atoms: N_8  and  C_9
REMARK    4  A    between atoms: N_8  and  C_10
REMARK    5  A    between atoms: C_10  and  C_11
REMARK    6  A    between atoms: C_14  and  N_15
REMARK    7  A    between atoms: C_24  and  S_25
REMARK    8  A    between atoms: S_25  and  N_28
REMARK    9  A    between atoms: N_28  and  C_29
REMARK   10  A    between atoms: C_29  and  C_30
REMARK                            x       y       z     vdW  Elec       q    Type
REMARK                         _______ _______ _______ _____ _____    ______ ____
ROOT
ATOM      1  C   UNL     1       2.531   2.952  20.956  0.00  0.00    +0.000 C 
ATOM      2  C   UNL     1       2.470   4.327  20.353  0.00  0.00    +0.000 A 
ATOM      3  C   UNL     1       1.979   5.355  21.182  0.00  0.00    +0.000 A 
ATOM      4  C   UNL     1       1.813   6.659  20.712  0.00  0.00    +0.000 A 
ATOM      5  C   UNL     1       2.058   6.957  19.376  0.00  0.00    +0.000 A 
ATOM      6  C   UNL     1       2.636   5.971  18.555  0.00  0.00    +0.000 A 
ATOM      7  C   UNL     1       2.846   4.656  19.035  0.00  0.00    +0.000 A 
ENDROOT
BRANCH   5   8
ATOM      8  C   UNL     1       1.773   8.315  18.810  0.00  0.00    +0.000 C 
ATOM      9  O   UNL     1       2.126   8.491  17.643  0.00  0.00    +0.000 OA
ATOM     10  N   UNL     1       1.125   9.303  19.563  0.00  0.00    +0.000 N 
ATOM     11  C   UNL     1       0.450   9.118  20.843  0.00  0.00    +0.000 C 
BRANCH  10  12
ATOM     12  C   UNL     1       0.878  10.606  18.922  0.00  0.00    +0.000 C 
BRANCH  12  13
ATOM     13  C   UNL     1      -0.575  10.820  18.555  0.00  0.00    +0.000 A 
ATOM     14  C   UNL     1      -1.304  11.855  19.143  0.00  0.00    +0.000 A 
ATOM     15  C   UNL     1      -2.663  12.036  18.855  0.00  0.00    +0.000 A 
ATOM     16  C   UNL     1      -3.356  11.191  17.979  0.00  0.00    +0.000 A 
ATOM     17  C   UNL     1      -2.592  10.198  17.343  0.00  0.00    +0.000 A 
ATOM     18  C   UNL     1      -1.228  10.010  17.620  0.00  0.00    +0.000 A 
BRANCH  16  19
ATOM     19  N   UNL     1      -4.717  11.302  17.784  0.00  0.00    +0.000 N 
ATOM     20  C   UNL     1      -5.328  12.175  16.774  0.00  0.00    +0.000 C 
ATOM     21  C   UNL     1      -6.423  13.040  17.417  0.00  0.00    +0.000 C 
ATOM     22  O   UNL     1      -7.399  12.228  18.095  0.00  0.00    +0.000 OA
ATOM     23  C   UNL     1      -6.767  11.460  19.133  0.00  0.00    +0.000 C 
ATOM     24  C   UNL     1      -5.682  10.521  18.572  0.00  0.00    +0.000 C 
ENDBRANCH  16  19
ENDBRANCH  12  13
ENDBRANCH  10  12
ENDBRANCH   5   8
BRANCH   7  25
ATOM     25  S   UNL     1       3.398   3.431  17.832  0.00  0.00    +0.000 S 
ATOM     26  O   UNL     1       4.405   2.602  18.455  0.00  0.00    +0.000 OA
ATOM     27  O   UNL     1       2.205   2.842  17.263  0.00  0.00    +0.000 OA
BRANCH  25  28
ATOM     28  N   UNL     1       4.116   4.333  16.595  0.00  0.00    +0.000 NA
ATOM     29  H   UNL     1       3.845   5.316  16.600  0.00  0.00    +0.000 HD
BRANCH  28  30
ATOM     30  C   UNL     1       5.550   4.111  16.374  0.00  0.00    +0.000 C 
BRANCH  30  31
ATOM     31  C   UNL     1       6.423   5.097  17.113  0.00  0.00    +0.000 A 
ATOM     32  C   UNL     1       6.568   6.410  16.640  0.00  0.00    +0.000 A 
ATOM     33  C   UNL     1       7.331   7.340  17.348  0.00  0.00    +0.000 A 
ATOM     34  C   UNL     1       7.958   6.965  18.534  0.00  0.00    +0.000 A 
ATOM     35  C   UNL     1       7.823   5.662  19.014  0.00  0.00    +0.000 A 
ATOM     36  C   UNL     1       7.059   4.731  18.306  0.00  0.00    +0.000 A 
ENDBRANCH  30  31
ENDBRANCH  28  30
ENDBRANCH  25  28
ENDBRANCH   7  25
TORSDOF 8
ENDMDL
MODEL 2
REMARK VINA RESULT:      -8.7      2.078      2.900
REMARK  Name = 
REMARK  10 active torsions:
REMARK  status: ('A' for Active; 'I' for Inactive)
REMARK    1  A    between atoms: C_1  and  C_2
REMARK    2  A    between atoms: C_5  and  C_6
REMARK    3  A    between atoms: N_8  and  C_9
REMARK    4  A    between atoms: N_8  and  C_10
REMARK    5  A    between atoms: C_10  and  C_11
REMARK    6  A    between atoms: C_14  and  N_15
REMARK    7  A    between atoms: C_24  and  S_25
REMARK    8  A    between atoms: S_25  and  N_28
REMARK    9  A    between atoms: N_28  and  C_29
REMARK   10  A    between atoms: C_29  and  C_30
REMARK                            x       y       z     vdW  Elec       q    Type
REMARK                         _______ _______ _______ _____ _____    ______ ____
ROOT
ATOM      1  C   UNL     1       3.402   2.968  17.616  0.00  0.00    +0.000 C 
ATOM      2  C   UNL     1       3.130   4.418  17.899  0.00  0.00    +0.000 A 
ATOM      3  C   UNL     1       1.792   4.842  17.780  0.00  0.00    +0.000 A 
ATOM      4  C   UNL     1       1.428   6.179  17.954  0.00  0.00    +0.000 A 
ATOM      5  C   UNL     1       2.403   7.145  18.172  0.00  0.00    +0.000 A 
ATOM      6  C   UNL     1       3.732   6.734  18.386  0.00  0.00    +0.000 A 
ATOM      7  C   UNL     1       4.103   5.375  18.254  0.00  0.00    +0.000 A 
ENDROOT
BRANCH   5   8
ATOM      8  C   UNL     1       2.061   8.603  18.240  0.00  0.00    +0.000 C 
ATOM      9  O   UNL     1       2.255   9.244  17.206  0.00  0.00    +0.000 OA
ATOM     10  N   UNL     1       1.533   9.180  19.402  0.00  0.00    +0.000 N 
ATOM     11  C   UNL     1       1.035   8.472  20.576  0.00  0.00    +0.000 C 
BRANCH  10  12
ATOM     12  C   UNL     1       1.218  10.619  19.375  0.00  0.00    +0.000 C 
BRANCH  12  13
ATOM     13  C   UNL     1      -0.235  10.900  19.059  0.00  0.00    +0.000 A 
ATOM     14  C   UNL     1      -0.877  12.004  19.624  0.00  0.00    +0.000 A 
ATOM     15  C   UNL     1      -2.235  12.251  19.384  0.00  0.00    +0.000 A 
ATOM     16  C   UNL     1      -3.014  11.408  18.580  0.00  0.00    +0.000 A 
ATOM     17  C   UNL     1      -2.336  10.343  17.964  0.00  0.00    +0.000 A 
ATOM     18  C   UNL     1      -0.974  10.087  18.193  0.00  0.00    +0.000 A 
BRANCH  16  19
ATOM     19  N   UNL     1      -4.373  11.591  18.437  0.00  0.00    +0.000 N 
ATOM     20  C   UNL     1      -5.075  11.514  17.150  0.00  0.00    +0.000 C 
ATOM     21  C   UNL     1      -5.963  12.753  16.959  0.00  0.00    +0.000 C 
ATOM     22  O   UNL     1      -6.871  12.921  18.063  0.00  0.00    +0.000 OA
ATOM     23  C   UNL     1      -6.135  13.081  19.287  0.00  0.00    +0.000 C 
ATOM     24  C   UNL     1      -5.248  11.858  19.589  0.00  0.00    +0.000 C 
ENDBRANCH  16  19
ENDBRANCH  12  13
ENDBRANCH  10  12
ENDBRANCH   5   8
BRANCH   7  25
ATOM     25  S   UNL     1       5.865   5.001  18.347  0.00  0.00    +0.000 S 
ATOM     26  O   UNL     1       6.575   6.223  18.649  0.00  0.00    +0.000 OA
ATOM     27  O   UNL     1       5.998   3.840  19.198  0.00  0.00    +0.000 OA
BRANCH  25  28
ATOM     28  N   UNL     1       6.281   4.494  16.788  0.00  0.00    +0.000 NA
ATOM     29  H   UNL     1       6.098   3.505  16.621  0.00  0.00    +0.000 HD
BRANCH  28  30
ATOM     30  C   UNL     1       5.871   5.372  15.685  0.00  0.00    +0.000 C 
BRANCH  30  31
ATOM     31  C   UNL     1       6.224   4.818  14.325  0.00  0.00    +0.000 A 
ATOM     32  C   UNL     1       7.394   5.233  13.672  0.00  0.00    +0.000 A 
ATOM     33  C   UNL     1       7.751   4.686  12.438  0.00  0.00    +0.000 A 
ATOM     34  C   UNL     1       6.941   3.719  11.846  0.00  0.00    +0.000 A 
ATOM     35  C   UNL     1       5.775   3.299  12.486  0.00  0.00    +0.000 A 
ATOM     36  C   UNL     1       5.416   3.847  13.719  0.00  0.00    +0.000 A 
ENDBRANCH  30  31
ENDBRANCH  28  30
ENDBRANCH  25  28
ENDBRANCH   7  25
TORSDOF 8
ENDMDL
MODEL 3
REMARK VINA RESULT:      -8.4      1.865      2.687
REMARK  Name = 
REMARK  10 active torsions:
REMARK  status: ('A' for Active; 'I' for Inactive)
REMARK    1  A    between atoms: C_1  and  C_2
REMARK    2  A    between atoms: C_5  and  C_6
REMARK    3  A    between atoms: N_8  and  C_9
REMARK    4  A    between atoms: N_8  and  C_10
REMARK    5  A    between atoms: C_10  and  C_11
REMARK    6  A    between atoms: C_14  and  N_15
REMARK    7  A    between atoms: C_24  and  S_25
REMARK    8  A    between atoms: S_25  and  N_28
REMARK    9  A    between atoms: N_28  and  C_29
REMARK   10  A    between atoms: C_29  and  C_30
REMARK                            x       y       z     vdW  Elec       q    Type
REMARK                         _______ _______ _______ _____ _____    ______ ____
ROOT
ATOM      1  C   UNL     1       2.346   2.156  19.105  0.00  0.00    +0.000 C 
ATOM      2  C   UNL     1       2.345   3.627  19.412  0.00  0.00    +0.000 A 
ATOM      3  C   UNL     1       1.254   4.112  20.159  0.00  0.00    +0.000 A 
ATOM      4  C   UNL     1       1.110   5.471  20.448  0.00  0.00    +0.000 A 
ATOM      5  C   UNL     1       2.010   6.394  19.929  0.00  0.00    +0.000 A 
ATOM      6  C   UNL     1       3.155   5.925  19.260  0.00  0.00    +0.000 A 
ATOM      7  C   UNL     1       3.332   4.546  18.999  0.00  0.00    +0.000 A 
ENDROOT
BRANCH   5   8
ATOM      8  C   UNL     1       1.816   7.869  20.116  0.00  0.00    +0.000 C 
ATOM      9  O   UNL     1       1.724   8.250  21.284  0.00  0.00    +0.000 OA
ATOM     10  N   UNL     1       1.770   8.748  19.026  0.00  0.00    +0.000 N 
ATOM     11  C   UNL     1       2.118   8.438  17.643  0.00  0.00    +0.000 C 
BRANCH  10  12
ATOM     12  C   UNL     1       1.585  10.182  19.304  0.00  0.00    +0.000 C 
BRANCH  12  13
ATOM     13  C   UNL     1       0.159  10.647  19.093  0.00  0.00    +0.000 A 
ATOM     14  C   UNL     1      -0.320  11.773  19.765  0.00  0.00    +0.000 A 
ATOM     15  C   UNL     1      -1.651  12.188  19.622  0.00  0.00    +0.000 A 
ATOM     16  C   UNL     1      -2.562  11.496  18.813  0.00  0.00    +0.000 A 
ATOM     17  C   UNL     1      -2.046  10.408  18.091  0.00  0.00    +0.000 A 
ATOM     18  C   UNL     1      -0.712   9.986  18.221  0.00  0.00    +0.000 A 
BRANCH  16  19
ATOM     19  N   UNL     1      -3.897  11.840  18.763  0.00  0.00    +0.000 N 
ATOM     20  C   UNL     1      -4.578  12.619  19.805  0.00  0.00    +0.000 C 
ATOM     21  C   UNL     1      -5.872  11.909  20.233  0.00  0.00    +0.000 C 
ATOM     22  O   UNL     1      -6.725  11.650  19.103  0.00  0.00    +0.000 OA
ATOM     23  C   UNL     1      -6.046  10.811  18.155  0.00  0.00    +0.000 C 
ATOM     24  C   UNL     1      -4.754  11.466  17.629  0.00  0.00    +0.000 C 
ENDBRANCH  16  19
ENDBRANCH  12  13
ENDBRANCH  10  12
ENDBRANCH   5   8
BRANCH   7  25
ATOM     25  S   UNL     1       4.729   4.088  17.956  0.00  0.00    +0.000 S 
ATOM     26  O   UNL     1       5.940   4.209  18.737  0.00  0.00    +0.000 OA
ATOM     27  O   UNL     1       4.382   2.835  17.322  0.00  0.00    +0.000 OA
BRANCH  25  28
ATOM     28  N   UNL     1       4.750   5.250  16.727  0.00  0.00    +0.000 NA
ATOM     29  H   UNL     1       4.175   6.067  16.931  0.00  0.00    +0.000 HD
BRANCH  28  30
ATOM     30  C   UNL     1       6.063   5.572  16.155  0.00  0.00    +0.000 C 
BRANCH  30  31
ATOM     31  C   UNL     1       6.261   5.005  14.769  0.00  0.00    +0.000 A 
ATOM     32  C   UNL     1       7.430   5.288  14.047  0.00  0.00    +0.000 A 
ATOM     33  C   UNL     1       7.640   4.726  12.787  0.00  0.00    +0.000 A 
ATOM     34  C   UNL     1       6.683   3.875  12.237  0.00  0.00    +0.000 A 
ATOM     35  C   UNL     1       5.517   3.587  12.945  0.00  0.00    +0.000 A 
ATOM     36  C   UNL     1       5.305   4.150  14.205  0.00  0.00    +0.000 A 
ENDBRANCH  30  31
ENDBRANCH  28  30
ENDBRANCH  25  28
ENDBRANCH   7  25
TORSDOF 8
ENDMDL
MODEL 4
REMARK VINA RESULT:      -8.4      1.358      1.719
REMARK  Name = 
REMARK  10 active torsions:
REMARK  status: ('A' for Active; 'I' for Inactive)
REMARK    1  A    between atoms: C_1  and  C_2
REMARK    2  A    between atoms: C_5  and  C_6
REMARK    3  A    between atoms: N_8  and  C_9
REMARK    4  A    between atoms: N_8  and  C_10
REMARK    5  A    between atoms: C_10  and  C_11
REMARK    6  A    between atoms: C_14  and  N_15
REMARK    7  A    between atoms: C_24  and  S_25
REMARK    8  A    between atoms: S_25  and  N_28
REMARK    9  A    between atoms: N_28  and  C_29
REMARK   10  A    between atoms: C_29  and  C_30
REMARK                            x       y       z     vdW  Elec       q    Type
REMARK                         _______ _______ _______ _____ _____    ______ ____
ROOT
ATOM      1  C   UNL     1       2.136   2.672  21.277  0.00  0.00    +0.000 C 
ATOM      2  C   UNL     1       2.161   3.999  20.574  0.00  0.00    +0.000 A 
ATOM      3  C   UNL     1       2.095   5.145  21.391  0.00  0.00    +0.000 A 
ATOM      4  C   UNL     1       2.043   6.431  20.849  0.00  0.00    +0.000 A 
ATOM      5  C   UNL     1       1.974   6.605  19.471  0.00  0.00    +0.000 A 
ATOM      6  C   UNL     1       2.132   5.484  18.636  0.00  0.00    +0.000 A 
ATOM      7  C   UNL     1       2.227   4.181  19.177  0.00  0.00    +0.000 A 
ENDROOT
BRANCH   5   8
ATOM      8  C   UNL     1       1.794   7.962  18.861  0.00  0.00    +0.000 C 
ATOM      9  O   UNL     1       2.091   8.054  17.669  0.00  0.00    +0.000 OA
ATOM     10  N   UNL     1       1.295   9.041  19.602  0.00  0.00    +0.000 N 
ATOM     11  C   UNL     1       0.683   8.978  20.925  0.00  0.00    +0.000 C 
BRANCH  10  12
ATOM     12  C   UNL     1       1.142  10.336  18.918  0.00  0.00    +0.000 C 
BRANCH  12  13
ATOM     13  C   UNL     1      -0.306  10.739  18.731  0.00  0.00    +0.000 A 
ATOM     14  C   UNL     1      -0.855  11.765  19.501  0.00  0.00    +0.000 A 
ATOM     15  C   UNL     1      -2.206  12.117  19.379  0.00  0.00    +0.000 A 
ATOM     16  C   UNL     1      -3.068  11.459  18.493  0.00  0.00    +0.000 A 
ATOM     17  C   UNL     1      -2.483  10.477  17.676  0.00  0.00    +0.000 A 
ATOM     18  C   UNL     1      -1.130  10.118  17.786  0.00  0.00    +0.000 A 
BRANCH  16  19
ATOM     19  N   UNL     1      -4.419  11.730  18.455  0.00  0.00    +0.000 N 
ATOM     20  C   UNL     1      -5.259  11.531  17.266  0.00  0.00    +0.000 C 
ATOM     21  C   UNL     1      -6.076  12.800  16.980  0.00  0.00    +0.000 C 
ATOM     22  O   UNL     1      -6.847  13.196  18.129  0.00  0.00    +0.000 OA
ATOM     23  C   UNL     1      -5.975  13.466  19.238  0.00  0.00    +0.000 C 
ATOM     24  C   UNL     1      -5.146  12.229  19.632  0.00  0.00    +0.000 C 
ENDBRANCH  16  19
ENDBRANCH  12  13
ENDBRANCH  10  12
ENDBRANCH   5   8
BRANCH   7  25
ATOM     25  S   UNL     1       2.217   2.811  18.004  0.00  0.00    +0.000 S 
ATOM     26  O   UNL     1       1.339   1.782  18.513  0.00  0.00    +0.000 OA
ATOM     27  O   UNL     1       1.999   3.387  16.695  0.00  0.00    +0.000 OA
BRANCH  25  28
ATOM     28  N   UNL     1       3.805   2.229  18.006  0.00  0.00    +0.000 NA
ATOM     29  H   UNL     1       4.029   1.661  17.190  0.00  0.00    +0.000 HD
BRANCH  28  30
ATOM     30  C   UNL     1       4.852   3.192  18.369  0.00  0.00    +0.000 C 
BRANCH  30  31
ATOM     31  C   UNL     1       5.172   4.165  17.260  0.00  0.00    +0.000 A 
ATOM     32  C   UNL     1       5.362   3.708  15.948  0.00  0.00    +0.000 A 
ATOM     33  C   UNL     1       5.606   4.608  14.910  0.00  0.00    +0.000 A 
ATOM     34  C   UNL     1       5.665   5.975  15.175  0.00  0.00    +0.000 A 
ATOM     35  C   UNL     1       5.479   6.441  16.476  0.00  0.00    +0.000 A 
ATOM     36  C   UNL     1       5.235   5.541  17.515  0.00  0.00    +0.000 A 
ENDBRANCH  30  31
ENDBRANCH  28  30
ENDBRANCH  25  28
ENDBRANCH   7  25
TORSDOF 8
ENDMDL
MODEL 5
REMARK VINA RESULT:      -8.4      1.019      1.150
REMARK  Name = 
REMARK  10 active torsions:
REMARK  status: ('A' for Active; 'I' for Inactive)
REMARK    1  A    between atoms: C_1  and  C_2
REMARK    2  A    between atoms: C_5  and  C_6
REMARK    3  A    between atoms: N_8  and  C_9
REMARK    4  A    between atoms: N_8  and  C_10
REMARK    5  A    between atoms: C_10  and  C_11
REMARK    6  A    between atoms: C_14  and  N_15
REMARK    7  A    between atoms: C_24  and  S_25
REMARK    8  A    between atoms: S_25  and  N_28
REMARK    9  A    between atoms: N_28  and  C_29
REMARK   10  A    between atoms: C_29  and  C_30
REMARK                            x       y       z     vdW  Elec       q    Type
REMARK                         _______ _______ _______ _____ _____    ______ ____
ROOT
ATOM      1  C   UNL     1       2.459   3.083  21.274  0.00  0.00    +0.000 C 
ATOM      2  C   UNL     1       2.360   4.379  20.522  0.00  0.00    +0.000 A 
ATOM      3  C   UNL     1       2.394   5.557  21.293  0.00  0.00    +0.000 A 
ATOM      4  C   UNL     1       2.242   6.819  20.714  0.00  0.00    +0.000 A 
ATOM      5  C   UNL     1       1.972   6.934  19.355  0.00  0.00    +0.000 A 
ATOM      6  C   UNL     1       2.026   5.781  18.551  0.00  0.00    +0.000 A 
ATOM      7  C   UNL     1       2.220   4.502  19.124  0.00  0.00    +0.000 A 
ENDROOT
BRANCH   5   8
ATOM      8  C   UNL     1       1.683   8.262  18.723  0.00  0.00    +0.000 C 
ATOM      9  O   UNL     1       2.063   8.393  17.559  0.00  0.00    +0.000 OA
ATOM     10  N   UNL     1       1.001   9.272  19.415  0.00  0.00    +0.000 N 
ATOM     11  C   UNL     1       0.295   9.132  20.685  0.00  0.00    +0.000 C 
BRANCH  10  12
ATOM     12  C   UNL     1       0.752  10.542  18.713  0.00  0.00    +0.000 C 
BRANCH  12  13
ATOM     13  C   UNL     1      -0.714  10.778  18.419  0.00  0.00    +0.000 A 
ATOM     14  C   UNL     1      -1.381  11.863  18.992  0.00  0.00    +0.000 A 
ATOM     15  C   UNL     1      -2.750  12.068  18.774  0.00  0.00    +0.000 A 
ATOM     16  C   UNL     1      -3.515  11.199  17.984  0.00  0.00    +0.000 A 
ATOM     17  C   UNL     1      -2.814  10.155  17.359  0.00  0.00    +0.000 A 
ATOM     18  C   UNL     1      -1.442   9.941  17.566  0.00  0.00    +0.000 A 
BRANCH  16  19
ATOM     19  N   UNL     1      -4.881  11.340  17.862  0.00  0.00    +0.000 N 
ATOM     20  C   UNL     1      -5.525  12.380  17.049  0.00  0.00    +0.000 C 
ATOM     21  C   UNL     1      -6.593  13.110  17.878  0.00  0.00    +0.000 C 
ATOM     22  O   UNL     1      -7.547  12.186  18.433  0.00  0.00    +0.000 OA
ATOM     23  C   UNL     1      -6.880  11.245  19.290  0.00  0.00    +0.000 C 
ATOM     24  C   UNL     1      -5.819  10.426  18.530  0.00  0.00    +0.000 C 
ENDBRANCH  16  19
ENDBRANCH  12  13
ENDBRANCH  10  12
ENDBRANCH   5   8
BRANCH   7  25
ATOM     25  S   UNL     1       2.063   3.085  18.021  0.00  0.00    +0.000 S 
ATOM     26  O   UNL     1       1.138   2.146  18.614  0.00  0.00    +0.000 OA
ATOM     27  O   UNL     1       1.830   3.614  16.695  0.00  0.00    +0.000 OA
BRANCH  25  28
ATOM     28  N   UNL     1       3.605   2.391  17.988  0.00  0.00    +0.000 NA
ATOM     29  H   UNL     1       3.601   1.385  18.157  0.00  0.00    +0.000 HD
BRANCH  28  30
ATOM     30  C   UNL     1       4.484   2.807  16.888  0.00  0.00    +0.000 C 
BRANCH  30  31
ATOM     31  C   UNL     1       5.099   4.169  17.104  0.00  0.00    +0.000 A 
ATOM     32  C   UNL     1       4.927   5.184  16.151  0.00  0.00    +0.000 A 
ATOM     33  C   UNL     1       5.448   6.460  16.370  0.00  0.00    +0.000 A 
ATOM     34  C   UNL     1       6.148   6.732  17.544  0.00  0.00    +0.000 A 
ATOM     35  C   UNL     1       6.327   5.731  18.498  0.00  0.00    +0.000 A 
ATOM     36  C   UNL     1       5.806   4.454  18.280  0.00  0.00    +0.000 A 
ENDBRANCH  30  31
ENDBRANCH  28  30
ENDBRANCH  25  28
ENDBRANCH   7  25
TORSDOF 8
ENDMDL
MODEL 6
REMARK VINA RESULT:      -8.2      1.573      2.140
REMARK  Name = 
REMARK  10 active torsions:
REMARK  status: ('A' for Active; 'I' for Inactive)
REMARK    1  A    between atoms: C_1  and  C_2
REMARK    2  A    between atoms: C_5  and  C_6
REMARK    3  A    between atoms: N_8  and  C_9
REMARK    4  A    between atoms: N_8  and  C_10
REMARK    5  A    between atoms: C_10  and  C_11
REMARK    6  A    between atoms: C_14  and  N_15
REMARK    7  A    between atoms: C_24  and  S_25
REMARK    8  A    between atoms: S_25  and  N_28
REMARK    9  A    between atoms: N_28  and  C_29
REMARK   10  A    between atoms: C_29  and  C_30
REMARK                            x       y       z     vdW  Elec       q    Type
REMARK                         _______ _______ _______ _____ _____    ______ ____
ROOT
ATOM      1  C   UNL     1       2.504   2.554  21.284  0.00  0.00    +0.000 C 
ATOM      2  C   UNL     1       2.524   3.919  20.656  0.00  0.00    +0.000 A 
ATOM      3  C   UNL     1       1.670   4.884  21.225  0.00  0.00    +0.000 A 
ATOM      4  C   UNL     1       1.552   6.168  20.687  0.00  0.00    +0.000 A 
ATOM      5  C   UNL     1       2.224   6.498  19.516  0.00  0.00    +0.000 A 
ATOM      6  C   UNL     1       3.151   5.584  18.984  0.00  0.00    +0.000 A 
ATOM      7  C   UNL     1       3.309   4.295  19.547  0.00  0.00    +0.000 A 
ENDROOT
BRANCH   5   8
ATOM      8  C   UNL     1       2.024   7.823  18.845  0.00  0.00    +0.000 C 
ATOM      9  O   UNL     1       2.337   7.869  17.654  0.00  0.00    +0.000 OA
ATOM     10  N   UNL     1       1.492   8.922  19.531  0.00  0.00    +0.000 N 
ATOM     11  C   UNL     1       0.862   8.903  20.847  0.00  0.00    +0.000 C 
BRANCH  10  12
ATOM     12  C   UNL     1       1.323  10.183  18.789  0.00  0.00    +0.000 C 
BRANCH  12  13
ATOM     13  C   UNL     1      -0.128  10.585  18.630  0.00  0.00    +0.000 A 
ATOM     14  C   UNL     1      -0.646  11.653  19.365  0.00  0.00    +0.000 A 
ATOM     15  C   UNL     1      -1.999  12.007  19.271  0.00  0.00    +0.000 A 
ATOM     16  C   UNL     1      -2.894  11.310  18.449  0.00  0.00    +0.000 A 
ATOM     17  C   UNL     1      -2.342  10.284  17.665  0.00  0.00    +0.000 A 
ATOM     18  C   UNL     1      -0.987   9.923  17.747  0.00  0.00    +0.000 A 
BRANCH  16  19
ATOM     19  N   UNL     1      -4.244  11.588  18.443  0.00  0.00    +0.000 N 
ATOM     20  C   UNL     1      -5.114  11.384  17.277  0.00  0.00    +0.000 C 
ATOM     21  C   UNL     1      -5.932  12.655  17.002  0.00  0.00    +0.000 C 
ATOM     22  O   UNL     1      -6.672  13.064  18.166  0.00  0.00    +0.000 OA
ATOM     23  C   UNL     1      -5.772  13.338  19.252  0.00  0.00    +0.000 C 
ATOM     24  C   UNL     1      -4.939  12.099  19.634  0.00  0.00    +0.000 C 
ENDBRANCH  16  19
ENDBRANCH  12  13
ENDBRANCH  10  12
ENDBRANCH   5   8
BRANCH   7  25
ATOM     25  S   UNL     1       4.371   3.143  18.656  0.00  0.00    +0.000 S 
ATOM     26  O   UNL     1       5.298   2.556  19.598  0.00  0.00    +0.000 OA
ATOM     27  O   UNL     1       3.501   2.308  17.858  0.00  0.00    +0.000 OA
BRANCH  25  28
ATOM     28  N   UNL     1       5.233   4.106  17.565  0.00  0.00    +0.000 NA
ATOM     29  H   UNL     1       6.215   3.846  17.483  0.00  0.00    +0.000 HD
BRANCH  28  30
ATOM     30  C   UNL     1       4.579   4.380  16.279  0.00  0.00    +0.000 C 
BRANCH  30  31
ATOM     31  C   UNL     1       5.537   4.360  15.112  0.00  0.00    +0.000 A 
ATOM     32  C   UNL     1       5.264   3.571  13.984  0.00  0.00    +0.000 A 
ATOM     33  C   UNL     1       6.119   3.590  12.881  0.00  0.00    +0.000 A 
ATOM     34  C   UNL     1       7.255   4.397  12.896  0.00  0.00    +0.000 A 
ATOM     35  C   UNL     1       7.537   5.184  14.011  0.00  0.00    +0.000 A 
ATOM     36  C   UNL     1       6.682   5.166  15.116  0.00  0.00    +0.000 A 
ENDBRANCH  30  31
ENDBRANCH  28  30
ENDBRANCH  25  28
ENDBRANCH   7  25
TORSDOF 8
ENDMDL
MODEL 7
REMARK VINA RESULT:      -8.2      1.779      2.666
REMARK  Name = 
REMARK  10 active torsions:
REMARK  status: ('A' for Active; 'I' for Inactive)
REMARK    1  A    between atoms: C_1  and  C_2
REMARK    2  A    between atoms: C_5  and  C_6
REMARK    3  A    between atoms: N_8  and  C_9
REMARK    4  A    between atoms: N_8  and  C_10
REMARK    5  A    between atoms: C_10  and  C_11
REMARK    6  A    between atoms: C_14  and  N_15
REMARK    7  A    between atoms: C_24  and  S_25
REMARK    8  A    between atoms: S_25  and  N_28
REMARK    9  A    between atoms: N_28  and  C_29
REMARK   10  A    between atoms: C_29  and  C_30
REMARK                            x       y       z     vdW  Elec       q    Type
REMARK                         _______ _______ _______ _____ _____    ______ ____
ROOT
ATOM      1  C   UNL     1       3.313   3.121  20.369  0.00  0.00    +0.000 C 
ATOM      2  C   UNL     1       3.099   4.550  19.958  0.00  0.00    +0.000 A 
ATOM      3  C   UNL     1       1.870   5.132  20.323  0.00  0.00    +0.000 A 
ATOM      4  C   UNL     1       1.531   6.431  19.939  0.00  0.00    +0.000 A 
ATOM      5  C   UNL     1       2.377   7.157  19.110  0.00  0.00    +0.000 A 
ATOM      6  C   UNL     1       3.648   6.633  18.809  0.00  0.00    +0.000 A 
ATOM      7  C   UNL     1       4.018   5.334  19.229  0.00  0.00    +0.000 A 
ENDROOT
BRANCH   5   8
ATOM      8  C   UNL     1       1.989   8.504  18.579  0.00  0.00    +0.000 C 
ATOM      9  O   UNL     1       2.180   8.678  17.374  0.00  0.00    +0.000 OA
ATOM     10  N   UNL     1       1.424   9.485  19.405  0.00  0.00    +0.000 N 
ATOM     11  C   UNL     1       0.929   9.296  20.764  0.00  0.00    +0.000 C 
BRANCH  10  12
ATOM     12  C   UNL     1       1.065  10.776  18.796  0.00  0.00    +0.000 C 
BRANCH  12  13
ATOM     13  C   UNL     1      -0.416  11.079  18.878  0.00  0.00    +0.000 A 
ATOM     14  C   UNL     1      -1.332  10.310  18.158  0.00  0.00    +0.000 A 
ATOM     15  C   UNL     1      -2.701  10.608  18.181  0.00  0.00    +0.000 A 
ATOM     16  C   UNL     1      -3.216  11.685  18.913  0.00  0.00    +0.000 A 
ATOM     17  C   UNL     1      -2.290  12.404  19.687  0.00  0.00    +0.000 A 
ATOM     18  C   UNL     1      -0.916  12.113  19.676  0.00  0.00    +0.000 A 
BRANCH  16  19
ATOM     19  N   UNL     1      -4.545  12.043  18.845  0.00  0.00    +0.000 N 
ATOM     20  C   UNL     1      -5.242  12.799  19.894  0.00  0.00    +0.000 C 
ATOM     21  C   UNL     1      -6.551  12.089  20.274  0.00  0.00    +0.000 C 
ATOM     22  O   UNL     1      -7.382  11.871  19.120  0.00  0.00    +0.000 OA
ATOM     23  C   UNL     1      -6.690  11.053  18.162  0.00  0.00    +0.000 C 
ATOM     24  C   UNL     1      -5.382  11.711  17.682  0.00  0.00    +0.000 C 
ENDBRANCH  16  19
ENDBRANCH  12  13
ENDBRANCH  10  12
ENDBRANCH   5   8
BRANCH   7  25
ATOM     25  S   UNL     1       5.585   4.694  18.609  0.00  0.00    +0.000 S 
ATOM     26  O   UNL     1       6.627   5.058  19.542  0.00  0.00    +0.000 OA
ATOM     27  O   UNL     1       5.358   3.309  18.258  0.00  0.00    +0.000 OA
BRANCH  25  28
ATOM     28  N   UNL     1       5.840   5.515  17.152  0.00  0.00    +0.000 NA
ATOM     29  H   UNL     1       6.825   5.608  16.907  0.00  0.00    +0.000 HD
BRANCH  28  30
ATOM     30  C   UNL     1       4.978   5.130  16.027  0.00  0.00    +0.000 C 
BRANCH  30  31
ATOM     31  C   UNL     1       5.754   4.786  14.778  0.00  0.00    +0.000 A 
ATOM     32  C   UNL     1       5.215   3.904  13.829  0.00  0.00    +0.000 A 
ATOM     33  C   UNL     1       5.905   3.623  12.649  0.00  0.00    +0.000 A 
ATOM     34  C   UNL     1       7.140   4.220  12.407  0.00  0.00    +0.000 A 
ATOM     35  C   UNL     1       7.686   5.097  13.343  0.00  0.00    +0.000 A 
ATOM     36  C   UNL     1       6.998   5.379  14.524  0.00  0.00    +0.000 A 
ENDBRANCH  30  31
ENDBRANCH  28  30
ENDBRANCH  25  28
ENDBRANCH   7  25
TORSDOF 8
ENDMDL
MODEL 8
REMARK VINA RESULT:      -7.9      3.217      4.135
REMARK  Name = 
REMARK  10 active torsions:
REMARK  status: ('A' for Active; 'I' for Inactive)
REMARK    1  A    between atoms: C_1  and  C_2
REMARK    2  A    between atoms: C_5  and  C_6
REMARK    3  A    between atoms: N_8  and  C_9
REMARK    4  A    between atoms: N_8  and  C_10
REMARK    5  A    between atoms: C_10  and  C_11
REMARK    6  A    between atoms: C_14  and  N_15
REMARK    7  A    between atoms: C_24  and  S_25
REMARK    8  A    between atoms: S_25  and  N_28
REMARK    9  A    between atoms: N_28  and  C_29
REMARK   10  A    between atoms: C_29  and  C_30
REMARK                            x       y       z     vdW  Elec       q    Type
REMARK                         _______ _______ _______ _____ _____    ______ ____
ROOT
ATOM      1  C   UNL     1       4.031   3.060  19.477  0.00  0.00    +0.000 C 
ATOM      2  C   UNL     1       3.655   4.495  19.240  0.00  0.00    +0.000 A 
ATOM      3  C   UNL     1       2.338   4.864  19.578  0.00  0.00    +0.000 A 
ATOM      4  C   UNL     1       1.854   6.152  19.340  0.00  0.00    +0.000 A 
ATOM      5  C   UNL     1       2.647   7.086  18.685  0.00  0.00    +0.000 A 
ATOM      6  C   UNL     1       3.993   6.770  18.422  0.00  0.00    +0.000 A 
ATOM      7  C   UNL     1       4.505   5.481  18.697  0.00  0.00    +0.000 A 
ENDROOT
BRANCH   5   8
ATOM      8  C   UNL     1       2.118   8.436  18.305  0.00  0.00    +0.000 C 
ATOM      9  O   UNL     1       2.295   8.767  17.131  0.00  0.00    +0.000 OA
ATOM     10  N   UNL     1       1.444   9.247  19.227  0.00  0.00    +0.000 N 
ATOM     11  C   UNL     1       0.965   8.850  20.547  0.00  0.00    +0.000 C 
BRANCH  10  12
ATOM     12  C   UNL     1       0.950  10.555  18.764  0.00  0.00    +0.000 C 
BRANCH  12  13
ATOM     13  C   UNL     1       0.013  11.217  19.751  0.00  0.00    +0.000 A 
ATOM     14  C   UNL     1      -1.342  11.360  19.448  0.00  0.00    +0.000 A 
ATOM     15  C   UNL     1      -2.214  12.017  20.327  0.00  0.00    +0.000 A 
ATOM     16  C   UNL     1      -1.774  12.567  21.538  0.00  0.00    +0.000 A 
ATOM     17  C   UNL     1      -0.423  12.353  21.859  0.00  0.00    +0.000 A 
ATOM     18  C   UNL     1       0.459  11.692  20.989  0.00  0.00    +0.000 A 
BRANCH  16  19
ATOM     19  N   UNL     1      -2.609  13.309  22.346  0.00  0.00    +0.000 N 
ATOM     20  C   UNL     1      -2.387  14.725  22.666  0.00  0.00    +0.000 C 
ATOM     21  C   UNL     1      -2.474  14.942  24.185  0.00  0.00    +0.000 C 
ATOM     22  O   UNL     1      -3.721  14.455  24.713  0.00  0.00    +0.000 OA
ATOM     23  C   UNL     1      -3.850  13.048  24.453  0.00  0.00    +0.000 C 
ATOM     24  C   UNL     1      -3.824  12.736  22.944  0.00  0.00    +0.000 C 
ENDBRANCH  16  19
ENDBRANCH  12  13
ENDBRANCH  10  12
ENDBRANCH   5   8
BRANCH   7  25
ATOM     25  S   UNL     1       6.180   5.133  18.128  0.00  0.00    +0.000 S 
ATOM     26  O   UNL     1       6.712   6.329  17.516  0.00  0.00    +0.000 OA
ATOM     27  O   UNL     1       6.870   4.497  19.229  0.00  0.00    +0.000 OA
BRANCH  25  28
ATOM     28  N   UNL     1       5.994   3.944  16.939  0.00  0.00    +0.000 NA
ATOM     29  H   UNL     1       5.848   3.009  17.320  0.00  0.00    +0.000 HD
BRANCH  28  30
ATOM     30  C   UNL     1       5.107   4.277  15.817  0.00  0.00    +0.000 C 
BRANCH  30  31
ATOM     31  C   UNL     1       5.815   4.275  14.483  0.00  0.00    +0.000 A 
ATOM     32  C   UNL     1       6.998   5.007  14.307  0.00  0.00    +0.000 A 
ATOM     33  C   UNL     1       7.684   4.968  13.092  0.00  0.00    +0.000 A 
ATOM     34  C   UNL     1       7.192   4.196  12.041  0.00  0.00    +0.000 A 
ATOM     35  C   UNL     1       6.016   3.465  12.204  0.00  0.00    +0.000 A 
ATOM     36  C   UNL     1       5.328   3.504  13.419  0.00  0.00    +0.000 A 
ENDBRANCH  30  31
ENDBRANCH  28  30
ENDBRANCH  25  28
ENDBRANCH   7  25
TORSDOF 8
ENDMDL
MODEL 9
REMARK VINA RESULT:      -7.9      4.062     11.320
REMARK  Name = 
REMARK  10 active torsions:
REMARK  status: ('A' for Active; 'I' for Inactive)
REMARK    1  A    between atoms: C_1  and  C_2
REMARK    2  A    between atoms: C_5  and  C_6
REMARK    3  A    between atoms: N_8  and  C_9
REMARK    4  A    between atoms: N_8  and  C_10
REMARK    5  A    between atoms: C_10  and  C_11
REMARK    6  A    between atoms: C_14  and  N_15
REMARK    7  A    between atoms: C_24  and  S_25
REMARK    8  A    between atoms: S_25  and  N_28
REMARK    9  A    between atoms: N_28  and  C_29
REMARK   10  A    between atoms: C_29  and  C_30
REMARK                            x       y       z     vdW  Elec       q    Type
REMARK                         _______ _______ _______ _____ _____    ______ ____
ROOT
ATOM      1  C   UNL     1      -5.772  11.754  17.875  0.00  0.00    +0.000 C 
ATOM      2  C   UNL     1      -4.321  11.561  18.213  0.00  0.00    +0.000 A 
ATOM      3  C   UNL     1      -3.567  10.777  17.318  0.00  0.00    +0.000 A 
ATOM      4  C   UNL     1      -2.226  10.473  17.561  0.00  0.00    +0.000 A 
ATOM      5  C   UNL     1      -1.622  10.876  18.746  0.00  0.00    +0.000 A 
ATOM      6  C   UNL     1      -2.326  11.736  19.609  0.00  0.00    +0.000 A 
ATOM      7  C   UNL     1      -3.673  12.084  19.351  0.00  0.00    +0.000 A 
ENDROOT
BRANCH   5   8
ATOM      8  C   UNL     1      -0.224  10.462  19.095  0.00  0.00    +0.000 C 
ATOM      9  O   UNL     1       0.659  10.889  18.350  0.00  0.00    +0.000 OA
ATOM     10  N   UNL     1       0.048   9.662  20.212  0.00  0.00    +0.000 N 
ATOM     11  C   UNL     1      -0.880   9.322  21.285  0.00  0.00    +0.000 C 
BRANCH  10  12
ATOM     12  C   UNL     1       1.453   9.312  20.484  0.00  0.00    +0.000 C 
BRANCH  12  13
ATOM     13  C   UNL     1       1.843   7.959  19.926  0.00  0.00    +0.000 A 
ATOM     14  C   UNL     1       1.583   6.797  20.654  0.00  0.00    +0.000 A 
ATOM     15  C   UNL     1       1.984   5.541  20.178  0.00  0.00    +0.000 A 
ATOM     16  C   UNL     1       2.668   5.390  18.965  0.00  0.00    +0.000 A 
ATOM     17  C   UNL     1       2.859   6.561  18.213  0.00  0.00    +0.000 A 
ATOM     18  C   UNL     1       2.458   7.824  18.677  0.00  0.00    +0.000 A 
BRANCH  16  19
ATOM     19  N   UNL     1       3.159   4.169  18.554  0.00  0.00    +0.000 N 
ATOM     20  C   UNL     1       2.482   3.302  17.581  0.00  0.00    +0.000 C 
ATOM     21  C   UNL     1       2.369   1.874  18.136  0.00  0.00    +0.000 C 
ATOM     22  O   UNL     1       3.657   1.358  18.518  0.00  0.00    +0.000 OA
ATOM     23  C   UNL     1       4.240   2.189  19.535  0.00  0.00    +0.000 C 
ATOM     24  C   UNL     1       4.438   3.638  19.049  0.00  0.00    +0.000 C 
ENDBRANCH  16  19
ENDBRANCH  12  13
ENDBRANCH  10  12
ENDBRANCH   5   8
BRANCH   7  25
ATOM     25  S   UNL     1      -4.531  13.020  20.631  0.00  0.00    +0.000 S 
ATOM     26  O   UNL     1      -5.075  14.218  20.033  0.00  0.00    +0.000 OA
ATOM     27  O   UNL     1      -5.390  12.085  21.323  0.00  0.00    +0.000 OA
BRANCH  25  28
ATOM     28  N   UNL     1      -3.322  13.455  21.731  0.00  0.00    +0.000 NA
ATOM     29  H   UNL     1      -2.872  14.342  21.509  0.00  0.00    +0.000 HD
BRANCH  28  30
ATOM     30  C   UNL     1      -3.644  13.288  23.154  0.00  0.00    +0.000 C 
BRANCH  30  31
ATOM     31  C   UNL     1      -4.065  14.576  23.820  0.00  0.00    +0.000 A 
ATOM     32  C   UNL     1      -3.152  15.303  24.599  0.00  0.00    +0.000 A 
ATOM     33  C   UNL     1      -3.520  16.520  25.175  0.00  0.00    +0.000 A 
ATOM     34  C   UNL     1      -4.805  17.021  24.978  0.00  0.00    +0.000 A 
ATOM     35  C   UNL     1      -5.722  16.307  24.207  0.00  0.00    +0.000 A 
ATOM     36  C   UNL     1      -5.355  15.089  23.631  0.00  0.00    +0.000 A 
ENDBRANCH  30  31
ENDBRANCH  28  30
ENDBRANCH  25  28
ENDBRANCH   7  25
TORSDOF 8
ENDMDL
