MODEL 1
REMARK VINA RESULT:      -7.5      0.000      0.000
REMARK  Name = 
REMARK  5 active torsions:
REMARK  status: ('A' for Active; 'I' for Inactive)
REMARK    1  A    between atoms: C_1  and  N_2
REMARK    2  A    between atoms: N_5  and  C_6
REMARK    3  A    between atoms: C_6  and  C_7
REMARK    4  A    between atoms: C_7  and  O_8
REMARK    5  A    between atoms: O_8  and  N_9
REMARK                            x       y       z     vdW  Elec       q    Type
REMARK                         _______ _______ _______ _____ _____    ______ ____
ROOT
ATOM      1  N   UNL     1       0.156  10.728  18.174  0.00  0.00    +0.000 NA
ATOM      2  C   UNL     1       0.499  10.106  19.246  0.00  0.00    +0.000 C 
ATOM      3  C   UNL     1       0.206  10.088  20.767  0.00  0.00    +0.000 C 
ATOM      4  C   UNL     1      -0.398  10.989  21.567  0.00  0.00    +0.000 C 
ATOM      5  C   UNL     1      -0.723  10.595  23.000  0.00  0.00    +0.000 C 
ATOM      6  O   UNL     1      -0.266   9.666  23.643  0.00  0.00    +0.000 OA
ATOM      7  N   UNL     1      -1.663  11.520  23.432  0.00  0.00    +0.000 N 
ATOM      8  C   UNL     1      -1.858  12.514  22.478  0.00  0.00    +0.000 A 
ATOM      9  C   UNL     1      -2.700  13.605  22.580  0.00  0.00    +0.000 A 
ATOM     10  C   UNL     1      -2.665  14.525  21.531  0.00  0.00    +0.000 A 
ATOM     11 BR   UNL     1      -3.883  15.970  21.504  0.00  0.00    +0.000 Br
ATOM     12  C   UNL     1      -1.725  14.403  20.498  0.00  0.00    +0.000 A 
ATOM     13  C   UNL     1      -0.847  13.316  20.466  0.00  0.00    +0.000 A 
ATOM     14  C   UNL     1      -1.015  12.301  21.381  0.00  0.00    +0.000 A 
ATOM     15  N   UNL     1       0.754   8.883  21.232  0.00  0.00    +0.000 N 
ATOM     16  C   UNL     1       1.527   8.278  20.258  0.00  0.00    +0.000 A 
ATOM     17  C   UNL     1       2.232   7.091  20.318  0.00  0.00    +0.000 A 
ATOM     18  C   UNL     1       2.828   6.610  19.141  0.00  0.00    +0.000 A 
ATOM     19  C   UNL     1       2.694   7.298  17.921  0.00  0.00    +0.000 A 
ATOM     20  C   UNL     1       1.964   8.483  17.865  0.00  0.00    +0.000 A 
ATOM     21  C   UNL     1       1.403   8.943  19.045  0.00  0.00    +0.000 A 
ATOM     22  H   UNL     1      -2.065  11.505  24.358  0.00  0.00    +0.000 HD
ATOM     23  H   UNL     1       0.861   8.729  22.233  0.00  0.00    +0.000 HD
ENDROOT
BRANCH   1  24
ATOM     24  O   UNL     1      -0.850  11.666  18.308  0.00  0.00    +0.000 OA
BRANCH  24  25
ATOM     25  C   UNL     1      -2.035  11.156  17.658  0.00  0.00    +0.000 C 
BRANCH  25  26
ATOM     26  C   UNL     1      -3.209  11.238  18.635  0.00  0.00    +0.000 C 
BRANCH  26  31
ATOM     27  C   UNL     1      -7.710  10.614  20.683  0.00  0.00    +0.000 C 
ATOM     28  N   UNL     1      -6.915  11.353  19.705  0.00  0.00    +0.000 NA
ATOM     29  C   UNL     1      -6.478  10.483  18.598  0.00  0.00    +0.000 C 
ATOM     30  C   UNL     1      -5.488  11.163  17.609  0.00  0.00    +0.000 C 
ATOM     31  N   UNL     1      -4.397  11.982  18.182  0.00  0.00    +0.000 NA
ATOM     32  C   UNL     1      -4.938  12.789  19.299  0.00  0.00    +0.000 C 
ATOM     33  C   UNL     1      -5.741  11.971  20.337  0.00  0.00    +0.000 C 
ENDBRANCH  26  31
ENDBRANCH  25  26
ENDBRANCH  24  25
ENDBRANCH   1  24
TORSDOF 4
ENDMDL
MODEL 2
REMARK VINA RESULT:      -7.1      0.934      1.445
REMARK  Name = 
REMARK  5 active torsions:
REMARK  status: ('A' for Active; 'I' for Inactive)
REMARK    1  A    between atoms: C_1  and  N_2
REMARK    2  A    between atoms: N_5  and  C_6
REMARK    3  A    between atoms: C_6  and  C_7
REMARK    4  A    between atoms: C_7  and  O_8
REMARK    5  A    between atoms: O_8  and  N_9
REMARK                            x       y       z     vdW  Elec       q    Type
REMARK                         _______ _______ _______ _____ _____    ______ ____
ROOT
ATOM      1  N   UNL     1       0.376  10.450  18.160  0.00  0.00    +0.000 NA
ATOM      2  C   UNL     1       0.692   9.807  19.228  0.00  0.00    +0.000 C 
ATOM      3  C   UNL     1       0.371   9.767  20.742  0.00  0.00    +0.000 C 
ATOM      4  C   UNL     1      -0.239  10.660  21.547  0.00  0.00    +0.000 C 
ATOM      5  C   UNL     1      -0.595  10.245  22.967  0.00  0.00    +0.000 C 
ATOM      6  O   UNL     1      -0.158   9.301  23.601  0.00  0.00    +0.000 OA
ATOM      7  N   UNL     1      -1.534  11.172  23.397  0.00  0.00    +0.000 N 
ATOM      8  C   UNL     1      -1.701  12.184  22.456  0.00  0.00    +0.000 A 
ATOM      9  C   UNL     1      -2.535  13.281  22.561  0.00  0.00    +0.000 A 
ATOM     10  C   UNL     1      -2.472  14.217  21.528  0.00  0.00    +0.000 A 
ATOM     11 BR   UNL     1      -3.676  15.675  21.504  0.00  0.00    +0.000 Br
ATOM     12  C   UNL     1      -1.514  14.104  20.511  0.00  0.00    +0.000 A 
ATOM     13  C   UNL     1      -0.646  13.009  20.477  0.00  0.00    +0.000 A 
ATOM     14  C   UNL     1      -0.840  11.981  21.371  0.00  0.00    +0.000 A 
ATOM     15  N   UNL     1       0.900   8.549  21.197  0.00  0.00    +0.000 N 
ATOM     16  C   UNL     1       1.684   7.953  20.227  0.00  0.00    +0.000 A 
ATOM     17  C   UNL     1       2.378   6.759  20.280  0.00  0.00    +0.000 A 
ATOM     18  C   UNL     1       2.991   6.291  19.106  0.00  0.00    +0.000 A 
ATOM     19  C   UNL     1       2.886   7.001  17.896  0.00  0.00    +0.000 A 
ATOM     20  C   UNL     1       2.168   8.193  17.847  0.00  0.00    +0.000 A 
ATOM     21  C   UNL     1       1.589   8.640  19.024  0.00  0.00    +0.000 A 
ATOM     22  H   UNL     1      -1.953  11.145  24.315  0.00  0.00    +0.000 HD
ATOM     23  H   UNL     1       0.987   8.377  22.197  0.00  0.00    +0.000 HD
ENDROOT
BRANCH   1  24
ATOM     24  O   UNL     1      -0.625  11.395  18.291  0.00  0.00    +0.000 OA
BRANCH  24  25
ATOM     25  C   UNL     1      -1.851  10.833  17.775  0.00  0.00    +0.000 C 
BRANCH  25  26
ATOM     26  C   UNL     1      -2.981  11.843  17.979  0.00  0.00    +0.000 C 
BRANCH  26  31
ATOM     27  C   UNL     1      -7.265  14.386  17.809  0.00  0.00    +0.000 C 
ATOM     28  N   UNL     1      -6.608  13.142  18.206  0.00  0.00    +0.000 NA
ATOM     29  C   UNL     1      -5.660  13.363  19.312  0.00  0.00    +0.000 C 
ATOM     30  C   UNL     1      -4.802  12.116  19.671  0.00  0.00    +0.000 C 
ATOM     31  N   UNL     1      -4.235  11.326  18.557  0.00  0.00    +0.000 NA
ATOM     32  C   UNL     1      -5.257  11.193  17.494  0.00  0.00    +0.000 C 
ATOM     33  C   UNL     1      -5.904  12.531  17.069  0.00  0.00    +0.000 C 
ENDBRANCH  26  31
ENDBRANCH  25  26
ENDBRANCH  24  25
ENDBRANCH   1  24
TORSDOF 4
ENDMDL
MODEL 3
REMARK VINA RESULT:      -7.0      1.543      2.342
REMARK  Name = 
REMARK  5 active torsions:
REMARK  status: ('A' for Active; 'I' for Inactive)
REMARK    1  A    between atoms: C_1  and  N_2
REMARK    2  A    between atoms: N_5  and  C_6
REMARK    3  A    between atoms: C_6  and  C_7
REMARK    4  A    between atoms: C_7  and  O_8
REMARK    5  A    between atoms: O_8  and  N_9
REMARK                            x       y       z     vdW  Elec       q    Type
REMARK                         _______ _______ _______ _____ _____    ______ ____
ROOT
ATOM      1  N   UNL     1       0.886  11.354  18.465  0.00  0.00    +0.000 NA
ATOM      2  C   UNL     1       0.957  10.474  19.401  0.00  0.00    +0.000 C 
ATOM      3  C   UNL     1       0.435  10.204  20.833  0.00  0.00    +0.000 C 
ATOM      4  C   UNL     1      -0.136  11.021  21.741  0.00  0.00    +0.000 C 
ATOM      5  C   UNL     1      -0.736  10.413  23.000  0.00  0.00    +0.000 C 
ATOM      6  O   UNL     1      -0.535   9.305  23.464  0.00  0.00    +0.000 OA
ATOM      7  N   UNL     1      -1.574  11.391  23.518  0.00  0.00    +0.000 N 
ATOM      8  C   UNL     1      -1.461  12.576  22.798  0.00  0.00    +0.000 A 
ATOM      9  C   UNL     1      -2.126  13.761  23.045  0.00  0.00    +0.000 A 
ATOM     10  C   UNL     1      -1.787  14.851  22.242  0.00  0.00    +0.000 A 
ATOM     11 BR   UNL     1      -2.743  16.473  22.402  0.00  0.00    +0.000 Br
ATOM     12  C   UNL     1      -0.729  14.767  21.325  0.00  0.00    +0.000 A 
ATOM     13  C   UNL     1      -0.039  13.565  21.151  0.00  0.00    +0.000 A 
ATOM     14  C   UNL     1      -0.503  12.435  21.786  0.00  0.00    +0.000 A 
ATOM     15  N   UNL     1       0.709   8.850  21.075  0.00  0.00    +0.000 N 
ATOM     16  C   UNL     1       1.517   8.320  20.085  0.00  0.00    +0.000 A 
ATOM     17  C   UNL     1       2.010   7.036  19.957  0.00  0.00    +0.000 A 
ATOM     18  C   UNL     1       2.697   6.700  18.779  0.00  0.00    +0.000 A 
ATOM     19  C   UNL     1       2.862   7.633  17.739  0.00  0.00    +0.000 A 
ATOM     20  C   UNL     1       2.344   8.920  17.868  0.00  0.00    +0.000 A 
ATOM     21  C   UNL     1       1.688   9.229  19.048  0.00  0.00    +0.000 A 
ATOM     22  H   UNL     1      -2.111  11.263  24.363  0.00  0.00    +0.000 HD
ATOM     23  H   UNL     1       0.635   8.479  22.020  0.00  0.00    +0.000 HD
ENDROOT
BRANCH   1  24
ATOM     24  O   UNL     1       0.031  12.416  18.689  0.00  0.00    +0.000 OA
BRANCH  24  25
ATOM     25  C   UNL     1      -1.141  12.237  17.865  0.00  0.00    +0.000 C 
BRANCH  25  26
ATOM     26  C   UNL     1      -2.373  12.161  18.769  0.00  0.00    +0.000 C 
BRANCH  26  31
ATOM     27  C   UNL     1      -3.143  10.144  14.276  0.00  0.00    +0.000 C 
ATOM     28  N   UNL     1      -3.434  10.067  15.706  0.00  0.00    +0.000 NA
ATOM     29  C   UNL     1      -4.248  11.212  16.152  0.00  0.00    +0.000 C 
ATOM     30  C   UNL     1      -4.453  11.283  17.693  0.00  0.00    +0.000 C 
ATOM     31  N   UNL     1      -3.281  11.020  18.556  0.00  0.00    +0.000 NA
ATOM     32  C   UNL     1      -2.523   9.875  18.001  0.00  0.00    +0.000 C 
ATOM     33  C   UNL     1      -2.196  10.006  16.495  0.00  0.00    +0.000 C 
ENDBRANCH  26  31
ENDBRANCH  25  26
ENDBRANCH  24  25
ENDBRANCH   1  24
TORSDOF 4
ENDMDL
MODEL 4
REMARK VINA RESULT:      -6.8      3.783      7.401
REMARK  Name = 
REMARK  5 active torsions:
REMARK  status: ('A' for Active; 'I' for Inactive)
REMARK    1  A    between atoms: C_1  and  N_2
REMARK    2  A    between atoms: N_5  and  C_6
REMARK    3  A    between atoms: C_6  and  C_7
REMARK    4  A    between atoms: C_7  and  O_8
REMARK    5  A    between atoms: O_8  and  N_9
REMARK                            x       y       z     vdW  Elec       q    Type
REMARK                         _______ _______ _______ _____ _____    ______ ____
ROOT
ATOM      1  N   UNL     1      -0.040  13.214  19.497  0.00  0.00    +0.000 NA
ATOM      2  C   UNL     1      -0.470  12.743  20.614  0.00  0.00    +0.000 C 
ATOM      3  C   UNL     1      -0.329  11.497  21.523  0.00  0.00    +0.000 C 
ATOM      4  C   UNL     1       0.166  10.268  21.277  0.00  0.00    +0.000 C 
ATOM      5  C   UNL     1       0.358   9.308  22.441  0.00  0.00    +0.000 C 
ATOM      6  O   UNL     1      -0.134   9.373  23.554  0.00  0.00    +0.000 OA
ATOM      7  N   UNL     1       1.224   8.330  21.973  0.00  0.00    +0.000 N 
ATOM      8  C   UNL     1       1.485   8.503  20.618  0.00  0.00    +0.000 A 
ATOM      9  C   UNL     1       2.282   7.705  19.819  0.00  0.00    +0.000 A 
ATOM     10  C   UNL     1       2.326   8.021  18.461  0.00  0.00    +0.000 A 
ATOM     11 BR   UNL     1       3.500   7.083  17.314  0.00  0.00    +0.000 Br
ATOM     12  C   UNL     1       1.497   9.018  17.927  0.00  0.00    +0.000 A 
ATOM     13  C   UNL     1       0.658   9.760  18.761  0.00  0.00    +0.000 A 
ATOM     14  C   UNL     1       0.762   9.595  20.124  0.00  0.00    +0.000 A 
ATOM     15  N   UNL     1      -0.888  11.875  22.753  0.00  0.00    +0.000 N 
ATOM     16  C   UNL     1      -1.542  13.089  22.652  0.00  0.00    +0.000 A 
ATOM     17  C   UNL     1      -2.217  13.799  23.627  0.00  0.00    +0.000 A 
ATOM     18  C   UNL     1      -2.679  15.088  23.313  0.00  0.00    +0.000 A 
ATOM     19  C   UNL     1      -2.444  15.660  22.050  0.00  0.00    +0.000 A 
ATOM     20  C   UNL     1      -1.745  14.945  21.080  0.00  0.00    +0.000 A 
ATOM     21  C   UNL     1      -1.317  13.670  21.411  0.00  0.00    +0.000 A 
ATOM     22  H   UNL     1       1.533   7.552  22.538  0.00  0.00    +0.000 HD
ATOM     23  H   UNL     1      -1.089  11.167  23.456  0.00  0.00    +0.000 HD
ENDROOT
BRANCH   1  24
ATOM     24  O   UNL     1       0.922  12.463  18.848  0.00  0.00    +0.000 OA
BRANCH  24  25
ATOM     25  C   UNL     1       2.222  12.946  19.250  0.00  0.00    +0.000 C 
BRANCH  25  26
ATOM     26  C   UNL     1       2.705  13.974  18.226  0.00  0.00    +0.000 C 
BRANCH  26  31
ATOM     27  C   UNL     1       0.889  18.404  16.839  0.00  0.00    +0.000 C 
ATOM     28  N   UNL     1       1.828  17.696  17.706  0.00  0.00    +0.000 NA
ATOM     29  C   UNL     1       2.907  17.062  16.928  0.00  0.00    +0.000 C 
ATOM     30  C   UNL     1       3.846  16.152  17.770  0.00  0.00    +0.000 C 
ATOM     31  N   UNL     1       3.223  15.247  18.760  0.00  0.00    +0.000 NA
ATOM     32  C   UNL     1       2.138  15.974  19.458  0.00  0.00    +0.000 C 
ATOM     33  C   UNL     1       1.139  16.678  18.512  0.00  0.00    +0.000 C 
ENDBRANCH  26  31
ENDBRANCH  25  26
ENDBRANCH  24  25
ENDBRANCH   1  24
TORSDOF 4
ENDMDL
MODEL 5
REMARK VINA RESULT:      -6.6      4.005      7.558
REMARK  Name = 
REMARK  5 active torsions:
REMARK  status: ('A' for Active; 'I' for Inactive)
REMARK    1  A    between atoms: C_1  and  N_2
REMARK    2  A    between atoms: N_5  and  C_6
REMARK    3  A    between atoms: C_6  and  C_7
REMARK    4  A    between atoms: C_7  and  O_8
REMARK    5  A    between atoms: O_8  and  N_9
REMARK                            x       y       z     vdW  Elec       q    Type
REMARK                         _______ _______ _______ _____ _____    ______ ____
ROOT
ATOM      1  N   UNL     1       0.663  13.602  19.374  0.00  0.00    +0.000 NA
ATOM      2  C   UNL     1       0.039  13.271  20.450  0.00  0.00    +0.000 C 
ATOM      3  C   UNL     1      -0.140  12.069  21.410  0.00  0.00    +0.000 C 
ATOM      4  C   UNL     1       0.156  10.762  21.264  0.00  0.00    +0.000 C 
ATOM      5  C   UNL     1       0.051   9.847  22.474  0.00  0.00    +0.000 C 
ATOM      6  O   UNL     1      -0.540  10.054  23.520  0.00  0.00    +0.000 OA
ATOM      7  N   UNL     1       0.777   8.712  22.143  0.00  0.00    +0.000 N 
ATOM      8  C   UNL     1       1.209   8.766  20.821  0.00  0.00    +0.000 A 
ATOM      9  C   UNL     1       1.935   7.803  20.147  0.00  0.00    +0.000 A 
ATOM     10  C   UNL     1       2.180   8.034  18.794  0.00  0.00    +0.000 A 
ATOM     11 BR   UNL     1       3.288   6.850  17.821  0.00  0.00    +0.000 Br
ATOM     12  C   UNL     1       1.601   9.127  18.134  0.00  0.00    +0.000 A 
ATOM     13  C   UNL     1       0.820  10.045  18.840  0.00  0.00    +0.000 A 
ATOM     14  C   UNL     1       0.746   9.938  20.210  0.00  0.00    +0.000 A 
ATOM     15  N   UNL     1      -0.752  12.602  22.554  0.00  0.00    +0.000 N 
ATOM     16  C   UNL     1      -1.169  13.902  22.337  0.00  0.00    +0.000 A 
ATOM     17  C   UNL     1      -1.810  14.767  23.203  0.00  0.00    +0.000 A 
ATOM     18  C   UNL     1      -2.003  16.098  22.795  0.00  0.00    +0.000 A 
ATOM     19  C   UNL     1      -1.536  16.553  21.549  0.00  0.00    +0.000 A 
ATOM     20  C   UNL     1      -0.873  15.679  20.690  0.00  0.00    +0.000 A 
ATOM     21  C   UNL     1      -0.714  14.369  21.111  0.00  0.00    +0.000 A 
ATOM     22  H   UNL     1       0.882   7.924  22.765  0.00  0.00    +0.000 HD
ATOM     23  H   UNL     1      -1.150  11.976  23.252  0.00  0.00    +0.000 HD
ENDROOT
BRANCH   1  24
ATOM     24  O   UNL     1       1.542  12.664  18.866  0.00  0.00    +0.000 OA
BRANCH  24  25
ATOM     25  C   UNL     1       2.608  13.363  18.187  0.00  0.00    +0.000 C 
BRANCH  25  26
ATOM     26  C   UNL     1       3.382  14.197  19.209  0.00  0.00    +0.000 C 
BRANCH  26  31
ATOM     27  C   UNL     1       1.100  18.615  19.548  0.00  0.00    +0.000 C 
ATOM     28  N   UNL     1       2.314  17.904  19.151  0.00  0.00    +0.000 NA
ATOM     29  C   UNL     1       2.072  17.034  17.987  0.00  0.00    +0.000 C 
ATOM     30  C   UNL     1       3.276  16.121  17.616  0.00  0.00    +0.000 C 
ATOM     31  N   UNL     1       3.993  15.445  18.719  0.00  0.00    +0.000 NA
ATOM     32  C   UNL     1       4.154  16.397  19.842  0.00  0.00    +0.000 C 
ATOM     33  C   UNL     1       2.844  17.102  20.263  0.00  0.00    +0.000 C 
ENDBRANCH  26  31
ENDBRANCH  25  26
ENDBRANCH  24  25
ENDBRANCH   1  24
TORSDOF 4
ENDMDL
MODEL 6
REMARK VINA RESULT:      -6.6      3.975      7.663
REMARK  Name = 
REMARK  5 active torsions:
REMARK  status: ('A' for Active; 'I' for Inactive)
REMARK    1  A    between atoms: C_1  and  N_2
REMARK    2  A    between atoms: N_5  and  C_6
REMARK    3  A    between atoms: C_6  and  C_7
REMARK    4  A    between atoms: C_7  and  O_8
REMARK    5  A    between atoms: O_8  and  N_9
REMARK                            x       y       z     vdW  Elec       q    Type
REMARK                         _______ _______ _______ _____ _____    ______ ____
ROOT
ATOM      1  N   UNL     1       0.614  13.021  19.133  0.00  0.00    +0.000 NA
ATOM      2  C   UNL     1      -0.105  12.545  20.087  0.00  0.00    +0.000 C 
ATOM      3  C   UNL     1      -0.281  11.255  20.926  0.00  0.00    +0.000 C 
ATOM      4  C   UNL     1       0.163   9.998  20.729  0.00  0.00    +0.000 C 
ATOM      5  C   UNL     1      -0.003   8.978  21.846  0.00  0.00    +0.000 C 
ATOM      6  O   UNL     1      -0.741   9.042  22.813  0.00  0.00    +0.000 OA
ATOM      7  N   UNL     1       0.872   7.947  21.536  0.00  0.00    +0.000 N 
ATOM      8  C   UNL     1       1.461   8.151  20.292  0.00  0.00    +0.000 A 
ATOM      9  C   UNL     1       2.362   7.318  19.656  0.00  0.00    +0.000 A 
ATOM     10  C   UNL     1       2.753   7.684  18.368  0.00  0.00    +0.000 A 
ATOM     11 BR   UNL     1       4.091   6.693  17.473  0.00  0.00    +0.000 Br
ATOM     12  C   UNL     1       2.155   8.771  17.715  0.00  0.00    +0.000 A 
ATOM     13  C   UNL     1       1.200   9.551  18.373  0.00  0.00    +0.000 A 
ATOM     14  C   UNL     1       0.963   9.322  19.709  0.00  0.00    +0.000 A 
ATOM     15  N   UNL     1      -1.086  11.631  22.012  0.00  0.00    +0.000 N 
ATOM     16  C   UNL     1      -1.602  12.902  21.834  0.00  0.00    +0.000 A 
ATOM     17  C   UNL     1      -2.434  13.629  22.664  0.00  0.00    +0.000 A 
ATOM     18  C   UNL     1      -2.707  14.965  22.330  0.00  0.00    +0.000 A 
ATOM     19  C   UNL     1      -2.134  15.565  21.194  0.00  0.00    +0.000 A 
ATOM     20  C   UNL     1      -1.280  14.831  20.373  0.00  0.00    +0.000 A 
ATOM     21  C   UNL     1      -1.044  13.510  20.717  0.00  0.00    +0.000 A 
ATOM     22  H   UNL     1       0.975   7.122  22.109  0.00  0.00    +0.000 HD
ATOM     23  H   UNL     1      -1.504  10.916  22.604  0.00  0.00    +0.000 HD
ENDROOT
BRANCH   1  24
ATOM     24  O   UNL     1       1.643  12.214  18.683  0.00  0.00    +0.000 OA
BRANCH  24  25
ATOM     25  C   UNL     1       2.615  13.047  18.015  0.00  0.00    +0.000 C 
BRANCH  25  26
ATOM     26  C   UNL     1       2.868  14.291  18.869  0.00  0.00    +0.000 C 
BRANCH  26  31
ATOM     27  C   UNL     1       3.496  18.629  21.241  0.00  0.00    +0.000 C 
ATOM     28  N   UNL     1       3.311  17.969  19.951  0.00  0.00    +0.000 NA
ATOM     29  C   UNL     1       1.966  17.375  19.838  0.00  0.00    +0.000 C 
ATOM     30  C   UNL     1       1.759  16.512  18.561  0.00  0.00    +0.000 C 
ATOM     31  N   UNL     1       2.847  15.589  18.169  0.00  0.00    +0.000 NA
ATOM     32  C   UNL     1       4.147  16.275  18.350  0.00  0.00    +0.000 C 
ATOM     33  C   UNL     1       4.327  16.929  19.739  0.00  0.00    +0.000 C 
ENDBRANCH  26  31
ENDBRANCH  25  26
ENDBRANCH  24  25
ENDBRANCH   1  24
TORSDOF 4
ENDMDL
MODEL 7
REMARK VINA RESULT:      -6.5      3.925      7.449
REMARK  Name = 
REMARK  5 active torsions:
REMARK  status: ('A' for Active; 'I' for Inactive)
REMARK    1  A    between atoms: C_1  and  N_2
REMARK    2  A    between atoms: N_5  and  C_6
REMARK    3  A    between atoms: C_6  and  C_7
REMARK    4  A    between atoms: C_7  and  O_8
REMARK    5  A    between atoms: O_8  and  N_9
REMARK                            x       y       z     vdW  Elec       q    Type
REMARK                         _______ _______ _______ _____ _____    ______ ____
ROOT
ATOM      1  N   UNL     1       0.780  12.394  18.918  0.00  0.00    +0.000 NA
ATOM      2  C   UNL     1       0.055  11.863  19.838  0.00  0.00    +0.000 C 
ATOM      3  C   UNL     1      -0.082  10.549  20.646  0.00  0.00    +0.000 C 
ATOM      4  C   UNL     1       0.433   9.320  20.442  0.00  0.00    +0.000 C 
ATOM      5  C   UNL     1       0.283   8.271  21.533  0.00  0.00    +0.000 C 
ATOM      6  O   UNL     1      -0.488   8.277  22.476  0.00  0.00    +0.000 OA
ATOM      7  N   UNL     1       1.221   7.292  21.234  0.00  0.00    +0.000 N 
ATOM      8  C   UNL     1       1.840   7.551  20.015  0.00  0.00    +0.000 A 
ATOM      9  C   UNL     1       2.803   6.779  19.395  0.00  0.00    +0.000 A 
ATOM     10  C   UNL     1       3.218   7.190  18.129  0.00  0.00    +0.000 A 
ATOM     11 BR   UNL     1       4.635   6.288  17.262  0.00  0.00    +0.000 Br
ATOM     12  C   UNL     1       2.586   8.258  17.476  0.00  0.00    +0.000 A 
ATOM     13  C   UNL     1       1.571   8.975  18.115  0.00  0.00    +0.000 A 
ATOM     14  C   UNL     1       1.301   8.707  19.437  0.00  0.00    +0.000 A 
ATOM     15  N   UNL     1      -0.941  10.861  21.710  0.00  0.00    +0.000 N 
ATOM     16  C   UNL     1      -1.517  12.107  21.538  0.00  0.00    +0.000 A 
ATOM     17  C   UNL     1      -2.412  12.773  22.353  0.00  0.00    +0.000 A 
ATOM     18  C   UNL     1      -2.743  14.100  22.034  0.00  0.00    +0.000 A 
ATOM     19  C   UNL     1      -2.164  14.751  20.930  0.00  0.00    +0.000 A 
ATOM     20  C   UNL     1      -1.247  14.079  20.125  0.00  0.00    +0.000 A 
ATOM     21  C   UNL     1      -0.953  12.765  20.453  0.00  0.00    +0.000 A 
ATOM     22  H   UNL     1       1.348   6.463  21.795  0.00  0.00    +0.000 HD
ATOM     23  H   UNL     1      -1.341  10.113  22.274  0.00  0.00    +0.000 HD
ENDROOT
BRANCH   1  24
ATOM     24  O   UNL     1       1.864  11.650  18.489  0.00  0.00    +0.000 OA
BRANCH  24  25
ATOM     25  C   UNL     1       2.961  12.553  18.232  0.00  0.00    +0.000 C 
BRANCH  25  26
ATOM     26  C   UNL     1       2.396  13.935  17.899  0.00  0.00    +0.000 C 
BRANCH  26  31
ATOM     27  C   UNL     1       0.892  18.630  17.165  0.00  0.00    +0.000 C 
ATOM     28  N   UNL     1       1.879  17.758  17.797  0.00  0.00    +0.000 NA
ATOM     29  C   UNL     1       2.726  17.086  16.794  0.00  0.00    +0.000 C 
ATOM     30  C   UNL     1       3.685  16.016  17.388  0.00  0.00    +0.000 C 
ATOM     31  N   UNL     1       3.142  15.097  18.413  0.00  0.00    +0.000 NA
ATOM     32  C   UNL     1       2.287  15.868  19.344  0.00  0.00    +0.000 C 
ATOM     33  C   UNL     1       1.227  16.749  18.645  0.00  0.00    +0.000 C 
ENDBRANCH  26  31
ENDBRANCH  25  26
ENDBRANCH  24  25
ENDBRANCH   1  24
TORSDOF 4
ENDMDL
MODEL 8
REMARK VINA RESULT:      -6.5      4.246      8.161
REMARK  Name = 
REMARK  5 active torsions:
REMARK  status: ('A' for Active; 'I' for Inactive)
REMARK    1  A    between atoms: C_1  and  N_2
REMARK    2  A    between atoms: N_5  and  C_6
REMARK    3  A    between atoms: C_6  and  C_7
REMARK    4  A    between atoms: C_7  and  O_8
REMARK    5  A    between atoms: O_8  and  N_9
REMARK                            x       y       z     vdW  Elec       q    Type
REMARK                         _______ _______ _______ _____ _____    ______ ____
ROOT
ATOM      1  N   UNL     1       0.198  13.190  19.410  0.00  0.00    +0.000 NA
ATOM      2  C   UNL     1      -0.289  12.726  20.507  0.00  0.00    +0.000 C 
ATOM      3  C   UNL     1      -0.224  11.470  21.410  0.00  0.00    +0.000 C 
ATOM      4  C   UNL     1       0.238  10.226  21.173  0.00  0.00    +0.000 C 
ATOM      5  C   UNL     1       0.355   9.253  22.336  0.00  0.00    +0.000 C 
ATOM      6  O   UNL     1      -0.175   9.328  23.430  0.00  0.00    +0.000 OA
ATOM      7  N   UNL     1       1.204   8.249  21.892  0.00  0.00    +0.000 N 
ATOM      8  C   UNL     1       1.520   8.422  20.548  0.00  0.00    +0.000 A 
ATOM      9  C   UNL     1       2.318   7.602  19.773  0.00  0.00    +0.000 A 
ATOM     10  C   UNL     1       2.423   7.925  18.420  0.00  0.00    +0.000 A 
ATOM     11 BR   UNL     1       3.605   6.956  17.309  0.00  0.00    +0.000 Br
ATOM     12  C   UNL     1       1.648   8.953  17.864  0.00  0.00    +0.000 A 
ATOM     13  C   UNL     1       0.804   9.719  18.673  0.00  0.00    +0.000 A 
ATOM     14  C   UNL     1       0.852   9.541  20.037  0.00  0.00    +0.000 A 
ATOM     15  N   UNL     1      -0.814  11.859  22.623  0.00  0.00    +0.000 N 
ATOM     16  C   UNL     1      -1.422  13.095  22.507  0.00  0.00    +0.000 A 
ATOM     17  C   UNL     1      -2.108  13.821  23.463  0.00  0.00    +0.000 A 
ATOM     18  C   UNL     1      -2.514  15.127  23.142  0.00  0.00    +0.000 A 
ATOM     19  C   UNL     1      -2.213  15.699  21.893  0.00  0.00    +0.000 A 
ATOM     20  C   UNL     1      -1.504  14.967  20.943  0.00  0.00    +0.000 A 
ATOM     21  C   UNL     1      -1.132  13.676  21.280  0.00  0.00    +0.000 A 
ATOM     22  H   UNL     1       1.465   7.457  22.462  0.00  0.00    +0.000 HD
ATOM     23  H   UNL     1      -1.065  11.153  23.312  0.00  0.00    +0.000 HD
ENDROOT
BRANCH   1  24
ATOM     24  O   UNL     1       1.157  12.410  18.791  0.00  0.00    +0.000 OA
BRANCH  24  25
ATOM     25  C   UNL     1       2.130  13.286  18.182  0.00  0.00    +0.000 C 
BRANCH  25  26
ATOM     26  C   UNL     1       3.043  13.845  19.275  0.00  0.00    +0.000 C 
BRANCH  26  31
ATOM     27  C   UNL     1       7.912  14.806  18.814  0.00  0.00    +0.000 C 
ATOM     28  N   UNL     1       6.560  15.359  18.791  0.00  0.00    +0.000 NA
ATOM     29  C   UNL     1       5.937  15.315  20.127  0.00  0.00    +0.000 C 
ATOM     30  C   UNL     1       4.438  15.730  20.142  0.00  0.00    +0.000 C 
ATOM     31  N   UNL     1       3.567  15.207  19.067  0.00  0.00    +0.000 NA
ATOM     32  C   UNL     1       4.300  15.269  17.782  0.00  0.00    +0.000 C 
ATOM     33  C   UNL     1       5.711  14.641  17.829  0.00  0.00    +0.000 C 
ENDBRANCH  26  31
ENDBRANCH  25  26
ENDBRANCH  24  25
ENDBRANCH   1  24
TORSDOF 4
ENDMDL
MODEL 9
REMARK VINA RESULT:      -6.5      3.134      6.311
REMARK  Name = 
REMARK  5 active torsions:
REMARK  status: ('A' for Active; 'I' for Inactive)
REMARK    1  A    between atoms: C_1  and  N_2
REMARK    2  A    between atoms: N_5  and  C_6
REMARK    3  A    between atoms: C_6  and  C_7
REMARK    4  A    between atoms: C_7  and  O_8
REMARK    5  A    between atoms: O_8  and  N_9
REMARK                            x       y       z     vdW  Elec       q    Type
REMARK                         _______ _______ _______ _____ _____    ______ ____
ROOT
ATOM      1  N   UNL     1      -1.011  11.562  19.539  0.00  0.00    +0.000 NA
ATOM      2  C   UNL     1      -2.229  11.731  19.159  0.00  0.00    +0.000 C 
ATOM      3  C   UNL     1      -3.498  12.537  19.528  0.00  0.00    +0.000 C 
ATOM      4  C   UNL     1      -3.827  13.218  20.643  0.00  0.00    +0.000 C 
ATOM      5  C   UNL     1      -5.075  14.089  20.630  0.00  0.00    +0.000 C 
ATOM      6  O   UNL     1      -6.003  14.053  19.842  0.00  0.00    +0.000 OA
ATOM      7  N   UNL     1      -4.937  14.946  21.713  0.00  0.00    +0.000 N 
ATOM      8  C   UNL     1      -3.815  14.620  22.467  0.00  0.00    +0.000 A 
ATOM      9  C   UNL     1      -3.384  15.242  23.623  0.00  0.00    +0.000 A 
ATOM     10  C   UNL     1      -2.276  14.685  24.261  0.00  0.00    +0.000 A 
ATOM     11 BR   UNL     1      -1.521  15.547  25.764  0.00  0.00    +0.000 Br
ATOM     12  C   UNL     1      -1.720  13.477  23.814  0.00  0.00    +0.000 A 
ATOM     13  C   UNL     1      -2.227  12.845  22.675  0.00  0.00    +0.000 A 
ATOM     14  C   UNL     1      -3.180  13.495  21.925  0.00  0.00    +0.000 A 
ATOM     15  N   UNL     1      -4.352  12.402  18.422  0.00  0.00    +0.000 N 
ATOM     16  C   UNL     1      -3.875  11.454  17.536  0.00  0.00    +0.000 A 
ATOM     17  C   UNL     1      -4.418  11.030  16.339  0.00  0.00    +0.000 A 
ATOM     18  C   UNL     1      -3.668  10.151  15.541  0.00  0.00    +0.000 A 
ATOM     19  C   UNL     1      -2.384   9.728  15.930  0.00  0.00    +0.000 A 
ATOM     20  C   UNL     1      -1.836  10.176  17.130  0.00  0.00    +0.000 A 
ATOM     21  C   UNL     1      -2.606  11.028  17.905  0.00  0.00    +0.000 A 
ATOM     22  H   UNL     1      -5.626  15.644  21.953  0.00  0.00    +0.000 HD
ATOM     23  H   UNL     1      -5.328  12.682  18.500  0.00  0.00    +0.000 HD
ENDROOT
BRANCH   1  24
ATOM     24  O   UNL     1      -0.576  12.375  20.569  0.00  0.00    +0.000 OA
BRANCH  24  25
ATOM     25  C   UNL     1       0.815  12.081  20.822  0.00  0.00    +0.000 C 
BRANCH  25  26
ATOM     26  C   UNL     1       1.652  12.611  19.656  0.00  0.00    +0.000 C 
BRANCH  26  31
ATOM     27  C   UNL     1       1.429  17.455  18.507  0.00  0.00    +0.000 C 
ATOM     28  N   UNL     1       2.193  16.400  19.168  0.00  0.00    +0.000 NA
ATOM     29  C   UNL     1       2.729  15.432  18.194  0.00  0.00    +0.000 C 
ATOM     30  C   UNL     1       3.409  14.192  18.840  0.00  0.00    +0.000 C 
ATOM     31  N   UNL     1       2.731  13.556  19.992  0.00  0.00    +0.000 NA
ATOM     32  C   UNL     1       2.208  14.615  20.885  0.00  0.00    +0.000 C 
ATOM     33  C   UNL     1       1.370  15.694  20.161  0.00  0.00    +0.000 C 
ENDBRANCH  26  31
ENDBRANCH  25  26
ENDBRANCH  24  25
ENDBRANCH   1  24
TORSDOF 4
ENDMDL
