MODEL 1
REMARK VINA RESULT:      -6.8      0.000      0.000
REMARK  Name = 
REMARK  5 active torsions:
REMARK  status: ('A' for Active; 'I' for Inactive)
REMARK    1  A    between atoms: C_1  and  O_2
REMARK    2  A    between atoms: O_2  and  C_3
REMARK    3  A    between atoms: N_7  and  C_8
REMARK    4  A    between atoms: C_8  and  C_9
REMARK    5  A    between atoms: N_14  and  C_15
REMARK                            x       y       z     vdW  Elec       q    Type
REMARK                         _______ _______ _______ _____ _____    ______ ____
ROOT
ATOM      1  C   UNL     1       4.788   4.850  17.099  0.00  0.00    +0.000 C 
ENDROOT
BRANCH   1   2
ATOM      2  C   UNL     1       3.455   5.140  17.800  0.00  0.00    +0.000 C 
ATOM      3  O   UNL     1       2.980   6.278  17.761  0.00  0.00    +0.000 OA
ATOM      4  N   UNL     1       2.793   4.089  18.444  0.00  0.00    +0.000 N 
ATOM      5  C   UNL     1       1.537   4.442  19.115  0.00  0.00    +0.000 C 
ATOM      6  C   UNL     1       0.740   3.231  19.635  0.00  0.00    +0.000 C 
ATOM      7  N   UNL     1       1.537   2.250  20.397  0.00  0.00    +0.000 NA
ATOM      8  C   UNL     1       1.969   2.789  21.687  0.00  0.00    +0.000 C 
ATOM      9  C   UNL     1       2.682   1.831  19.568  0.00  0.00    +0.000 C 
ATOM     10  C   UNL     1       3.553   2.982  19.034  0.00  0.00    +0.000 C 
ENDBRANCH   1   2
BRANCH   1  15
ATOM     11  C   UNL     1       7.522   7.471  17.659  0.00  0.00    +0.000 A 
ATOM     12  C   UNL     1       8.144   6.890  18.698  0.00  0.00    +0.000 A 
ATOM     13  C   UNL     1       7.684   5.645  19.253  0.00  0.00    +0.000 A 
ATOM     14  C   UNL     1       6.596   5.049  18.752  0.00  0.00    +0.000 A 
ATOM     15  N   UNL     1       5.920   5.588  17.673  0.00  0.00    +0.000 N 
ATOM     16  C   UNL     1       6.356   6.738  17.017  0.00  0.00    +0.000 A 
ATOM     17  O   UNL     1       5.842   7.147  15.978  0.00  0.00    +0.000 OA
BRANCH  11  19
ATOM     18  C   UNL     1       8.492   9.553  18.198  0.00  0.00    +0.000 C 
ATOM     19  O   UNL     1       7.987   8.690  17.181  0.00  0.00    +0.000 OA
ENDBRANCH  11  19
ENDBRANCH   1  15
TORSDOF 3
ENDMDL
MODEL 2
REMARK VINA RESULT:      -6.5      2.030      2.965
REMARK  Name = 
REMARK  5 active torsions:
REMARK  status: ('A' for Active; 'I' for Inactive)
REMARK    1  A    between atoms: C_1  and  O_2
REMARK    2  A    between atoms: O_2  and  C_3
REMARK    3  A    between atoms: N_7  and  C_8
REMARK    4  A    between atoms: C_8  and  C_9
REMARK    5  A    between atoms: N_14  and  C_15
REMARK                            x       y       z     vdW  Elec       q    Type
REMARK                         _______ _______ _______ _____ _____    ______ ____
ROOT
ATOM      1  C   UNL     1       5.739   5.132  18.273  0.00  0.00    +0.000 C 
ENDROOT
BRANCH   1   2
ATOM      2  C   UNL     1       4.264   5.432  18.567  0.00  0.00    +0.000 C 
ATOM      3  O   UNL     1       3.845   6.589  18.468  0.00  0.00    +0.000 OA
ATOM      4  N   UNL     1       3.419   4.371  18.912  0.00  0.00    +0.000 N 
ATOM      5  C   UNL     1       2.028   4.732  19.204  0.00  0.00    +0.000 C 
ATOM      6  C   UNL     1       1.089   3.525  19.380  0.00  0.00    +0.000 C 
ATOM      7  N   UNL     1       1.603   2.470  20.274  0.00  0.00    +0.000 NA
ATOM      8  C   UNL     1       1.641   2.913  21.668  0.00  0.00    +0.000 C 
ATOM      9  C   UNL     1       2.933   2.056  19.795  0.00  0.00    +0.000 C 
ATOM     10  C   UNL     1       3.947   3.202  19.623  0.00  0.00    +0.000 C 
ENDBRANCH   1   2
BRANCH   1  15
ATOM     11  C   UNL     1       7.172   5.111  14.723  0.00  0.00    +0.000 A 
ATOM     12  C   UNL     1       6.358   4.187  14.186  0.00  0.00    +0.000 A 
ATOM     13  C   UNL     1       5.338   3.536  14.964  0.00  0.00    +0.000 A 
ATOM     14  C   UNL     1       5.197   3.827  16.262  0.00  0.00    +0.000 A 
ATOM     15  N   UNL     1       5.993   4.780  16.870  0.00  0.00    +0.000 N 
ATOM     16  C   UNL     1       6.939   5.524  16.166  0.00  0.00    +0.000 A 
ATOM     17  O   UNL     1       7.553   6.463  16.667  0.00  0.00    +0.000 OA
BRANCH  11  19
ATOM     18  C   UNL     1       8.026   5.411  12.544  0.00  0.00    +0.000 C 
ATOM     19  O   UNL     1       8.163   5.685  13.937  0.00  0.00    +0.000 OA
ENDBRANCH  11  19
ENDBRANCH   1  15
TORSDOF 3
ENDMDL
MODEL 3
REMARK VINA RESULT:      -6.3      2.320      3.409
REMARK  Name = 
REMARK  5 active torsions:
REMARK  status: ('A' for Active; 'I' for Inactive)
REMARK    1  A    between atoms: C_1  and  O_2
REMARK    2  A    between atoms: O_2  and  C_3
REMARK    3  A    between atoms: N_7  and  C_8
REMARK    4  A    between atoms: C_8  and  C_9
REMARK    5  A    between atoms: N_14  and  C_15
REMARK                            x       y       z     vdW  Elec       q    Type
REMARK                         _______ _______ _______ _____ _____    ______ ____
ROOT
ATOM      1  C   UNL     1       5.350   5.586  18.082  0.00  0.00    +0.000 C 
ENDROOT
BRANCH   1   2
ATOM      2  C   UNL     1       5.009   4.456  19.061  0.00  0.00    +0.000 C 
ATOM      3  O   UNL     1       5.881   3.644  19.384  0.00  0.00    +0.000 OA
ATOM      4  N   UNL     1       3.715   4.395  19.591  0.00  0.00    +0.000 N 
ATOM      5  C   UNL     1       3.451   3.276  20.502  0.00  0.00    +0.000 C 
ATOM      6  C   UNL     1       2.091   3.356  21.218  0.00  0.00    +0.000 C 
ATOM      7  N   UNL     1       0.946   3.655  20.335  0.00  0.00    +0.000 NA
ATOM      8  C   UNL     1       0.648   2.537  19.439  0.00  0.00    +0.000 C 
ATOM      9  C   UNL     1       1.240   4.891  19.589  0.00  0.00    +0.000 C 
ATOM     10  C   UNL     1       2.571   4.882  18.815  0.00  0.00    +0.000 C 
ENDBRANCH   1   2
BRANCH   1  15
ATOM     11  C   UNL     1       7.152   5.170  14.730  0.00  0.00    +0.000 A 
ATOM     12  C   UNL     1       6.323   4.274  14.169  0.00  0.00    +0.000 A 
ATOM     13  C   UNL     1       5.171   3.770  14.868  0.00  0.00    +0.000 A 
ATOM     14  C   UNL     1       4.917   4.173  16.118  0.00  0.00    +0.000 A 
ATOM     15  N   UNL     1       5.722   5.105  16.745  0.00  0.00    +0.000 N 
ATOM     16  C   UNL     1       6.800   5.714  16.104  0.00  0.00    +0.000 A 
ATOM     17  O   UNL     1       7.437   6.638  16.605  0.00  0.00    +0.000 OA
BRANCH  11  19
ATOM     18  C   UNL     1       8.109   5.554  12.608  0.00  0.00    +0.000 C 
ATOM     19  O   UNL     1       8.269   5.600  14.024  0.00  0.00    +0.000 OA
ENDBRANCH  11  19
ENDBRANCH   1  15
TORSDOF 3
ENDMDL
MODEL 4
REMARK VINA RESULT:      -6.1      3.194      4.185
REMARK  Name = 
REMARK  5 active torsions:
REMARK  status: ('A' for Active; 'I' for Inactive)
REMARK    1  A    between atoms: C_1  and  O_2
REMARK    2  A    between atoms: O_2  and  C_3
REMARK    3  A    between atoms: N_7  and  C_8
REMARK    4  A    between atoms: C_8  and  C_9
REMARK    5  A    between atoms: N_14  and  C_15
REMARK                            x       y       z     vdW  Elec       q    Type
REMARK                         _______ _______ _______ _____ _____    ______ ____
ROOT
ATOM      1  C   UNL     1       3.344   5.677  18.086  0.00  0.00    +0.000 C 
ENDROOT
BRANCH   1   2
ATOM      2  C   UNL     1       2.489   6.295  19.199  0.00  0.00    +0.000 C 
ATOM      3  O   UNL     1       2.087   5.584  20.125  0.00  0.00    +0.000 OA
ATOM      4  N   UNL     1       2.211   7.665  19.150  0.00  0.00    +0.000 N 
ATOM      5  C   UNL     1       1.368   8.184  20.232  0.00  0.00    +0.000 C 
ATOM      6  C   UNL     1       1.252   9.719  20.258  0.00  0.00    +0.000 C 
ATOM      7  N   UNL     1       0.947  10.336  18.952  0.00  0.00    +0.000 NA
ATOM      8  C   UNL     1      -0.414  10.029  18.514  0.00  0.00    +0.000 C 
ATOM      9  C   UNL     1       1.953   9.884  17.974  0.00  0.00    +0.000 C 
ATOM     10  C   UNL     1       2.108   8.357  17.861  0.00  0.00    +0.000 C 
ENDBRANCH   1   2
BRANCH   1  15
ATOM     11  C   UNL     1       6.962   6.851  17.657  0.00  0.00    +0.000 A 
ATOM     12  C   UNL     1       7.531   6.094  18.610  0.00  0.00    +0.000 A 
ATOM     13  C   UNL     1       6.755   5.198  19.425  0.00  0.00    +0.000 A 
ATOM     14  C   UNL     1       5.429   5.122  19.262  0.00  0.00    +0.000 A 
ATOM     15  N   UNL     1       4.787   5.864  18.289  0.00  0.00    +0.000 N 
ATOM     16  C   UNL     1       5.476   6.682  17.395  0.00  0.00    +0.000 A 
ATOM     17  O   UNL     1       4.930   7.237  16.445  0.00  0.00    +0.000 OA
BRANCH  11  19
ATOM     18  C   UNL     1       8.094   8.921  17.618  0.00  0.00    +0.000 C 
ATOM     19  O   UNL     1       7.752   7.726  16.921  0.00  0.00    +0.000 OA
ENDBRANCH  11  19
ENDBRANCH   1  15
TORSDOF 3
ENDMDL
MODEL 5
REMARK VINA RESULT:      -6.0      1.347      1.785
REMARK  Name = 
REMARK  5 active torsions:
REMARK  status: ('A' for Active; 'I' for Inactive)
REMARK    1  A    between atoms: C_1  and  O_2
REMARK    2  A    between atoms: O_2  and  C_3
REMARK    3  A    between atoms: N_7  and  C_8
REMARK    4  A    between atoms: C_8  and  C_9
REMARK    5  A    between atoms: N_14  and  C_15
REMARK                            x       y       z     vdW  Elec       q    Type
REMARK                         _______ _______ _______ _____ _____    ______ ____
ROOT
ATOM      1  C   UNL     1       4.811   4.653  16.798  0.00  0.00    +0.000 C 
ENDROOT
BRANCH   1   2
ATOM      2  C   UNL     1       4.362   3.439  17.619  0.00  0.00    +0.000 C 
ATOM      3  O   UNL     1       4.567   2.300  17.188  0.00  0.00    +0.000 OA
ATOM      4  N   UNL     1       3.755   3.656  18.861  0.00  0.00    +0.000 N 
ATOM      5  C   UNL     1       3.328   2.452  19.582  0.00  0.00    +0.000 C 
ATOM      6  C   UNL     1       2.852   2.717  21.022  0.00  0.00    +0.000 C 
ATOM      7  N   UNL     1       1.896   3.833  21.160  0.00  0.00    +0.000 NA
ATOM      8  C   UNL     1       0.599   3.510  20.565  0.00  0.00    +0.000 C 
ATOM      9  C   UNL     1       2.491   5.038  20.555  0.00  0.00    +0.000 C 
ATOM     10  C   UNL     1       2.964   4.868  19.100  0.00  0.00    +0.000 C 
ENDBRANCH   1   2
BRANCH   1  15
ATOM     11  C   UNL     1       7.377   7.388  17.568  0.00  0.00    +0.000 A 
ATOM     12  C   UNL     1       8.047   6.762  18.549  0.00  0.00    +0.000 A 
ATOM     13  C   UNL     1       7.674   5.446  18.997  0.00  0.00    +0.000 A 
ATOM     14  C   UNL     1       6.621   4.826  18.452  0.00  0.00    +0.000 A 
ATOM     15  N   UNL     1       5.901   5.411  17.428  0.00  0.00    +0.000 N 
ATOM     16  C   UNL     1       6.254   6.640  16.871  0.00  0.00    +0.000 A 
ATOM     17  O   UNL     1       5.704   7.102  15.875  0.00  0.00    +0.000 OA
BRANCH  11  19
ATOM     18  C   UNL     1       8.424   9.398  18.226  0.00  0.00    +0.000 C 
ATOM     19  O   UNL     1       7.758   8.672  17.196  0.00  0.00    +0.000 OA
ENDBRANCH  11  19
ENDBRANCH   1  15
TORSDOF 3
ENDMDL
MODEL 6
REMARK VINA RESULT:      -5.8      4.225      6.270
REMARK  Name = 
REMARK  5 active torsions:
REMARK  status: ('A' for Active; 'I' for Inactive)
REMARK    1  A    between atoms: C_1  and  O_2
REMARK    2  A    between atoms: O_2  and  C_3
REMARK    3  A    between atoms: N_7  and  C_8
REMARK    4  A    between atoms: C_8  and  C_9
REMARK    5  A    between atoms: N_14  and  C_15
REMARK                            x       y       z     vdW  Elec       q    Type
REMARK                         _______ _______ _______ _____ _____    ______ ____
ROOT
ATOM      1  C   UNL     1       2.826   6.880  18.577  0.00  0.00    +0.000 C 
ENDROOT
BRANCH   1   2
ATOM      2  C   UNL     1       2.002   7.397  19.763  0.00  0.00    +0.000 C 
ATOM      3  O   UNL     1       1.705   6.627  20.681  0.00  0.00    +0.000 OA
ATOM      4  N   UNL     1       1.634   8.746  19.787  0.00  0.00    +0.000 N 
ATOM      5  C   UNL     1       0.827   9.166  20.938  0.00  0.00    +0.000 C 
ATOM      6  C   UNL     1       0.613  10.688  21.034  0.00  0.00    +0.000 C 
ATOM      7  N   UNL     1       0.190  11.332  19.775  0.00  0.00    +0.000 NA
ATOM      8  C   UNL     1      -1.173  10.950  19.404  0.00  0.00    +0.000 C 
ATOM      9  C   UNL     1       1.160  10.985  18.722  0.00  0.00    +0.000 C 
ATOM     10  C   UNL     1       1.408   9.477  18.537  0.00  0.00    +0.000 C 
ENDBRANCH   1   2
BRANCH   1  15
ATOM     11  C   UNL     1       4.147   3.325  19.096  0.00  0.00    +0.000 A 
ATOM     12  C   UNL     1       3.234   2.665  18.365  0.00  0.00    +0.000 A 
ATOM     13  C   UNL     1       2.160   3.352  17.700  0.00  0.00    +0.000 A 
ATOM     14  C   UNL     1       2.035   4.679  17.822  0.00  0.00    +0.000 A 
ATOM     15  N   UNL     1       2.951   5.417  18.548  0.00  0.00    +0.000 N 
ATOM     16  C   UNL     1       4.073   4.841  19.142  0.00  0.00    +0.000 A 
ATOM     17  O   UNL     1       4.960   5.506  19.673  0.00  0.00    +0.000 OA
BRANCH  11  19
ATOM     18  C   UNL     1       4.661   1.733  20.761  0.00  0.00    +0.000 C 
ATOM     19  O   UNL     1       5.146   2.609  19.746  0.00  0.00    +0.000 OA
ENDBRANCH  11  19
ENDBRANCH   1  15
TORSDOF 3
ENDMDL
MODEL 7
REMARK VINA RESULT:      -5.8      1.976      2.380
REMARK  Name = 
REMARK  5 active torsions:
REMARK  status: ('A' for Active; 'I' for Inactive)
REMARK    1  A    between atoms: C_1  and  O_2
REMARK    2  A    between atoms: O_2  and  C_3
REMARK    3  A    between atoms: N_7  and  C_8
REMARK    4  A    between atoms: C_8  and  C_9
REMARK    5  A    between atoms: N_14  and  C_15
REMARK                            x       y       z     vdW  Elec       q    Type
REMARK                         _______ _______ _______ _____ _____    ______ ____
ROOT
ATOM      1  C   UNL     1       3.674   7.022  17.782  0.00  0.00    +0.000 C 
ENDROOT
BRANCH   1   2
ATOM      2  C   UNL     1       2.798   6.355  18.849  0.00  0.00    +0.000 C 
ATOM      3  O   UNL     1       2.550   6.957  19.898  0.00  0.00    +0.000 OA
ATOM      4  N   UNL     1       2.273   5.084  18.589  0.00  0.00    +0.000 N 
ATOM      5  C   UNL     1       1.465   4.496  19.662  0.00  0.00    +0.000 C 
ATOM      6  C   UNL     1       0.743   3.196  19.265  0.00  0.00    +0.000 C 
ATOM      7  N   UNL     1       1.594   2.202  18.582  0.00  0.00    +0.000 NA
ATOM      8  C   UNL     1       2.584   1.624  19.490  0.00  0.00    +0.000 C 
ATOM      9  C   UNL     1       2.228   2.848  17.419  0.00  0.00    +0.000 C 
ATOM     10  C   UNL     1       3.002   4.140  17.736  0.00  0.00    +0.000 C 
ENDBRANCH   1   2
BRANCH   1  15
ATOM     11  C   UNL     1       6.953   5.697  16.314  0.00  0.00    +0.000 A 
ATOM     12  C   UNL     1       7.456   5.136  17.426  0.00  0.00    +0.000 A 
ATOM     13  C   UNL     1       6.754   5.186  18.681  0.00  0.00    +0.000 A 
ATOM     14  C   UNL     1       5.583   5.827  18.768  0.00  0.00    +0.000 A 
ATOM     15  N   UNL     1       5.005   6.412  17.657  0.00  0.00    +0.000 N 
ATOM     16  C   UNL     1       5.572   6.325  16.386  0.00  0.00    +0.000 A 
ATOM     17  O   UNL     1       5.000   6.723  15.374  0.00  0.00    +0.000 OA
BRANCH  11  19
ATOM     18  C   UNL     1       7.183   4.720  14.179  0.00  0.00    +0.000 C 
ATOM     19  O   UNL     1       7.687   5.649  15.135  0.00  0.00    +0.000 OA
ENDBRANCH  11  19
ENDBRANCH   1  15
TORSDOF 3
ENDMDL
MODEL 8
REMARK VINA RESULT:      -5.7      4.236      6.780
REMARK  Name = 
REMARK  5 active torsions:
REMARK  status: ('A' for Active; 'I' for Inactive)
REMARK    1  A    between atoms: C_1  and  O_2
REMARK    2  A    between atoms: O_2  and  C_3
REMARK    3  A    between atoms: N_7  and  C_8
REMARK    4  A    between atoms: C_8  and  C_9
REMARK    5  A    between atoms: N_14  and  C_15
REMARK                            x       y       z     vdW  Elec       q    Type
REMARK                         _______ _______ _______ _____ _____    ______ ____
ROOT
ATOM      1  C   UNL     1       3.058   7.135  19.024  0.00  0.00    +0.000 C 
ENDROOT
BRANCH   1   2
ATOM      2  C   UNL     1       2.220   8.243  18.375  0.00  0.00    +0.000 C 
ATOM      3  O   UNL     1       2.456   8.587  17.213  0.00  0.00    +0.000 OA
ATOM      4  N   UNL     1       1.180   8.817  19.114  0.00  0.00    +0.000 N 
ATOM      5  C   UNL     1       0.435   9.887  18.442  0.00  0.00    +0.000 C 
ATOM      6  C   UNL     1      -0.821  10.353  19.201  0.00  0.00    +0.000 C 
ATOM      7  N   UNL     1      -0.608  10.621  20.637  0.00  0.00    +0.000 NA
ATOM      8  C   UNL     1       0.219  11.810  20.848  0.00  0.00    +0.000 C 
ATOM      9  C   UNL     1      -0.013   9.423  21.255  0.00  0.00    +0.000 C 
ATOM     10  C   UNL     1       1.269   8.910  20.575  0.00  0.00    +0.000 C 
ENDBRANCH   1   2
BRANCH   1  15
ATOM     11  C   UNL     1       1.346   3.795  19.780  0.00  0.00    +0.000 A 
ATOM     12  C   UNL     1       1.499   3.217  18.578  0.00  0.00    +0.000 A 
ATOM     13  C   UNL     1       2.144   3.899  17.488  0.00  0.00    +0.000 A 
ATOM     14  C   UNL     1       2.587   5.151  17.650  0.00  0.00    +0.000 A 
ATOM     15  N   UNL     1       2.474   5.796  18.868  0.00  0.00    +0.000 N 
ATOM     16  C   UNL     1       1.949   5.172  19.999  0.00  0.00    +0.000 A 
ATOM     17  O   UNL     1       1.969   5.689  21.113  0.00  0.00    +0.000 OA
BRANCH  11  19
ATOM     18  C   UNL     1       1.558   2.466  21.718  0.00  0.00    +0.000 C 
ATOM     19  O   UNL     1       0.685   3.105  20.789  0.00  0.00    +0.000 OA
ENDBRANCH  11  19
ENDBRANCH   1  15
TORSDOF 3
ENDMDL
MODEL 9
REMARK VINA RESULT:      -5.7      1.922      2.475
REMARK  Name = 
REMARK  5 active torsions:
REMARK  status: ('A' for Active; 'I' for Inactive)
REMARK    1  A    between atoms: C_1  and  O_2
REMARK    2  A    between atoms: O_2  and  C_3
REMARK    3  A    between atoms: N_7  and  C_8
REMARK    4  A    between atoms: C_8  and  C_9
REMARK    5  A    between atoms: N_14  and  C_15
REMARK                            x       y       z     vdW  Elec       q    Type
REMARK                         _______ _______ _______ _____ _____    ______ ____
ROOT
ATOM      1  C   UNL     1       4.409   6.778  18.336  0.00  0.00    +0.000 C 
ENDROOT
BRANCH   1   2
ATOM      2  C   UNL     1       3.049   6.095  18.143  0.00  0.00    +0.000 C 
ATOM      3  O   UNL     1       2.142   6.696  17.560  0.00  0.00    +0.000 OA
ATOM      4  N   UNL     1       2.883   4.786  18.609  0.00  0.00    +0.000 N 
ATOM      5  C   UNL     1       1.551   4.204  18.413  0.00  0.00    +0.000 C 
ATOM      6  C   UNL     1       1.465   2.705  18.752  0.00  0.00    +0.000 C 
ATOM      7  N   UNL     1       2.067   2.330  20.047  0.00  0.00    +0.000 NA
ATOM      8  C   UNL     1       1.290   2.846  21.174  0.00  0.00    +0.000 C 
ATOM      9  C   UNL     1       3.458   2.813  20.074  0.00  0.00    +0.000 C 
ATOM     10  C   UNL     1       3.631   4.314  19.778  0.00  0.00    +0.000 C 
ENDBRANCH   1   2
BRANCH   1  15
ATOM     11  C   UNL     1       6.746   5.310  15.682  0.00  0.00    +0.000 A 
ATOM     12  C   UNL     1       7.538   4.588  16.492  0.00  0.00    +0.000 A 
ATOM     13  C   UNL     1       7.345   4.572  17.917  0.00  0.00    +0.000 A 
ATOM     14  C   UNL     1       6.375   5.308  18.471  0.00  0.00    +0.000 A 
ATOM     15  N   UNL     1       5.517   6.060  17.691  0.00  0.00    +0.000 N 
ATOM     16  C   UNL     1       5.574   6.055  16.298  0.00  0.00    +0.000 A 
ATOM     17  O   UNL     1       4.733   6.611  15.595  0.00  0.00    +0.000 OA
BRANCH  11  19
ATOM     18  C   UNL     1       6.502   4.168  13.632  0.00  0.00    +0.000 C 
ATOM     19  O   UNL     1       6.995   5.318  14.315  0.00  0.00    +0.000 OA
ENDBRANCH  11  19
ENDBRANCH   1  15
TORSDOF 3
ENDMDL
