MODEL 1
REMARK VINA RESULT:      -8.0      0.000      0.000
REMARK  Name = 
REMARK  13 active torsions:
REMARK  status: ('A' for Active; 'I' for Inactive)
REMARK    1  A    between atoms: C_1  and  C_2
REMARK    2  A    between atoms: C_2  and  C_3
REMARK    3  A    between atoms: C_3  and  C_4
REMARK    4  A    between atoms: C_3  and  O_5
REMARK    5  A    between atoms: O_5  and  C_6
REMARK    6  A    between atoms: C_9  and  C_10
REMARK    7  A    between atoms: C_12  and  C_13
REMARK    8  A    between atoms: C_16  and  C_17
REMARK    9  A    between atoms: C_17  and  C_18
REMARK   10  A    between atoms: C_18  and  C_19
REMARK   11  A    between atoms: C_19  and  O_21
REMARK   12  A    between atoms: C_23  and  C_24
REMARK   13  A    between atoms: C_28  and  C_29
REMARK                            x       y       z     vdW  Elec       q    Type
REMARK                         _______ _______ _______ _____ _____    ______ ____
ROOT
ATOM      1  C   UNL     1       1.736   7.636  20.152  0.00  0.00    +0.000 A 
ATOM      2  N   UNL     1       2.489   7.560  19.079  0.00  0.00    +0.000 NA
ATOM      3  C   UNL     1       2.905   6.251  19.082  0.00  0.00    +0.000 A 
ATOM      4  N   UNL     1       2.481   5.557  20.153  0.00  0.00    +0.000 NA
ATOM      5  O   UNL     1       1.695   6.476  20.861  0.00  0.00    +0.000 OA
ENDROOT
BRANCH   3   6
ATOM      6  C   UNL     1       3.731   5.730  17.991  0.00  0.00    +0.000 A 
ATOM      7  C   UNL     1       4.724   6.570  17.450  0.00  0.00    +0.000 A 
ATOM      8  C   UNL     1       5.547   6.147  16.400  0.00  0.00    +0.000 A 
ATOM      9  C   UNL     1       5.400   4.867  15.862  0.00  0.00    +0.000 A 
ATOM     10  C   UNL     1       4.389   4.039  16.372  0.00  0.00    +0.000 A 
ATOM     11  C   UNL     1       3.546   4.454  17.423  0.00  0.00    +0.000 A 
ATOM     12  C   UNL     1       2.442   3.529  17.861  0.00  0.00    +0.000 C 
BRANCH   9  13
ATOM     13  C   UNL     1       6.270   4.391  14.720  0.00  0.00    +0.000 C 
BRANCH  13  14
ATOM     14  C   UNL     1       5.469   3.955  13.492  0.00  0.00    +0.000 C 
BRANCH  14  15
ATOM     15  C   UNL     1       6.382   3.503  12.378  0.00  0.00    +0.000 C 
ATOM     16  O   UNL     1       7.257   4.180  11.862  0.00  0.00    +0.000 OA
BRANCH  15  17
ATOM     17  O   UNL     1       6.134   2.230  11.991  0.00  0.00    +0.000 OA
ATOM     18  H   UNL     1       6.347   1.560  12.669  0.00  0.00    +0.000 HD
ENDBRANCH  15  17
ENDBRANCH  14  15
ENDBRANCH  13  14
ENDBRANCH   9  13
ENDBRANCH   3   6
BRANCH   1  22
ATOM     19  C   UNL     1      -0.588  11.103  21.195  0.00  0.00    +0.000 A 
ATOM     20  C   UNL     1      -0.506  10.022  22.094  0.00  0.00    +0.000 A 
ATOM     21  C   UNL     1       0.253   8.870  21.801  0.00  0.00    +0.000 A 
ATOM     22  C   UNL     1       0.940   8.775  20.590  0.00  0.00    +0.000 A 
ATOM     23  C   UNL     1       0.874   9.865  19.713  0.00  0.00    +0.000 A 
ATOM     24  C   UNL     1       0.161  11.032  20.016  0.00  0.00    +0.000 A 
BRANCH  24  25
ATOM     25  C   UNL     1       0.328  12.103  19.083  0.00  0.00    +0.000 C 
ATOM     26  N   UNL     1       0.431  13.000  18.359  0.00  0.00    +0.000 NA
ENDBRANCH  24  25
BRANCH  19  27
ATOM     27  O   UNL     1      -1.375  12.146  21.622  0.00  0.00    +0.000 OA
BRANCH  27  28
ATOM     28  C   UNL     1      -1.514  12.382  23.037  0.00  0.00    +0.000 C 
ATOM     29  C   UNL     1      -1.120  13.814  23.401  0.00  0.00    +0.000 C 
BRANCH  28  31
ATOM     30  C   UNL     1      -4.000  12.778  22.571  0.00  0.00    +0.000 C 
ATOM     31  C   UNL     1      -2.966  12.131  23.482  0.00  0.00    +0.000 C 
ENDBRANCH  28  31
ENDBRANCH  27  28
ENDBRANCH  19  27
ENDBRANCH   1  22
TORSDOF 10
ENDMDL
MODEL 2
REMARK VINA RESULT:      -7.7      1.553      1.743
REMARK  Name = 
REMARK  13 active torsions:
REMARK  status: ('A' for Active; 'I' for Inactive)
REMARK    1  A    between atoms: C_1  and  C_2
REMARK    2  A    between atoms: C_2  and  C_3
REMARK    3  A    between atoms: C_3  and  C_4
REMARK    4  A    between atoms: C_3  and  O_5
REMARK    5  A    between atoms: O_5  and  C_6
REMARK    6  A    between atoms: C_9  and  C_10
REMARK    7  A    between atoms: C_12  and  C_13
REMARK    8  A    between atoms: C_16  and  C_17
REMARK    9  A    between atoms: C_17  and  C_18
REMARK   10  A    between atoms: C_18  and  C_19
REMARK   11  A    between atoms: C_19  and  O_21
REMARK   12  A    between atoms: C_23  and  C_24
REMARK   13  A    between atoms: C_28  and  C_29
REMARK                            x       y       z     vdW  Elec       q    Type
REMARK                         _______ _______ _______ _____ _____    ______ ____
ROOT
ATOM      1  C   UNL     1       1.615   8.620  19.311  0.00  0.00    +0.000 A 
ATOM      2  N   UNL     1       2.300   8.244  18.256  0.00  0.00    +0.000 NA
ATOM      3  C   UNL     1       2.826   7.036  18.639  0.00  0.00    +0.000 A 
ATOM      4  N   UNL     1       2.534   6.703  19.910  0.00  0.00    +0.000 NA
ATOM      5  O   UNL     1       1.720   7.754  20.355  0.00  0.00    +0.000 OA
ENDROOT
BRANCH   3   6
ATOM      6  C   UNL     1       3.620   6.239  17.703  0.00  0.00    +0.000 A 
ATOM      7  C   UNL     1       4.674   6.874  17.017  0.00  0.00    +0.000 A 
ATOM      8  C   UNL     1       5.472   6.181  16.099  0.00  0.00    +0.000 A 
ATOM      9  C   UNL     1       5.239   4.829  15.843  0.00  0.00    +0.000 A 
ATOM     10  C   UNL     1       4.169   4.199  16.495  0.00  0.00    +0.000 A 
ATOM     11  C   UNL     1       3.350   4.886  17.416  0.00  0.00    +0.000 A 
ATOM     12  C   UNL     1       2.180   4.152  18.017  0.00  0.00    +0.000 C 
BRANCH   9  13
ATOM     13  C   UNL     1       6.081   4.061  14.848  0.00  0.00    +0.000 C 
BRANCH  13  14
ATOM     14  C   UNL     1       5.356   3.787  13.529  0.00  0.00    +0.000 C 
BRANCH  14  15
ATOM     15  C   UNL     1       6.333   3.430  12.435  0.00  0.00    +0.000 C 
ATOM     16  O   UNL     1       7.226   4.152  12.021  0.00  0.00    +0.000 OA
BRANCH  15  17
ATOM     17  O   UNL     1       6.122   2.188  11.939  0.00  0.00    +0.000 OA
ATOM     18  H   UNL     1       6.567   2.020  11.087  0.00  0.00    +0.000 HD
ENDBRANCH  15  17
ENDBRANCH  14  15
ENDBRANCH  13  14
ENDBRANCH   9  13
ENDBRANCH   3   6
BRANCH   1  22
ATOM     19  C   UNL     1      -1.087  11.963  19.480  0.00  0.00    +0.000 A 
ATOM     20  C   UNL     1      -0.050  11.856  20.428  0.00  0.00    +0.000 A 
ATOM     21  C   UNL     1       0.866  10.785  20.404  0.00  0.00    +0.000 A 
ATOM     22  C   UNL     1       0.755   9.791  19.432  0.00  0.00    +0.000 A 
ATOM     23  C   UNL     1      -0.263   9.918  18.479  0.00  0.00    +0.000 A 
ATOM     24  C   UNL     1      -1.149  11.003  18.466  0.00  0.00    +0.000 A 
BRANCH  24  25
ATOM     25  C   UNL     1      -2.023  11.057  17.335  0.00  0.00    +0.000 C 
ATOM     26  N   UNL     1      -2.685  11.100  16.386  0.00  0.00    +0.000 NA
ENDBRANCH  24  25
BRANCH  19  27
ATOM     27  O   UNL     1      -1.903  13.058  19.644  0.00  0.00    +0.000 OA
BRANCH  27  28
ATOM     28  C   UNL     1      -2.307  13.434  20.975  0.00  0.00    +0.000 C 
ATOM     29  C   UNL     1      -2.630  14.927  21.056  0.00  0.00    +0.000 C 
BRANCH  28  31
ATOM     30  C   UNL     1      -4.729  12.782  20.462  0.00  0.00    +0.000 C 
ATOM     31  C   UNL     1      -3.545  12.628  21.407  0.00  0.00    +0.000 C 
ENDBRANCH  28  31
ENDBRANCH  27  28
ENDBRANCH  19  27
ENDBRANCH   1  22
TORSDOF 10
ENDMDL
MODEL 3
REMARK VINA RESULT:      -7.7      1.071      1.284
REMARK  Name = 
REMARK  13 active torsions:
REMARK  status: ('A' for Active; 'I' for Inactive)
REMARK    1  A    between atoms: C_1  and  C_2
REMARK    2  A    between atoms: C_2  and  C_3
REMARK    3  A    between atoms: C_3  and  C_4
REMARK    4  A    between atoms: C_3  and  O_5
REMARK    5  A    between atoms: O_5  and  C_6
REMARK    6  A    between atoms: C_9  and  C_10
REMARK    7  A    between atoms: C_12  and  C_13
REMARK    8  A    between atoms: C_16  and  C_17
REMARK    9  A    between atoms: C_17  and  C_18
REMARK   10  A    between atoms: C_18  and  C_19
REMARK   11  A    between atoms: C_19  and  O_21
REMARK   12  A    between atoms: C_23  and  C_24
REMARK   13  A    between atoms: C_28  and  C_29
REMARK                            x       y       z     vdW  Elec       q    Type
REMARK                         _______ _______ _______ _____ _____    ______ ____
ROOT
ATOM      1  C   UNL     1       1.409   7.738  20.637  0.00  0.00    +0.000 A 
ATOM      2  N   UNL     1       2.213   7.523  19.622  0.00  0.00    +0.000 NA
ATOM      3  C   UNL     1       2.376   6.160  19.636  0.00  0.00    +0.000 A 
ATOM      4  N   UNL     1       1.751   5.556  20.663  0.00  0.00    +0.000 NA
ATOM      5  O   UNL     1       1.099   6.606  21.325  0.00  0.00    +0.000 OA
ENDROOT
BRANCH   3   6
ATOM      6  C   UNL     1       3.169   5.494  18.602  0.00  0.00    +0.000 A 
ATOM      7  C   UNL     1       4.339   6.134  18.146  0.00  0.00    +0.000 A 
ATOM      8  C   UNL     1       5.145   5.564  17.154  0.00  0.00    +0.000 A 
ATOM      9  C   UNL     1       4.803   4.334  16.589  0.00  0.00    +0.000 A 
ATOM     10  C   UNL     1       3.621   3.709  17.012  0.00  0.00    +0.000 A 
ATOM     11  C   UNL     1       2.794   4.274  18.005  0.00  0.00    +0.000 A 
ATOM     12  C   UNL     1       1.507   3.571  18.348  0.00  0.00    +0.000 C 
BRANCH   9  13
ATOM     13  C   UNL     1       5.652   3.704  15.507  0.00  0.00    +0.000 C 
BRANCH  13  14
ATOM     14  C   UNL     1       5.747   4.557  14.241  0.00  0.00    +0.000 C 
BRANCH  14  15
ATOM     15  C   UNL     1       7.152   5.069  14.035  0.00  0.00    +0.000 C 
ATOM     16  O   UNL     1       7.682   5.265  12.953  0.00  0.00    +0.000 OA
BRANCH  15  17
ATOM     17  O   UNL     1       7.793   5.306  15.204  0.00  0.00    +0.000 OA
ATOM     18  H   UNL     1       7.260   5.107  15.996  0.00  0.00    +0.000 HD
ENDBRANCH  15  17
ENDBRANCH  14  15
ENDBRANCH  13  14
ENDBRANCH   9  13
ENDBRANCH   3   6
BRANCH   1  22
ATOM     19  C   UNL     1      -0.345  11.561  21.543  0.00  0.00    +0.000 A 
ATOM     20  C   UNL     1      -0.328  10.551  22.525  0.00  0.00    +0.000 A 
ATOM     21  C   UNL     1       0.246   9.287  22.278  0.00  0.00    +0.000 A 
ATOM     22  C   UNL     1       0.809   9.007  21.033  0.00  0.00    +0.000 A 
ATOM     23  C   UNL     1       0.811  10.025  20.070  0.00  0.00    +0.000 A 
ATOM     24  C   UNL     1       0.285  11.298  20.323  0.00  0.00    +0.000 A 
BRANCH  24  25
ATOM     25  C   UNL     1       0.510  12.261  19.289  0.00  0.00    +0.000 C 
ATOM     26  N   UNL     1       0.731  13.063  18.485  0.00  0.00    +0.000 NA
ENDBRANCH  24  25
BRANCH  19  27
ATOM     27  O   UNL     1      -0.950  12.732  21.935  0.00  0.00    +0.000 OA
BRANCH  27  28
ATOM     28  C   UNL     1      -1.650  12.768  23.194  0.00  0.00    +0.000 C 
ATOM     29  C   UNL     1      -1.492  14.128  23.877  0.00  0.00    +0.000 C 
BRANCH  28  31
ATOM     30  C   UNL     1      -4.004  12.802  24.200  0.00  0.00    +0.000 C 
ATOM     31  C   UNL     1      -3.147  12.482  22.983  0.00  0.00    +0.000 C 
ENDBRANCH  28  31
ENDBRANCH  27  28
ENDBRANCH  19  27
ENDBRANCH   1  22
TORSDOF 10
ENDMDL
MODEL 4
REMARK VINA RESULT:      -7.6      1.658      2.496
REMARK  Name = 
REMARK  13 active torsions:
REMARK  status: ('A' for Active; 'I' for Inactive)
REMARK    1  A    between atoms: C_1  and  C_2
REMARK    2  A    between atoms: C_2  and  C_3
REMARK    3  A    between atoms: C_3  and  C_4
REMARK    4  A    between atoms: C_3  and  O_5
REMARK    5  A    between atoms: O_5  and  C_6
REMARK    6  A    between atoms: C_9  and  C_10
REMARK    7  A    between atoms: C_12  and  C_13
REMARK    8  A    between atoms: C_16  and  C_17
REMARK    9  A    between atoms: C_17  and  C_18
REMARK   10  A    between atoms: C_18  and  C_19
REMARK   11  A    between atoms: C_19  and  O_21
REMARK   12  A    between atoms: C_23  and  C_24
REMARK   13  A    between atoms: C_28  and  C_29
REMARK                            x       y       z     vdW  Elec       q    Type
REMARK                         _______ _______ _______ _____ _____    ______ ____
ROOT
ATOM      1  C   UNL     1       1.599   8.388  19.308  0.00  0.00    +0.000 A 
ATOM      2  N   UNL     1       2.254   7.958  18.254  0.00  0.00    +0.000 NA
ATOM      3  C   UNL     1       2.835   6.797  18.701  0.00  0.00    +0.000 A 
ATOM      4  N   UNL     1       2.605   6.549  20.004  0.00  0.00    +0.000 NA
ATOM      5  O   UNL     1       1.775   7.604  20.406  0.00  0.00    +0.000 OA
ENDROOT
BRANCH   3   6
ATOM      6  C   UNL     1       3.618   5.958  17.792  0.00  0.00    +0.000 A 
ATOM      7  C   UNL     1       4.703   6.547  17.113  0.00  0.00    +0.000 A 
ATOM      8  C   UNL     1       5.492   5.812  16.221  0.00  0.00    +0.000 A 
ATOM      9  C   UNL     1       5.219   4.464  15.984  0.00  0.00    +0.000 A 
ATOM     10  C   UNL     1       4.119   3.881  16.630  0.00  0.00    +0.000 A 
ATOM     11  C   UNL     1       3.308   4.610  17.524  0.00  0.00    +0.000 A 
ATOM     12  C   UNL     1       2.106   3.925  18.118  0.00  0.00    +0.000 C 
BRANCH   9  13
ATOM     13  C   UNL     1       6.051   3.652  15.016  0.00  0.00    +0.000 C 
BRANCH  13  14
ATOM     14  C   UNL     1       6.250   4.341  13.666  0.00  0.00    +0.000 C 
BRANCH  14  15
ATOM     15  C   UNL     1       5.768   3.469  12.533  0.00  0.00    +0.000 C 
ATOM     16  O   UNL     1       4.638   3.472  12.069  0.00  0.00    +0.000 OA
BRANCH  15  17
ATOM     17  O   UNL     1       6.739   2.655  12.056  0.00  0.00    +0.000 OA
ATOM     18  H   UNL     1       7.290   2.245  12.750  0.00  0.00    +0.000 HD
ENDBRANCH  15  17
ENDBRANCH  14  15
ENDBRANCH  13  14
ENDBRANCH   9  13
ENDBRANCH   3   6
BRANCH   1  22
ATOM     19  C   UNL     1      -0.990  11.790  19.791  0.00  0.00    +0.000 A 
ATOM     20  C   UNL     1      -0.652  11.349  18.496  0.00  0.00    +0.000 A 
ATOM     21  C   UNL     1       0.182  10.232  18.289  0.00  0.00    +0.000 A 
ATOM     22  C   UNL     1       0.706   9.538  19.380  0.00  0.00    +0.000 A 
ATOM     23  C   UNL     1       0.345   9.968  20.664  0.00  0.00    +0.000 A 
ATOM     24  C   UNL     1      -0.521  11.048  20.879  0.00  0.00    +0.000 A 
BRANCH  24  25
ATOM     25  C   UNL     1      -0.906  11.251  22.241  0.00  0.00    +0.000 C 
ATOM     26  N   UNL     1      -1.165  11.409  23.358  0.00  0.00    +0.000 NA
ENDBRANCH  24  25
BRANCH  19  27
ATOM     27  O   UNL     1      -1.803  12.898  19.825  0.00  0.00    +0.000 OA
BRANCH  27  28
ATOM     28  C   UNL     1      -1.205  14.197  20.007  0.00  0.00    +0.000 C 
ATOM     29  C   UNL     1      -1.580  14.795  21.364  0.00  0.00    +0.000 C 
BRANCH  28  31
ATOM     30  C   UNL     1       0.928  15.047  18.875  0.00  0.00    +0.000 C 
ATOM     31  C   UNL     1       0.327  14.100  19.905  0.00  0.00    +0.000 C 
ENDBRANCH  28  31
ENDBRANCH  27  28
ENDBRANCH  19  27
ENDBRANCH   1  22
TORSDOF 10
ENDMDL
MODEL 5
REMARK VINA RESULT:      -7.5      1.796      2.219
REMARK  Name = 
REMARK  13 active torsions:
REMARK  status: ('A' for Active; 'I' for Inactive)
REMARK    1  A    between atoms: C_1  and  C_2
REMARK    2  A    between atoms: C_2  and  C_3
REMARK    3  A    between atoms: C_3  and  C_4
REMARK    4  A    between atoms: C_3  and  O_5
REMARK    5  A    between atoms: O_5  and  C_6
REMARK    6  A    between atoms: C_9  and  C_10
REMARK    7  A    between atoms: C_12  and  C_13
REMARK    8  A    between atoms: C_16  and  C_17
REMARK    9  A    between atoms: C_17  and  C_18
REMARK   10  A    between atoms: C_18  and  C_19
REMARK   11  A    between atoms: C_19  and  O_21
REMARK   12  A    between atoms: C_23  and  C_24
REMARK   13  A    between atoms: C_28  and  C_29
REMARK                            x       y       z     vdW  Elec       q    Type
REMARK                         _______ _______ _______ _____ _____    ______ ____
ROOT
ATOM      1  C   UNL     1       1.456   8.321  19.944  0.00  0.00    +0.000 A 
ATOM      2  N   UNL     1       2.212   7.965  18.931  0.00  0.00    +0.000 NA
ATOM      3  C   UNL     1       2.554   6.672  19.237  0.00  0.00    +0.000 A 
ATOM      4  N   UNL     1       2.085   6.260  20.428  0.00  0.00    +0.000 NA
ATOM      5  O   UNL     1       1.346   7.355  20.896  0.00  0.00    +0.000 OA
ENDROOT
BRANCH   3   6
ATOM      6  C   UNL     1       3.358   5.875  18.308  0.00  0.00    +0.000 A 
ATOM      7  C   UNL     1       4.627   6.364  17.939  0.00  0.00    +0.000 A 
ATOM      8  C   UNL     1       5.450   5.664  17.050  0.00  0.00    +0.000 A 
ATOM      9  C   UNL     1       5.027   4.451  16.504  0.00  0.00    +0.000 A 
ATOM     10  C   UNL     1       3.750   3.977  16.839  0.00  0.00    +0.000 A 
ATOM     11  C   UNL     1       2.905   4.674  17.726  0.00  0.00    +0.000 A 
ATOM     12  C   UNL     1       1.523   4.129  17.975  0.00  0.00    +0.000 C 
BRANCH   9  13
ATOM     13  C   UNL     1       5.893   3.682  15.532  0.00  0.00    +0.000 C 
BRANCH  13  14
ATOM     14  C   UNL     1       5.795   4.199  14.096  0.00  0.00    +0.000 C 
BRANCH  14  15
ATOM     15  C   UNL     1       7.098   4.815  13.648  0.00  0.00    +0.000 C 
ATOM     16  O   UNL     1       7.841   5.484  14.348  0.00  0.00    +0.000 OA
BRANCH  15  17
ATOM     17  O   UNL     1       7.379   4.544  12.351  0.00  0.00    +0.000 OA
ATOM     18  H   UNL     1       7.844   5.266  11.887  0.00  0.00    +0.000 HD
ENDBRANCH  15  17
ENDBRANCH  14  15
ENDBRANCH  13  14
ENDBRANCH   9  13
ENDBRANCH   3   6
BRANCH   1  22
ATOM     19  C   UNL     1      -0.875  11.929  20.196  0.00  0.00    +0.000 A 
ATOM     20  C   UNL     1       0.080  11.644  21.192  0.00  0.00    +0.000 A 
ATOM     21  C   UNL     1       0.875  10.481  21.145  0.00  0.00    +0.000 A 
ATOM     22  C   UNL     1       0.721   9.571  20.099  0.00  0.00    +0.000 A 
ATOM     23  C   UNL     1      -0.213   9.873  19.099  0.00  0.00    +0.000 A 
ATOM     24  C   UNL     1      -0.974  11.049  19.113  0.00  0.00    +0.000 A 
BRANCH  24  25
ATOM     25  C   UNL     1      -1.760  11.275  17.940  0.00  0.00    +0.000 C 
ATOM     26  N   UNL     1      -2.435  11.423  17.011  0.00  0.00    +0.000 NA
ENDBRANCH  24  25
BRANCH  19  27
ATOM     27  O   UNL     1      -1.576  13.095  20.391  0.00  0.00    +0.000 OA
BRANCH  27  28
ATOM     28  C   UNL     1      -0.880  14.353  20.292  0.00  0.00    +0.000 C 
ATOM     29  C   UNL     1      -0.242  14.528  18.913  0.00  0.00    +0.000 C 
BRANCH  28  31
ATOM     30  C   UNL     1      -1.444  16.810  19.847  0.00  0.00    +0.000 C 
ATOM     31  C   UNL     1      -1.848  15.521  20.550  0.00  0.00    +0.000 C 
ENDBRANCH  28  31
ENDBRANCH  27  28
ENDBRANCH  19  27
ENDBRANCH   1  22
TORSDOF 10
ENDMDL
MODEL 6
REMARK VINA RESULT:      -7.5      2.424     11.019
REMARK  Name = 
REMARK  13 active torsions:
REMARK  status: ('A' for Active; 'I' for Inactive)
REMARK    1  A    between atoms: C_1  and  C_2
REMARK    2  A    between atoms: C_2  and  C_3
REMARK    3  A    between atoms: C_3  and  C_4
REMARK    4  A    between atoms: C_3  and  O_5
REMARK    5  A    between atoms: O_5  and  C_6
REMARK    6  A    between atoms: C_9  and  C_10
REMARK    7  A    between atoms: C_12  and  C_13
REMARK    8  A    between atoms: C_16  and  C_17
REMARK    9  A    between atoms: C_17  and  C_18
REMARK   10  A    between atoms: C_18  and  C_19
REMARK   11  A    between atoms: C_19  and  O_21
REMARK   12  A    between atoms: C_23  and  C_24
REMARK   13  A    between atoms: C_28  and  C_29
REMARK                            x       y       z     vdW  Elec       q    Type
REMARK                         _______ _______ _______ _____ _____    ______ ____
ROOT
ATOM      1  C   UNL     1       1.537   8.785  18.804  0.00  0.00    +0.000 A 
ATOM      2  N   UNL     1       1.139   9.195  19.987  0.00  0.00    +0.000 NA
ATOM      3  C   UNL     1       0.181  10.131  19.687  0.00  0.00    +0.000 A 
ATOM      4  N   UNL     1       0.036  10.346  18.367  0.00  0.00    +0.000 NA
ATOM      5  O   UNL     1       0.933   9.443  17.778  0.00  0.00    +0.000 OA
ENDROOT
BRANCH   3   6
ATOM      6  C   UNL     1      -0.571  10.795  20.753  0.00  0.00    +0.000 A 
ATOM      7  C   UNL     1      -1.351  11.918  20.416  0.00  0.00    +0.000 A 
ATOM      8  C   UNL     1      -2.090  12.611  21.382  0.00  0.00    +0.000 A 
ATOM      9  C   UNL     1      -2.071  12.197  22.714  0.00  0.00    +0.000 A 
ATOM     10  C   UNL     1      -1.268  11.101  23.063  0.00  0.00    +0.000 A 
ATOM     11  C   UNL     1      -0.510  10.398  22.104  0.00  0.00    +0.000 A 
ATOM     12  C   UNL     1       0.378   9.278  22.577  0.00  0.00    +0.000 C 
BRANCH   9  13
ATOM     13  C   UNL     1      -2.853  12.936  23.778  0.00  0.00    +0.000 C 
BRANCH  13  14
ATOM     14  C   UNL     1      -4.125  13.595  23.244  0.00  0.00    +0.000 C 
BRANCH  14  15
ATOM     15  C   UNL     1      -5.303  12.656  23.332  0.00  0.00    +0.000 C 
ATOM     16  O   UNL     1      -5.794  12.231  24.366  0.00  0.00    +0.000 OA
BRANCH  15  17
ATOM     17  O   UNL     1      -5.788  12.318  22.113  0.00  0.00    +0.000 OA
ATOM     18  H   UNL     1      -5.890  13.073  21.504  0.00  0.00    +0.000 HD
ENDBRANCH  15  17
ENDBRANCH  14  15
ENDBRANCH  13  14
ENDBRANCH   9  13
ENDBRANCH   3   6
BRANCH   1  22
ATOM     19  C   UNL     1       4.156   5.444  18.106  0.00  0.00    +0.000 A 
ATOM     20  C   UNL     1       4.322   6.628  17.361  0.00  0.00    +0.000 A 
ATOM     21  C   UNL     1       3.496   7.753  17.564  0.00  0.00    +0.000 A 
ATOM     22  C   UNL     1       2.476   7.709  18.514  0.00  0.00    +0.000 A 
ATOM     23  C   UNL     1       2.333   6.537  19.268  0.00  0.00    +0.000 A 
ATOM     24  C   UNL     1       3.179   5.432  19.106  0.00  0.00    +0.000 A 
BRANCH  24  25
ATOM     25  C   UNL     1       2.994   4.384  20.062  0.00  0.00    +0.000 C 
ATOM     26  N   UNL     1       2.821   3.573  20.870  0.00  0.00    +0.000 NA
ENDBRANCH  24  25
BRANCH  19  27
ATOM     27  O   UNL     1       5.032   4.436  17.783  0.00  0.00    +0.000 OA
BRANCH  27  28
ATOM     28  C   UNL     1       6.107   4.713  16.863  0.00  0.00    +0.000 C 
ATOM     29  C   UNL     1       7.469   4.582  17.546  0.00  0.00    +0.000 C 
BRANCH  28  31
ATOM     30  C   UNL     1       6.014   4.453  14.318  0.00  0.00    +0.000 C 
ATOM     31  C   UNL     1       6.050   3.747  15.667  0.00  0.00    +0.000 C 
ENDBRANCH  28  31
ENDBRANCH  27  28
ENDBRANCH  19  27
ENDBRANCH   1  22
TORSDOF 10
ENDMDL
MODEL 7
REMARK VINA RESULT:      -7.5      1.842      2.284
REMARK  Name = 
REMARK  13 active torsions:
REMARK  status: ('A' for Active; 'I' for Inactive)
REMARK    1  A    between atoms: C_1  and  C_2
REMARK    2  A    between atoms: C_2  and  C_3
REMARK    3  A    between atoms: C_3  and  C_4
REMARK    4  A    between atoms: C_3  and  O_5
REMARK    5  A    between atoms: O_5  and  C_6
REMARK    6  A    between atoms: C_9  and  C_10
REMARK    7  A    between atoms: C_12  and  C_13
REMARK    8  A    between atoms: C_16  and  C_17
REMARK    9  A    between atoms: C_17  and  C_18
REMARK   10  A    between atoms: C_18  and  C_19
REMARK   11  A    between atoms: C_19  and  O_21
REMARK   12  A    between atoms: C_23  and  C_24
REMARK   13  A    between atoms: C_28  and  C_29
REMARK                            x       y       z     vdW  Elec       q    Type
REMARK                         _______ _______ _______ _____ _____    ______ ____
ROOT
ATOM      1  C   UNL     1       1.046   8.950  20.140  0.00  0.00    +0.000 A 
ATOM      2  N   UNL     1       1.690   8.485  19.094  0.00  0.00    +0.000 NA
ATOM      3  C   UNL     1       2.139   7.260  19.523  0.00  0.00    +0.000 A 
ATOM      4  N   UNL     1       1.843   7.001  20.809  0.00  0.00    +0.000 NA
ATOM      5  O   UNL     1       1.108   8.122  21.218  0.00  0.00    +0.000 OA
ENDROOT
BRANCH   3   6
ATOM      6  C   UNL     1       2.865   6.373  18.612  0.00  0.00    +0.000 A 
ATOM      7  C   UNL     1       3.867   6.934  17.795  0.00  0.00    +0.000 A 
ATOM      8  C   UNL     1       4.597   6.152  16.894  0.00  0.00    +0.000 A 
ATOM      9  C   UNL     1       4.348   4.783  16.785  0.00  0.00    +0.000 A 
ATOM     10  C   UNL     1       3.328   4.225  17.569  0.00  0.00    +0.000 A 
ATOM     11  C   UNL     1       2.576   5.001  18.476  0.00  0.00    +0.000 A 
ATOM     12  C   UNL     1       1.453   4.335  19.226  0.00  0.00    +0.000 C 
BRANCH   9  13
ATOM     13  C   UNL     1       5.117   3.919  15.810  0.00  0.00    +0.000 C 
BRANCH  13  14
ATOM     14  C   UNL     1       5.771   4.718  14.682  0.00  0.00    +0.000 C 
BRANCH  14  15
ATOM     15  C   UNL     1       7.244   4.922  14.942  0.00  0.00    +0.000 C 
ATOM     16  O   UNL     1       7.834   4.599  15.961  0.00  0.00    +0.000 OA
BRANCH  15  17
ATOM     17  O   UNL     1       7.876   5.514  13.901  0.00  0.00    +0.000 OA
ATOM     18  H   UNL     1       8.838   5.619  14.028  0.00  0.00    +0.000 HD
ENDBRANCH  15  17
ENDBRANCH  14  15
ENDBRANCH  13  14
ENDBRANCH   9  13
ENDBRANCH   3   6
BRANCH   1  22
ATOM     19  C   UNL     1      -1.434  12.464  20.213  0.00  0.00    +0.000 A 
ATOM     20  C   UNL     1      -0.333  12.369  21.087  0.00  0.00    +0.000 A 
ATOM     21  C   UNL     1       0.514  11.242  21.090  0.00  0.00    +0.000 A 
ATOM     22  C   UNL     1       0.268  10.180  20.220  0.00  0.00    +0.000 A 
ATOM     23  C   UNL     1      -0.812  10.293  19.337  0.00  0.00    +0.000 A 
ATOM     24  C   UNL     1      -1.632  11.429  19.294  0.00  0.00    +0.000 A 
BRANCH  24  25
ATOM     25  C   UNL     1      -2.587  11.445  18.229  0.00  0.00    +0.000 C 
ATOM     26  N   UNL     1      -3.385  11.501  17.393  0.00  0.00    +0.000 NA
ENDBRANCH  24  25
BRANCH  19  27
ATOM     27  O   UNL     1      -2.168  13.619  20.339  0.00  0.00    +0.000 OA
BRANCH  27  28
ATOM     28  C   UNL     1      -2.900  13.851  21.559  0.00  0.00    +0.000 C 
ATOM     29  C   UNL     1      -3.538  15.241  21.567  0.00  0.00    +0.000 C 
BRANCH  28  31
ATOM     30  C   UNL     1      -5.299  13.351  22.299  0.00  0.00    +0.000 C 
ATOM     31  C   UNL     1      -4.001  12.791  21.732  0.00  0.00    +0.000 C 
ENDBRANCH  28  31
ENDBRANCH  27  28
ENDBRANCH  19  27
ENDBRANCH   1  22
TORSDOF 10
ENDMDL
MODEL 8
REMARK VINA RESULT:      -7.5      2.642     11.109
REMARK  Name = 
REMARK  13 active torsions:
REMARK  status: ('A' for Active; 'I' for Inactive)
REMARK    1  A    between atoms: C_1  and  C_2
REMARK    2  A    between atoms: C_2  and  C_3
REMARK    3  A    between atoms: C_3  and  C_4
REMARK    4  A    between atoms: C_3  and  O_5
REMARK    5  A    between atoms: O_5  and  C_6
REMARK    6  A    between atoms: C_9  and  C_10
REMARK    7  A    between atoms: C_12  and  C_13
REMARK    8  A    between atoms: C_16  and  C_17
REMARK    9  A    between atoms: C_17  and  C_18
REMARK   10  A    between atoms: C_18  and  C_19
REMARK   11  A    between atoms: C_19  and  O_21
REMARK   12  A    between atoms: C_23  and  C_24
REMARK   13  A    between atoms: C_28  and  C_29
REMARK                            x       y       z     vdW  Elec       q    Type
REMARK                         _______ _______ _______ _____ _____    ______ ____
ROOT
ATOM      1  C   UNL     1       1.209   9.231  19.212  0.00  0.00    +0.000 A 
ATOM      2  N   UNL     1       0.707   9.587  20.371  0.00  0.00    +0.000 NA
ATOM      3  C   UNL     1      -0.111  10.641  20.046  0.00  0.00    +0.000 A 
ATOM      4  N   UNL     1      -0.066  10.973  18.743  0.00  0.00    +0.000 NA
ATOM      5  O   UNL     1       0.806  10.028  18.185  0.00  0.00    +0.000 OA
ENDROOT
BRANCH   3   6
ATOM      6  C   UNL     1      -0.924  11.297  21.072  0.00  0.00    +0.000 A 
ATOM      7  C   UNL     1      -1.658  12.443  20.707  0.00  0.00    +0.000 A 
ATOM      8  C   UNL     1      -2.450  13.129  21.634  0.00  0.00    +0.000 A 
ATOM      9  C   UNL     1      -2.533  12.686  22.955  0.00  0.00    +0.000 A 
ATOM     10  C   UNL     1      -1.776  11.568  23.334  0.00  0.00    +0.000 A 
ATOM     11  C   UNL     1      -0.966  10.871  22.415  0.00  0.00    +0.000 A 
ATOM     12  C   UNL     1      -0.133   9.724  22.923  0.00  0.00    +0.000 C 
BRANCH   9  13
ATOM     13  C   UNL     1      -3.374  13.418  23.978  0.00  0.00    +0.000 C 
BRANCH  13  14
ATOM     14  C   UNL     1      -4.481  12.552  24.580  0.00  0.00    +0.000 C 
BRANCH  14  15
ATOM     15  C   UNL     1      -5.794  12.773  23.869  0.00  0.00    +0.000 C 
ATOM     16  O   UNL     1      -6.073  12.359  22.756  0.00  0.00    +0.000 OA
BRANCH  15  17
ATOM     17  O   UNL     1      -6.667  13.497  24.609  0.00  0.00    +0.000 OA
ATOM     18  H   UNL     1      -6.591  13.349  25.570  0.00  0.00    +0.000 HD
ENDBRANCH  15  17
ENDBRANCH  14  15
ENDBRANCH  13  14
ENDBRANCH   9  13
ENDBRANCH   3   6
BRANCH   1  22
ATOM     19  C   UNL     1       3.593   5.706  18.580  0.00  0.00    +0.000 A 
ATOM     20  C   UNL     1       3.783   6.833  17.756  0.00  0.00    +0.000 A 
ATOM     21  C   UNL     1       3.034   8.014  17.933  0.00  0.00    +0.000 A 
ATOM     22  C   UNL     1       2.069   8.086  18.938  0.00  0.00    +0.000 A 
ATOM     23  C   UNL     1       1.904   6.970  19.769  0.00  0.00    +0.000 A 
ATOM     24  C   UNL     1       2.676   5.810  19.630  0.00  0.00    +0.000 A 
BRANCH  24  25
ATOM     25  C   UNL     1       2.488   4.832  20.657  0.00  0.00    +0.000 C 
ATOM     26  N   UNL     1       2.338   4.081  21.526  0.00  0.00    +0.000 NA
ENDBRANCH  24  25
BRANCH  19  27
ATOM     27  O   UNL     1       4.392   4.630  18.273  0.00  0.00    +0.000 OA
BRANCH  27  28
ATOM     28  C   UNL     1       4.079   3.838  17.111  0.00  0.00    +0.000 C 
ATOM     29  C   UNL     1       5.272   3.758  16.156  0.00  0.00    +0.000 C 
BRANCH  28  31
ATOM     30  C   UNL     1       2.210   2.294  17.933  0.00  0.00    +0.000 C 
ATOM     31  C   UNL     1       3.673   2.413  17.529  0.00  0.00    +0.000 C 
ENDBRANCH  28  31
ENDBRANCH  27  28
ENDBRANCH  19  27
ENDBRANCH   1  22
TORSDOF 10
ENDMDL
MODEL 9
REMARK VINA RESULT:      -7.5      1.991      2.593
REMARK  Name = 
REMARK  13 active torsions:
REMARK  status: ('A' for Active; 'I' for Inactive)
REMARK    1  A    between atoms: C_1  and  C_2
REMARK    2  A    between atoms: C_2  and  C_3
REMARK    3  A    between atoms: C_3  and  C_4
REMARK    4  A    between atoms: C_3  and  O_5
REMARK    5  A    between atoms: O_5  and  C_6
REMARK    6  A    between atoms: C_9  and  C_10
REMARK    7  A    between atoms: C_12  and  C_13
REMARK    8  A    between atoms: C_16  and  C_17
REMARK    9  A    between atoms: C_17  and  C_18
REMARK   10  A    between atoms: C_18  and  C_19
REMARK   11  A    between atoms: C_19  and  O_21
REMARK   12  A    between atoms: C_23  and  C_24
REMARK   13  A    between atoms: C_28  and  C_29
REMARK                            x       y       z     vdW  Elec       q    Type
REMARK                         _______ _______ _______ _____ _____    ______ ____
ROOT
ATOM      1  C   UNL     1       2.459   7.382  18.957  0.00  0.00    +0.000 A 
ATOM      2  N   UNL     1       3.190   7.235  17.876  0.00  0.00    +0.000 NA
ATOM      3  C   UNL     1       3.645   5.945  17.979  0.00  0.00    +0.000 A 
ATOM      4  N   UNL     1       3.269   5.333  19.117  0.00  0.00    +0.000 NA
ATOM      5  O   UNL     1       2.471   6.286  19.764  0.00  0.00    +0.000 OA
ENDROOT
BRANCH   3   6
ATOM      6  C   UNL     1       4.462   5.356  16.916  0.00  0.00    +0.000 A 
ATOM      7  C   UNL     1       5.130   6.225  16.031  0.00  0.00    +0.000 A 
ATOM      8  C   UNL     1       5.920   5.738  14.985  0.00  0.00    +0.000 A 
ATOM      9  C   UNL     1       6.068   4.363  14.795  0.00  0.00    +0.000 A 
ATOM     10  C   UNL     1       5.377   3.491  15.650  0.00  0.00    +0.000 A 
ATOM     11  C   UNL     1       4.569   3.967  16.703  0.00  0.00    +0.000 A 
ATOM     12  C   UNL     1       3.807   2.963  17.528  0.00  0.00    +0.000 C 
BRANCH   9  13
ATOM     13  C   UNL     1       6.909   3.812  13.665  0.00  0.00    +0.000 C 
BRANCH  13  14
ATOM     14  C   UNL     1       6.333   4.114  12.281  0.00  0.00    +0.000 C 
BRANCH  14  15
ATOM     15  C   UNL     1       5.348   3.052  11.856  0.00  0.00    +0.000 C 
ATOM     16  O   UNL     1       4.166   3.239  11.616  0.00  0.00    +0.000 OA
BRANCH  15  17
ATOM     17  O   UNL     1       5.918   1.828  11.757  0.00  0.00    +0.000 OA
ATOM     18  H   UNL     1       6.730   1.724  12.289  0.00  0.00    +0.000 HD
ENDBRANCH  15  17
ENDBRANCH  14  15
ENDBRANCH  13  14
ENDBRANCH   9  13
ENDBRANCH   3   6
BRANCH   1  22
ATOM     19  C   UNL     1       0.104  10.729  20.282  0.00  0.00    +0.000 A 
ATOM     20  C   UNL     1       0.333  10.539  18.905  0.00  0.00    +0.000 A 
ATOM     21  C   UNL     1       1.088   9.449  18.423  0.00  0.00    +0.000 A 
ATOM     22  C   UNL     1       1.639   8.532  19.317  0.00  0.00    +0.000 A 
ATOM     23  C   UNL     1       1.387   8.714  20.683  0.00  0.00    +0.000 A 
ATOM     24  C   UNL     1       0.599   9.767  21.167  0.00  0.00    +0.000 A 
BRANCH  24  25
ATOM     25  C   UNL     1       0.313   9.714  22.568  0.00  0.00    +0.000 C 
ATOM     26  N   UNL     1       0.080   9.726  23.701  0.00  0.00    +0.000 NA
ENDBRANCH  24  25
BRANCH  19  27
ATOM     27  O   UNL     1      -0.641  11.843  20.590  0.00  0.00    +0.000 OA
BRANCH  27  28
ATOM     28  C   UNL     1      -1.361  12.515  19.538  0.00  0.00    +0.000 C 
ATOM     29  C   UNL     1      -2.867  12.508  19.805  0.00  0.00    +0.000 C 
BRANCH  28  31
ATOM     30  C   UNL     1      -1.381  14.879  20.521  0.00  0.00    +0.000 C 
ATOM     31  C   UNL     1      -0.880  13.971  19.406  0.00  0.00    +0.000 C 
ENDBRANCH  28  31
ENDBRANCH  27  28
ENDBRANCH  19  27
ENDBRANCH   1  22
TORSDOF 10
ENDMDL
