MODEL 1
REMARK VINA RESULT:      -9.8      0.000      0.000
REMARK  Name = 
REMARK  7 active torsions:
REMARK  status: ('A' for Active; 'I' for Inactive)
REMARK    1  A    between atoms: O_1  and  C_2
REMARK    2  A    between atoms: N_10  and  C_11
REMARK    3  A    between atoms: N_14  and  C_15
REMARK    4  A    between atoms: C_15  and  C_16
REMARK    5  A    between atoms: C_15  and  C_28
REMARK    6  A    between atoms: N_20  and  C_21
REMARK    7  A    between atoms: C_21  and  C_22
REMARK                            x       y       z     vdW  Elec       q    Type
REMARK                         _______ _______ _______ _____ _____    ______ ____
ROOT
ATOM      1  C   UNL     1       1.955   8.055  18.842  0.00  0.00    +0.000 C 
ATOM      2  C   UNL     1       3.216   8.119  17.990  0.00  0.00    +0.000 C 
ATOM      3  C   UNL     1       3.665   6.672  17.685  0.00  0.00    +0.000 C 
ATOM      4  N   UNL     1       3.884   5.836  18.909  0.00  0.00    +0.000 NA
ATOM      5  C   UNL     1       2.668   5.830  19.734  0.00  0.00    +0.000 C 
ATOM      6  C   UNL     1       2.264   7.254  20.112  0.00  0.00    +0.000 C 
ENDROOT
BRANCH   1  15
ATOM      7  C   UNL     1       1.361  10.522  18.633  0.00  0.00    +0.000 A 
ATOM      8  N   UNL     1       0.851  11.463  19.378  0.00  0.00    +0.000 NA
ATOM      9  C   UNL     1       0.375  10.802  20.490  0.00  0.00    +0.000 A 
ATOM     10  C   UNL     1      -0.186  11.310  21.672  0.00  0.00    +0.000 A 
ATOM     11  C   UNL     1      -0.557  10.415  22.686  0.00  0.00    +0.000 A 
ATOM     12  C   UNL     1      -0.409   9.038  22.515  0.00  0.00    +0.000 A 
ATOM     13  C   UNL     1       0.138   8.513  21.343  0.00  0.00    +0.000 A 
ATOM     14  C   UNL     1       0.548   9.426  20.360  0.00  0.00    +0.000 A 
ATOM     15  N   UNL     1       1.246   9.281  19.170  0.00  0.00    +0.000 N 
BRANCH   7  16
ATOM     16  O   UNL     1       1.984  10.813  17.501  0.00  0.00    +0.000 OA
ATOM     17  H   UNL     1       1.955  11.790  17.526  0.00  0.00    +0.000 HD
ENDBRANCH   7  16
ENDBRANCH   1  15
BRANCH   4  18
ATOM     18  C   UNL     1       4.305   4.459  18.509  0.00  0.00    +0.000 C 
BRANCH  18  19
ATOM     19  C   UNL     1       5.743   4.465  18.047  0.00  0.00    +0.000 A 
ATOM     20  N   UNL     1       6.777   4.762  18.816  0.00  0.00    +0.000 NA
ATOM     21  N   UNL     1       7.897   4.581  18.057  0.00  0.00    +0.000 NA
ATOM     22  N   UNL     1       7.583   4.166  16.842  0.00  0.00    +0.000 NA
ATOM     23  N   UNL     1       6.231   4.133  16.800  0.00  0.00    +0.000 N 
BRANCH  23  24
ATOM     24  C   UNL     1       5.584   3.657  15.587  0.00  0.00    +0.000 C 
BRANCH  24  25
ATOM     25  C   UNL     1       6.303   4.074  14.317  0.00  0.00    +0.000 A 
ATOM     26  C   UNL     1       7.266   5.095  14.322  0.00  0.00    +0.000 A 
ATOM     27  C   UNL     1       7.886   5.504  13.138  0.00  0.00    +0.000 A 
ATOM     28  C   UNL     1       7.583   4.872  11.938  0.00  0.00    +0.000 A 
ATOM     29  C   UNL     1       6.690   3.803  11.927  0.00  0.00    +0.000 A 
ATOM     30  C   UNL     1       6.058   3.400  13.108  0.00  0.00    +0.000 A 
ENDBRANCH  24  25
ENDBRANCH  23  24
ENDBRANCH  18  19
BRANCH  18  31
ATOM     31  C   UNL     1       4.114   3.341  19.532  0.00  0.00    +0.000 C 
ATOM     32  C   UNL     1       2.817   2.662  19.946  0.00  0.00    +0.000 C 
ATOM     33  C   UNL     1       3.728   1.974  18.982  0.00  0.00    +0.000 C 
ENDBRANCH  18  31
ENDBRANCH   4  18
TORSDOF 7
ENDMDL
MODEL 2
REMARK VINA RESULT:      -9.7      1.772      2.219
REMARK  Name = 
REMARK  7 active torsions:
REMARK  status: ('A' for Active; 'I' for Inactive)
REMARK    1  A    between atoms: O_1  and  C_2
REMARK    2  A    between atoms: N_10  and  C_11
REMARK    3  A    between atoms: N_14  and  C_15
REMARK    4  A    between atoms: C_15  and  C_16
REMARK    5  A    between atoms: C_15  and  C_28
REMARK    6  A    between atoms: N_20  and  C_21
REMARK    7  A    between atoms: C_21  and  C_22
REMARK                            x       y       z     vdW  Elec       q    Type
REMARK                         _______ _______ _______ _____ _____    ______ ____
ROOT
ATOM      1  C   UNL     1       1.451   8.615  19.246  0.00  0.00    +0.000 C 
ATOM      2  C   UNL     1       2.518   8.883  18.192  0.00  0.00    +0.000 C 
ATOM      3  C   UNL     1       2.950   7.527  17.589  0.00  0.00    +0.000 C 
ATOM      4  N   UNL     1       3.435   6.541  18.607  0.00  0.00    +0.000 NA
ATOM      5  C   UNL     1       2.405   6.336  19.635  0.00  0.00    +0.000 C 
ATOM      6  C   UNL     1       2.031   7.662  20.296  0.00  0.00    +0.000 C 
ENDROOT
BRANCH   1  15
ATOM      7  C   UNL     1       0.765  10.111  21.189  0.00  0.00    +0.000 A 
ATOM      8  N   UNL     1      -0.207  10.927  21.488  0.00  0.00    +0.000 NA
ATOM      9  C   UNL     1      -0.895  11.092  20.305  0.00  0.00    +0.000 A 
ATOM     10  C   UNL     1      -2.090  11.781  20.042  0.00  0.00    +0.000 A 
ATOM     11  C   UNL     1      -2.611  11.762  18.741  0.00  0.00    +0.000 A 
ATOM     12  C   UNL     1      -1.940  11.102  17.709  0.00  0.00    +0.000 A 
ATOM     13  C   UNL     1      -0.747  10.420  17.949  0.00  0.00    +0.000 A 
ATOM     14  C   UNL     1      -0.266  10.409  19.267  0.00  0.00    +0.000 A 
ATOM     15  N   UNL     1       0.776   9.732  19.885  0.00  0.00    +0.000 N 
BRANCH   7  16
ATOM     16  O   UNL     1       1.594   9.669  22.123  0.00  0.00    +0.000 OA
ATOM     17  H   UNL     1       0.959   9.299  22.767  0.00  0.00    +0.000 HD
ENDBRANCH   7  16
ENDBRANCH   1  15
BRANCH   4  18
ATOM     18  C   UNL     1       3.819   5.265  17.928  0.00  0.00    +0.000 C 
BRANCH  18  19
ATOM     19  C   UNL     1       5.318   5.084  17.964  0.00  0.00    +0.000 A 
ATOM     20  N   UNL     1       5.973   4.445  18.918  0.00  0.00    +0.000 NA
ATOM     21  N   UNL     1       7.288   4.433  18.553  0.00  0.00    +0.000 NA
ATOM     22  N   UNL     1       7.461   5.037  17.390  0.00  0.00    +0.000 NA
ATOM     23  N   UNL     1       6.242   5.496  17.026  0.00  0.00    +0.000 N 
BRANCH  23  24
ATOM     24  C   UNL     1       6.105   6.170  15.744  0.00  0.00    +0.000 C 
BRANCH  24  25
ATOM     25  C   UNL     1       6.240   5.235  14.555  0.00  0.00    +0.000 A 
ATOM     26  C   UNL     1       7.372   5.265  13.724  0.00  0.00    +0.000 A 
ATOM     27  C   UNL     1       7.463   4.435  12.604  0.00  0.00    +0.000 A 
ATOM     28  C   UNL     1       6.446   3.532  12.321  0.00  0.00    +0.000 A 
ATOM     29  C   UNL     1       5.353   3.431  13.179  0.00  0.00    +0.000 A 
ATOM     30  C   UNL     1       5.252   4.271  14.293  0.00  0.00    +0.000 A 
ENDBRANCH  24  25
ENDBRANCH  23  24
ENDBRANCH  18  19
BRANCH  18  31
ATOM     31  C   UNL     1       3.149   3.982  18.414  0.00  0.00    +0.000 C 
ATOM     32  C   UNL     1       1.680   3.598  18.318  0.00  0.00    +0.000 C 
ATOM     33  C   UNL     1       2.651   3.024  17.338  0.00  0.00    +0.000 C 
ENDBRANCH  18  31
ENDBRANCH   4  18
TORSDOF 7
ENDMDL
MODEL 3
REMARK VINA RESULT:      -9.7      2.803      8.967
REMARK  Name = 
REMARK  7 active torsions:
REMARK  status: ('A' for Active; 'I' for Inactive)
REMARK    1  A    between atoms: O_1  and  C_2
REMARK    2  A    between atoms: N_10  and  C_11
REMARK    3  A    between atoms: N_14  and  C_15
REMARK    4  A    between atoms: C_15  and  C_16
REMARK    5  A    between atoms: C_15  and  C_28
REMARK    6  A    between atoms: N_20  and  C_21
REMARK    7  A    between atoms: C_21  and  C_22
REMARK                            x       y       z     vdW  Elec       q    Type
REMARK                         _______ _______ _______ _____ _____    ______ ____
ROOT
ATOM      1  C   UNL     1       2.775   7.165  18.428  0.00  0.00    +0.000 C 
ATOM      2  C   UNL     1       1.920   8.181  17.681  0.00  0.00    +0.000 C 
ATOM      3  C   UNL     1       1.672   9.384  18.619  0.00  0.00    +0.000 C 
ATOM      4  N   UNL     1       1.045   9.011  19.927  0.00  0.00    +0.000 NA
ATOM      5  C   UNL     1       1.866   7.997  20.605  0.00  0.00    +0.000 C 
ATOM      6  C   UNL     1       2.047   6.768  19.717  0.00  0.00    +0.000 C 
ENDROOT
BRANCH   1  15
ATOM      7  C   UNL     1       2.725   4.746  17.638  0.00  0.00    +0.000 A 
ATOM      8  N   UNL     1       3.574   3.834  17.250  0.00  0.00    +0.000 NA
ATOM      9  C   UNL     1       4.760   4.516  17.086  0.00  0.00    +0.000 A 
ATOM     10  C   UNL     1       6.043   4.037  16.778  0.00  0.00    +0.000 A 
ATOM     11  C   UNL     1       7.108   4.946  16.710  0.00  0.00    +0.000 A 
ATOM     12  C   UNL     1       6.899   6.312  16.908  0.00  0.00    +0.000 A 
ATOM     13  C   UNL     1       5.629   6.808  17.205  0.00  0.00    +0.000 A 
ATOM     14  C   UNL     1       4.585   5.878  17.318  0.00  0.00    +0.000 A 
ATOM     15  N   UNL     1       3.265   5.987  17.732  0.00  0.00    +0.000 N 
BRANCH   7  16
ATOM     16  O   UNL     1       1.482   4.423  17.964  0.00  0.00    +0.000 OA
ATOM     17  H   UNL     1       1.446   3.500  17.644  0.00  0.00    +0.000 HD
ENDBRANCH   7  16
ENDBRANCH   1  15
BRANCH   4  18
ATOM     18  C   UNL     1       0.855  10.237  20.762  0.00  0.00    +0.000 C 
BRANCH  18  19
ATOM     19  C   UNL     1       0.553  11.427  19.881  0.00  0.00    +0.000 A 
ATOM     20  N   UNL     1       1.453  12.303  19.471  0.00  0.00    +0.000 NA
ATOM     21  N   UNL     1       0.806  13.174  18.642  0.00  0.00    +0.000 NA
ATOM     22  N   UNL     1      -0.469  12.849  18.519  0.00  0.00    +0.000 NA
ATOM     23  N   UNL     1      -0.660  11.782  19.329  0.00  0.00    +0.000 N 
BRANCH  23  24
ATOM     24  C   UNL     1      -1.975  11.161  19.365  0.00  0.00    +0.000 C 
BRANCH  24  25
ATOM     25  C   UNL     1      -2.556  10.902  17.987  0.00  0.00    +0.000 A 
ATOM     26  C   UNL     1      -1.948  10.008  17.091  0.00  0.00    +0.000 A 
ATOM     27  C   UNL     1      -2.463   9.814  15.807  0.00  0.00    +0.000 A 
ATOM     28  C   UNL     1      -3.619  10.478  15.413  0.00  0.00    +0.000 A 
ATOM     29  C   UNL     1      -4.282  11.306  16.315  0.00  0.00    +0.000 A 
ATOM     30  C   UNL     1      -3.760  11.513  17.596  0.00  0.00    +0.000 A 
ENDBRANCH  24  25
ENDBRANCH  23  24
ENDBRANCH  18  19
BRANCH  18  31
ATOM     31  C   UNL     1      -0.180  10.169  21.883  0.00  0.00    +0.000 C 
ATOM     32  C   UNL     1      -0.786   8.931  22.525  0.00  0.00    +0.000 C 
ATOM     33  C   UNL     1       0.311   9.658  23.232  0.00  0.00    +0.000 C 
ENDBRANCH  18  31
ENDBRANCH   4  18
TORSDOF 7
ENDMDL
MODEL 4
REMARK VINA RESULT:      -9.6      2.061      2.638
REMARK  Name = 
REMARK  7 active torsions:
REMARK  status: ('A' for Active; 'I' for Inactive)
REMARK    1  A    between atoms: O_1  and  C_2
REMARK    2  A    between atoms: N_10  and  C_11
REMARK    3  A    between atoms: N_14  and  C_15
REMARK    4  A    between atoms: C_15  and  C_16
REMARK    5  A    between atoms: C_15  and  C_28
REMARK    6  A    between atoms: N_20  and  C_21
REMARK    7  A    between atoms: C_21  and  C_22
REMARK                            x       y       z     vdW  Elec       q    Type
REMARK                         _______ _______ _______ _____ _____    ______ ____
ROOT
ATOM      1  C   UNL     1       1.048   9.215  19.073  0.00  0.00    +0.000 C 
ATOM      2  C   UNL     1       2.142   9.428  18.035  0.00  0.00    +0.000 C 
ATOM      3  C   UNL     1       2.610   8.042  17.537  0.00  0.00    +0.000 C 
ATOM      4  N   UNL     1       3.078   7.133  18.632  0.00  0.00    +0.000 NA
ATOM      5  C   UNL     1       2.020   6.981  19.641  0.00  0.00    +0.000 C 
ATOM      6  C   UNL     1       1.609   8.342  20.201  0.00  0.00    +0.000 C 
ENDROOT
BRANCH   1  15
ATOM      7  C   UNL     1       0.459  10.965  20.825  0.00  0.00    +0.000 A 
ATOM      8  N   UNL     1      -0.553  11.728  21.132  0.00  0.00    +0.000 NA
ATOM      9  C   UNL     1      -1.408  11.614  20.058  0.00  0.00    +0.000 A 
ATOM     10  C   UNL     1      -2.700  12.131  19.871  0.00  0.00    +0.000 A 
ATOM     11  C   UNL     1      -3.386  11.831  18.686  0.00  0.00    +0.000 A 
ATOM     12  C   UNL     1      -2.788  11.061  17.687  0.00  0.00    +0.000 A 
ATOM     13  C   UNL     1      -1.501  10.546  17.850  0.00  0.00    +0.000 A 
ATOM     14  C   UNL     1      -0.849  10.817  19.062  0.00  0.00    +0.000 A 
ATOM     15  N   UNL     1       0.338  10.361  19.616  0.00  0.00    +0.000 N 
BRANCH   7  16
ATOM     16  O   UNL     1       1.453  10.776  21.681  0.00  0.00    +0.000 OA
ATOM     17  H   UNL     1       1.991  11.574  21.511  0.00  0.00    +0.000 HD
ENDBRANCH   7  16
ENDBRANCH   1  15
BRANCH   4  18
ATOM     18  C   UNL     1       3.499   5.821  18.051  0.00  0.00    +0.000 C 
BRANCH  18  19
ATOM     19  C   UNL     1       4.945   5.542  18.386  0.00  0.00    +0.000 A 
ATOM     20  N   UNL     1       5.354   4.897  19.466  0.00  0.00    +0.000 NA
ATOM     21  N   UNL     1       6.711   4.783  19.366  0.00  0.00    +0.000 NA
ATOM     22  N   UNL     1       7.150   5.329  18.245  0.00  0.00    +0.000 NA
ATOM     23  N   UNL     1       6.061   5.855  17.638  0.00  0.00    +0.000 N 
BRANCH  23  24
ATOM     24  C   UNL     1       6.226   6.486  16.338  0.00  0.00    +0.000 C 
BRANCH  24  25
ATOM     25  C   UNL     1       6.228   5.499  15.185  0.00  0.00    +0.000 A 
ATOM     26  C   UNL     1       5.114   4.690  14.911  0.00  0.00    +0.000 A 
ATOM     27  C   UNL     1       5.145   3.750  13.878  0.00  0.00    +0.000 A 
ATOM     28  C   UNL     1       6.273   3.632  13.076  0.00  0.00    +0.000 A 
ATOM     29  C   UNL     1       7.358   4.483  13.281  0.00  0.00    +0.000 A 
ATOM     30  C   UNL     1       7.335   5.415  14.323  0.00  0.00    +0.000 A 
ENDBRANCH  24  25
ENDBRANCH  23  24
ENDBRANCH  18  19
BRANCH  18  31
ATOM     31  C   UNL     1       2.659   4.596  18.403  0.00  0.00    +0.000 C 
ATOM     32  C   UNL     1       1.367   4.128  17.752  0.00  0.00    +0.000 C 
ATOM     33  C   UNL     1       2.652   3.460  17.387  0.00  0.00    +0.000 C 
ENDBRANCH  18  31
ENDBRANCH   4  18
TORSDOF 7
ENDMDL
MODEL 5
REMARK VINA RESULT:      -9.5      0.936      1.285
REMARK  Name = 
REMARK  7 active torsions:
REMARK  status: ('A' for Active; 'I' for Inactive)
REMARK    1  A    between atoms: O_1  and  C_2
REMARK    2  A    between atoms: N_10  and  C_11
REMARK    3  A    between atoms: N_14  and  C_15
REMARK    4  A    between atoms: C_15  and  C_16
REMARK    5  A    between atoms: C_15  and  C_28
REMARK    6  A    between atoms: N_20  and  C_21
REMARK    7  A    between atoms: C_21  and  C_22
REMARK                            x       y       z     vdW  Elec       q    Type
REMARK                         _______ _______ _______ _____ _____    ______ ____
ROOT
ATOM      1  C   UNL     1       1.474   8.760  18.881  0.00  0.00    +0.000 C 
ATOM      2  C   UNL     1       2.538   8.939  17.806  0.00  0.00    +0.000 C 
ATOM      3  C   UNL     1       2.948   7.539  17.297  0.00  0.00    +0.000 C 
ATOM      4  N   UNL     1       3.426   6.618  18.379  0.00  0.00    +0.000 NA
ATOM      5  C   UNL     1       2.398   6.500  19.424  0.00  0.00    +0.000 C 
ATOM      6  C   UNL     1       2.047   7.874  19.993  0.00  0.00    +0.000 C 
ENDROOT
BRANCH   1  15
ATOM      7  C   UNL     1       0.951  11.240  19.124  0.00  0.00    +0.000 A 
ATOM      8  N   UNL     1       0.501  12.051  20.041  0.00  0.00    +0.000 NA
ATOM      9  C   UNL     1       0.047  11.220  21.043  0.00  0.00    +0.000 A 
ATOM     10  C   UNL     1      -0.451  11.530  22.318  0.00  0.00    +0.000 A 
ATOM     11  C   UNL     1      -0.811  10.483  23.178  0.00  0.00    +0.000 A 
ATOM     12  C   UNL     1      -0.714   9.152  22.768  0.00  0.00    +0.000 A 
ATOM     13  C   UNL     1      -0.230   8.825  21.501  0.00  0.00    +0.000 A 
ATOM     14  C   UNL     1       0.171   9.883  20.672  0.00  0.00    +0.000 A 
ATOM     15  N   UNL     1       0.817   9.928  19.445  0.00  0.00    +0.000 N 
BRANCH   7  16
ATOM     16  O   UNL     1       1.539  11.707  18.032  0.00  0.00    +0.000 OA
ATOM     17  H   UNL     1       1.128  11.140  17.350  0.00  0.00    +0.000 HD
ENDBRANCH   7  16
ENDBRANCH   1  15
BRANCH   4  18
ATOM     18  C   UNL     1       3.788   5.294  17.788  0.00  0.00    +0.000 C 
BRANCH  18  19
ATOM     19  C   UNL     1       5.285   5.097  17.826  0.00  0.00    +0.000 A 
ATOM     20  N   UNL     1       6.087   5.609  18.744  0.00  0.00    +0.000 NA
ATOM     21  N   UNL     1       7.342   5.144  18.476  0.00  0.00    +0.000 NA
ATOM     22  N   UNL     1       7.335   4.346  17.422  0.00  0.00    +0.000 NA
ATOM     23  N   UNL     1       6.060   4.342  16.969  0.00  0.00    +0.000 N 
BRANCH  23  24
ATOM     24  C   UNL     1       5.728   3.498  15.831  0.00  0.00    +0.000 C 
BRANCH  24  25
ATOM     25  C   UNL     1       6.334   3.980  14.526  0.00  0.00    +0.000 A 
ATOM     26  C   UNL     1       5.967   3.415  13.294  0.00  0.00    +0.000 A 
ATOM     27  C   UNL     1       6.568   3.833  12.104  0.00  0.00    +0.000 A 
ATOM     28  C   UNL     1       7.514   4.850  12.121  0.00  0.00    +0.000 A 
ATOM     29  C   UNL     1       7.832   5.479  13.323  0.00  0.00    +0.000 A 
ATOM     30  C   UNL     1       7.243   5.053  14.518  0.00  0.00    +0.000 A 
ENDBRANCH  24  25
ENDBRANCH  23  24
ENDBRANCH  18  19
BRANCH  18  31
ATOM     31  C   UNL     1       3.107   4.057  18.369  0.00  0.00    +0.000 C 
ATOM     32  C   UNL     1       1.632   3.689  18.318  0.00  0.00    +0.000 C 
ATOM     33  C   UNL     1       2.581   3.036  17.367  0.00  0.00    +0.000 C 
ENDBRANCH  18  31
ENDBRANCH   4  18
TORSDOF 7
ENDMDL
MODEL 6
REMARK VINA RESULT:      -9.5      1.036      1.731
REMARK  Name = 
REMARK  7 active torsions:
REMARK  status: ('A' for Active; 'I' for Inactive)
REMARK    1  A    between atoms: O_1  and  C_2
REMARK    2  A    between atoms: N_10  and  C_11
REMARK    3  A    between atoms: N_14  and  C_15
REMARK    4  A    between atoms: C_15  and  C_16
REMARK    5  A    between atoms: C_15  and  C_28
REMARK    6  A    between atoms: N_20  and  C_21
REMARK    7  A    between atoms: C_21  and  C_22
REMARK                            x       y       z     vdW  Elec       q    Type
REMARK                         _______ _______ _______ _____ _____    ______ ____
ROOT
ATOM      1  C   UNL     1       2.063   8.073  19.311  0.00  0.00    +0.000 C 
ATOM      2  C   UNL     1       1.922   6.931  20.310  0.00  0.00    +0.000 C 
ATOM      3  C   UNL     1       2.994   5.868  19.980  0.00  0.00    +0.000 C 
ATOM      4  N   UNL     1       2.930   5.361  18.572  0.00  0.00    +0.000 NA
ATOM      5  C   UNL     1       3.023   6.487  17.631  0.00  0.00    +0.000 C 
ATOM      6  C   UNL     1       1.914   7.504  17.896  0.00  0.00    +0.000 C 
ENDROOT
BRANCH   1  15
ATOM      7  C   UNL     1       1.280  10.434  18.770  0.00  0.00    +0.000 A 
ATOM      8  N   UNL     1       0.689  11.424  19.381  0.00  0.00    +0.000 NA
ATOM      9  C   UNL     1       0.252  10.882  20.570  0.00  0.00    +0.000 A 
ATOM     10  C   UNL     1      -0.362  11.498  21.673  0.00  0.00    +0.000 A 
ATOM     11  C   UNL     1      -0.675  10.720  22.797  0.00  0.00    +0.000 A 
ATOM     12  C   UNL     1      -0.417   9.348  22.813  0.00  0.00    +0.000 A 
ATOM     13  C   UNL     1       0.184   8.716  21.724  0.00  0.00    +0.000 A 
ATOM     14  C   UNL     1       0.534   9.519  20.628  0.00  0.00    +0.000 A 
ATOM     15  N   UNL     1       1.256   9.271  19.469  0.00  0.00    +0.000 N 
BRANCH   7  16
ATOM     16  O   UNL     1       1.893  10.620  17.610  0.00  0.00    +0.000 OA
ATOM     17  H   UNL     1       2.800  10.333  17.838  0.00  0.00    +0.000 HD
ENDBRANCH   7  16
ENDBRANCH   1  15
BRANCH   4  18
ATOM     18  C   UNL     1       4.008   4.349  18.352  0.00  0.00    +0.000 C 
BRANCH  18  19
ATOM     19  C   UNL     1       5.350   4.921  18.744  0.00  0.00    +0.000 A 
ATOM     20  N   UNL     1       6.026   4.574  19.826  0.00  0.00    +0.000 NA
ATOM     21  N   UNL     1       7.211   5.250  19.784  0.00  0.00    +0.000 NA
ATOM     22  N   UNL     1       7.290   5.997  18.697  0.00  0.00    +0.000 NA
ATOM     23  N   UNL     1       6.110   5.842  18.053  0.00  0.00    +0.000 N 
BRANCH  23  24
ATOM     24  C   UNL     1       5.919   6.512  16.776  0.00  0.00    +0.000 C 
BRANCH  24  25
ATOM     25  C   UNL     1       6.089   5.591  15.582  0.00  0.00    +0.000 A 
ATOM     26  C   UNL     1       5.028   4.803  15.108  0.00  0.00    +0.000 A 
ATOM     27  C   UNL     1       5.209   3.921  14.038  0.00  0.00    +0.000 A 
ATOM     28  C   UNL     1       6.441   3.845  13.399  0.00  0.00    +0.000 A 
ATOM     29  C   UNL     1       7.482   4.678  13.804  0.00  0.00    +0.000 A 
ATOM     30  C   UNL     1       7.307   5.550  14.883  0.00  0.00    +0.000 A 
ENDBRANCH  24  25
ENDBRANCH  23  24
ENDBRANCH  18  19
BRANCH  18  31
ATOM     31  C   UNL     1       3.834   2.984  19.014  0.00  0.00    +0.000 C 
ATOM     32  C   UNL     1       2.550   2.191  19.201  0.00  0.00    +0.000 C 
ATOM     33  C   UNL     1       3.482   1.821  18.095  0.00  0.00    +0.000 C 
ENDBRANCH  18  31
ENDBRANCH   4  18
TORSDOF 7
ENDMDL
MODEL 7
REMARK VINA RESULT:      -9.5      2.061      2.612
REMARK  Name = 
REMARK  7 active torsions:
REMARK  status: ('A' for Active; 'I' for Inactive)
REMARK    1  A    between atoms: O_1  and  C_2
REMARK    2  A    between atoms: N_10  and  C_11
REMARK    3  A    between atoms: N_14  and  C_15
REMARK    4  A    between atoms: C_15  and  C_16
REMARK    5  A    between atoms: C_15  and  C_28
REMARK    6  A    between atoms: N_20  and  C_21
REMARK    7  A    between atoms: C_21  and  C_22
REMARK                            x       y       z     vdW  Elec       q    Type
REMARK                         _______ _______ _______ _____ _____    ______ ____
ROOT
ATOM      1  C   UNL     1       0.971   9.102  19.101  0.00  0.00    +0.000 C 
ATOM      2  C   UNL     1       2.070   9.125  18.046  0.00  0.00    +0.000 C 
ATOM      3  C   UNL     1       2.577   7.679  17.848  0.00  0.00    +0.000 C 
ATOM      4  N   UNL     1       3.056   7.028  19.109  0.00  0.00    +0.000 NA
ATOM      5  C   UNL     1       1.992   7.060  20.123  0.00  0.00    +0.000 C 
ATOM      6  C   UNL     1       1.542   8.495  20.387  0.00  0.00    +0.000 C 
ENDROOT
BRANCH   1  15
ATOM      7  C   UNL     1       0.312  11.151  20.459  0.00  0.00    +0.000 A 
ATOM      8  N   UNL     1      -0.722  11.937  20.591  0.00  0.00    +0.000 NA
ATOM      9  C   UNL     1      -1.552  11.591  19.546  0.00  0.00    +0.000 A 
ATOM     10  C   UNL     1      -2.849  12.031  19.239  0.00  0.00    +0.000 A 
ATOM     11  C   UNL     1      -3.504  11.485  18.126  0.00  0.00    +0.000 A 
ATOM     12  C   UNL     1      -2.870  10.546  17.310  0.00  0.00    +0.000 A 
ATOM     13  C   UNL     1      -1.577  10.103  17.594  0.00  0.00    +0.000 A 
ATOM     14  C   UNL     1      -0.956  10.625  18.739  0.00  0.00    +0.000 A 
ATOM     15  N   UNL     1       0.228  10.316  19.393  0.00  0.00    +0.000 N 
BRANCH   7  16
ATOM     16  O   UNL     1       1.290  11.160  21.352  0.00  0.00    +0.000 OA
ATOM     17  H   UNL     1       0.775  11.172  22.183  0.00  0.00    +0.000 HD
ENDBRANCH   7  16
ENDBRANCH   1  15
BRANCH   4  18
ATOM     18  C   UNL     1       3.515   5.636  18.813  0.00  0.00    +0.000 C 
BRANCH  18  19
ATOM     19  C   UNL     1       5.017   5.542  18.945  0.00  0.00    +0.000 A 
ATOM     20  N   UNL     1       5.647   4.970  19.957  0.00  0.00    +0.000 NA
ATOM     21  N   UNL     1       6.981   5.022  19.671  0.00  0.00    +0.000 NA
ATOM     22  N   UNL     1       7.191   5.601  18.501  0.00  0.00    +0.000 NA
ATOM     23  N   UNL     1       5.972   5.978  18.050  0.00  0.00    +0.000 N 
BRANCH  23  24
ATOM     24  C   UNL     1       5.877   6.604  16.740  0.00  0.00    +0.000 C 
BRANCH  24  25
ATOM     25  C   UNL     1       6.033   5.624  15.592  0.00  0.00    +0.000 A 
ATOM     26  C   UNL     1       7.187   5.610  14.792  0.00  0.00    +0.000 A 
ATOM     27  C   UNL     1       7.298   4.737  13.706  0.00  0.00    +0.000 A 
ATOM     28  C   UNL     1       6.277   3.836  13.429  0.00  0.00    +0.000 A 
ATOM     29  C   UNL     1       5.160   3.780  14.260  0.00  0.00    +0.000 A 
ATOM     30  C   UNL     1       5.039   4.663  15.338  0.00  0.00    +0.000 A 
ENDBRANCH  24  25
ENDBRANCH  23  24
ENDBRANCH  18  19
BRANCH  18  31
ATOM     31  C   UNL     1       2.872   4.501  19.608  0.00  0.00    +0.000 C 
ATOM     32  C   UNL     1       1.407   4.097  19.645  0.00  0.00    +0.000 C 
ATOM     33  C   UNL     1       2.360   3.313  18.804  0.00  0.00    +0.000 C 
ENDBRANCH  18  31
ENDBRANCH   4  18
TORSDOF 7
ENDMDL
MODEL 8
REMARK VINA RESULT:      -9.4      1.730      2.260
REMARK  Name = 
REMARK  7 active torsions:
REMARK  status: ('A' for Active; 'I' for Inactive)
REMARK    1  A    between atoms: O_1  and  C_2
REMARK    2  A    between atoms: N_10  and  C_11
REMARK    3  A    between atoms: N_14  and  C_15
REMARK    4  A    between atoms: C_15  and  C_16
REMARK    5  A    between atoms: C_15  and  C_28
REMARK    6  A    between atoms: N_20  and  C_21
REMARK    7  A    between atoms: C_21  and  C_22
REMARK                            x       y       z     vdW  Elec       q    Type
REMARK                         _______ _______ _______ _____ _____    ______ ____
ROOT
ATOM      1  C   UNL     1       1.339   8.737  19.132  0.00  0.00    +0.000 C 
ATOM      2  C   UNL     1       2.407   8.939  18.065  0.00  0.00    +0.000 C 
ATOM      3  C   UNL     1       2.805   7.551  17.513  0.00  0.00    +0.000 C 
ATOM      4  N   UNL     1       3.272   6.594  18.566  0.00  0.00    +0.000 NA
ATOM      5  C   UNL     1       2.242   6.453  19.606  0.00  0.00    +0.000 C 
ATOM      6  C   UNL     1       1.902   7.811  20.216  0.00  0.00    +0.000 C 
ENDROOT
BRANCH   1  15
ATOM      7  C   UNL     1       0.782  10.382  20.994  0.00  0.00    +0.000 A 
ATOM      8  N   UNL     1      -0.182  11.204  21.306  0.00  0.00    +0.000 NA
ATOM      9  C   UNL     1      -0.969  11.255  20.176  0.00  0.00    +0.000 A 
ATOM     10  C   UNL     1      -2.198  11.898  19.958  0.00  0.00    +0.000 A 
ATOM     11  C   UNL     1      -2.825  11.759  18.712  0.00  0.00    +0.000 A 
ATOM     12  C   UNL     1      -2.227  11.024  17.687  0.00  0.00    +0.000 A 
ATOM     13  C   UNL     1      -1.002  10.385  17.880  0.00  0.00    +0.000 A 
ATOM     14  C   UNL     1      -0.412  10.496  19.149  0.00  0.00    +0.000 A 
ATOM     15  N   UNL     1       0.693   9.893  19.731  0.00  0.00    +0.000 N 
BRANCH   7  16
ATOM     16  O   UNL     1       1.696  10.036  21.888  0.00  0.00    +0.000 OA
ATOM     17  H   UNL     1       1.361   9.158  22.158  0.00  0.00    +0.000 HD
ENDBRANCH   7  16
ENDBRANCH   1  15
BRANCH   4  18
ATOM     18  C   UNL     1       3.623   5.285  17.935  0.00  0.00    +0.000 C 
BRANCH  18  19
ATOM     19  C   UNL     1       5.120   5.078  17.957  0.00  0.00    +0.000 A 
ATOM     20  N   UNL     1       5.928   5.545  18.894  0.00  0.00    +0.000 NA
ATOM     21  N   UNL     1       7.179   5.086  18.599  0.00  0.00    +0.000 NA
ATOM     22  N   UNL     1       7.163   4.336  17.511  0.00  0.00    +0.000 NA
ATOM     23  N   UNL     1       5.886   4.358  17.064  0.00  0.00    +0.000 N 
BRANCH  23  24
ATOM     24  C   UNL     1       5.544   3.568  15.892  0.00  0.00    +0.000 C 
BRANCH  24  25
ATOM     25  C   UNL     1       6.230   4.043  14.624  0.00  0.00    +0.000 A 
ATOM     26  C   UNL     1       5.899   3.510  13.368  0.00  0.00    +0.000 A 
ATOM     27  C   UNL     1       6.572   3.919  12.213  0.00  0.00    +0.000 A 
ATOM     28  C   UNL     1       7.556   4.897  12.290  0.00  0.00    +0.000 A 
ATOM     29  C   UNL     1       7.841   5.496  13.515  0.00  0.00    +0.000 A 
ATOM     30  C   UNL     1       7.180   5.078  14.674  0.00  0.00    +0.000 A 
ENDBRANCH  24  25
ENDBRANCH  23  24
ENDBRANCH  18  19
BRANCH  18  31
ATOM     31  C   UNL     1       2.939   4.035  18.485  0.00  0.00    +0.000 C 
ATOM     32  C   UNL     1       1.473   3.644  18.373  0.00  0.00    +0.000 C 
ATOM     33  C   UNL     1       2.471   3.009  17.460  0.00  0.00    +0.000 C 
ENDBRANCH  18  31
ENDBRANCH   4  18
TORSDOF 7
ENDMDL
MODEL 9
REMARK VINA RESULT:      -9.4      3.074      8.857
REMARK  Name = 
REMARK  7 active torsions:
REMARK  status: ('A' for Active; 'I' for Inactive)
REMARK    1  A    between atoms: O_1  and  C_2
REMARK    2  A    between atoms: N_10  and  C_11
REMARK    3  A    between atoms: N_14  and  C_15
REMARK    4  A    between atoms: C_15  and  C_16
REMARK    5  A    between atoms: C_15  and  C_28
REMARK    6  A    between atoms: N_20  and  C_21
REMARK    7  A    between atoms: C_21  and  C_22
REMARK                            x       y       z     vdW  Elec       q    Type
REMARK                         _______ _______ _______ _____ _____    ______ ____
ROOT
ATOM      1  C   UNL     1       2.582   7.356  18.964  0.00  0.00    +0.000 C 
ATOM      2  C   UNL     1       1.838   8.292  18.020  0.00  0.00    +0.000 C 
ATOM      3  C   UNL     1       1.472   9.573  18.802  0.00  0.00    +0.000 C 
ATOM      4  N   UNL     1       0.674   9.316  20.044  0.00  0.00    +0.000 NA
ATOM      5  C   UNL     1       1.394   8.376  20.915  0.00  0.00    +0.000 C 
ATOM      6  C   UNL     1       1.687   7.072  20.175  0.00  0.00    +0.000 C 
ENDROOT
BRANCH   1  15
ATOM      7  C   UNL     1       4.088   5.936  17.483  0.00  0.00    +0.000 A 
ATOM      8  N   UNL     1       4.121   4.717  17.018  0.00  0.00    +0.000 NA
ATOM      9  C   UNL     1       3.137   4.055  17.718  0.00  0.00    +0.000 A 
ATOM     10  C   UNL     1       2.649   2.746  17.574  0.00  0.00    +0.000 A 
ATOM     11  C   UNL     1       1.596   2.320  18.396  0.00  0.00    +0.000 A 
ATOM     12  C   UNL     1       1.059   3.165  19.369  0.00  0.00    +0.000 A 
ATOM     13  C   UNL     1       1.536   4.467  19.533  0.00  0.00    +0.000 A 
ATOM     14  C   UNL     1       2.557   4.891  18.670  0.00  0.00    +0.000 A 
ATOM     15  N   UNL     1       3.156   6.123  18.451  0.00  0.00    +0.000 N 
BRANCH   7  16
ATOM     16  O   UNL     1       4.865   6.879  16.972  0.00  0.00    +0.000 OA
ATOM     17  H   UNL     1       5.686   6.732  17.482  0.00  0.00    +0.000 HD
ENDBRANCH   7  16
ENDBRANCH   1  15
BRANCH   4  18
ATOM     18  C   UNL     1       0.380  10.612  20.730  0.00  0.00    +0.000 C 
BRANCH  18  19
ATOM     19  C   UNL     1       0.145  11.702  19.710  0.00  0.00    +0.000 A 
ATOM     20  N   UNL     1       1.066  12.557  19.301  0.00  0.00    +0.000 NA
ATOM     21  N   UNL     1       0.488  13.325  18.332  0.00  0.00    +0.000 NA
ATOM     22  N   UNL     1      -0.764  12.957  18.122  0.00  0.00    +0.000 NA
ATOM     23  N   UNL     1      -1.015  11.970  19.013  0.00  0.00    +0.000 N 
BRANCH  23  24
ATOM     24  C   UNL     1      -2.316  11.321  18.985  0.00  0.00    +0.000 C 
BRANCH  24  25
ATOM     25  C   UNL     1      -2.767  10.934  17.588  0.00  0.00    +0.000 A 
ATOM     26  C   UNL     1      -2.051  10.003  16.819  0.00  0.00    +0.000 A 
ATOM     27  C   UNL     1      -2.447   9.691  15.516  0.00  0.00    +0.000 A 
ATOM     28  C   UNL     1      -3.588  10.272  14.977  0.00  0.00    +0.000 A 
ATOM     29  C   UNL     1      -4.357  11.136  15.754  0.00  0.00    +0.000 A 
ATOM     30  C   UNL     1      -3.955  11.461  17.053  0.00  0.00    +0.000 A 
ENDBRANCH  24  25
ENDBRANCH  23  24
ENDBRANCH  18  19
BRANCH  18  31
ATOM     31  C   UNL     1      -0.759  10.625  21.746  0.00  0.00    +0.000 C 
ATOM     32  C   UNL     1      -0.679  10.390  23.247  0.00  0.00    +0.000 C 
ATOM     33  C   UNL     1      -0.780  11.788  22.730  0.00  0.00    +0.000 C 
ENDBRANCH  18  31
ENDBRANCH   4  18
TORSDOF 7
ENDMDL
