MODEL 1
REMARK VINA RESULT:      -6.8      0.000      0.000
REMARK  Name = 
REMARK  7 active torsions:
REMARK  status: ('A' for Active; 'I' for Inactive)
REMARK    1  A    between atoms: C_2  and  O_9
REMARK    2  A    between atoms: N_3  and  C_4
REMARK    3  A    between atoms: C_4  and  P_5
REMARK    4  A    between atoms: P_5  and  O_7
REMARK    5  A    between atoms: P_5  and  O_8
REMARK    6  A    between atoms: O_9  and  C_10
REMARK    7  A    between atoms: C_10  and  C_11
REMARK                            x       y       z     vdW  Elec       q    Type
REMARK                         _______ _______ _______ _____ _____    ______ ____
ROOT
ATOM      1  O   UNL     1       5.234   3.361  19.407  0.00  0.00    +0.000 OA
ATOM      2  C   UNL     1       5.589   4.378  18.831  0.00  0.00    +0.000 C 
ATOM      3  N   UNL     1       6.745   4.416  18.110  0.00  0.00    +0.000 N 
ATOM      4  H   UNL     1       7.345   3.611  18.212  0.00  0.00    +0.000 HD
ENDROOT
BRANCH   3   5
ATOM      5  C   UNL     1       6.996   5.270  16.951  0.00  0.00    +0.000 C 
BRANCH   5   6
ATOM      6  P   UNL     1       6.687   4.407  15.367  0.00  0.00    +0.000 P 
ATOM      7  O   UNL     1       5.352   5.134  15.157  0.00  0.00    +0.000 OA
BRANCH   6   8
ATOM      8  O   UNL     1       7.771   5.358  14.589  0.00  0.00    +0.000 OA
ATOM      9  H   UNL     1       7.412   5.692  13.745  0.00  0.00    +0.000 HD
ENDBRANCH   6   8
BRANCH   6  10
ATOM     10  O   UNL     1       6.395   3.590  13.869  0.00  0.00    +0.000 OA
ATOM     11  H   UNL     1       5.434   3.694  13.709  0.00  0.00    +0.000 HD
ENDBRANCH   6  10
ENDBRANCH   5   6
ENDBRANCH   3   5
BRANCH   2  12
ATOM     12  O   UNL     1       4.906   5.549  18.796  0.00  0.00    +0.000 OA
BRANCH  12  13
ATOM     13  C   UNL     1       3.674   5.517  18.056  0.00  0.00    +0.000 C 
BRANCH  13  14
ATOM     14  C   UNL     1       2.549   4.713  18.677  0.00  0.00    +0.000 A 
ATOM     15  C   UNL     1       1.984   3.622  18.007  0.00  0.00    +0.000 A 
ATOM     16  C   UNL     1       1.044   2.803  18.646  0.00  0.00    +0.000 A 
ATOM     17  C   UNL     1       0.650   3.075  19.957  0.00  0.00    +0.000 A 
ATOM     18  C   UNL     1       1.183   4.177  20.622  0.00  0.00    +0.000 A 
ATOM     19  C   UNL     1       2.123   4.995  19.986  0.00  0.00    +0.000 A 
ENDBRANCH  13  14
ENDBRANCH  12  13
ENDBRANCH   2  12
TORSDOF 7
ENDMDL
MODEL 2
REMARK VINA RESULT:      -6.7      2.127      3.556
REMARK  Name = 
REMARK  7 active torsions:
REMARK  status: ('A' for Active; 'I' for Inactive)
REMARK    1  A    between atoms: C_2  and  O_9
REMARK    2  A    between atoms: N_3  and  C_4
REMARK    3  A    between atoms: C_4  and  P_5
REMARK    4  A    between atoms: P_5  and  O_7
REMARK    5  A    between atoms: P_5  and  O_8
REMARK    6  A    between atoms: O_9  and  C_10
REMARK    7  A    between atoms: C_10  and  C_11
REMARK                            x       y       z     vdW  Elec       q    Type
REMARK                         _______ _______ _______ _____ _____    ______ ____
ROOT
ATOM      1  O   UNL     1       6.947   4.561  14.510  0.00  0.00    +0.000 OA
ATOM      2  C   UNL     1       6.759   4.749  15.703  0.00  0.00    +0.000 C 
ATOM      3  N   UNL     1       7.397   5.753  16.370  0.00  0.00    +0.000 N 
ATOM      4  H   UNL     1       8.130   6.217  15.855  0.00  0.00    +0.000 HD
ENDROOT
BRANCH   3   5
ATOM      5  C   UNL     1       6.879   6.459  17.540  0.00  0.00    +0.000 C 
BRANCH   5   6
ATOM      6  P   UNL     1       7.614   5.856  19.104  0.00  0.00    +0.000 P 
ATOM      7  O   UNL     1       6.246   5.447  19.665  0.00  0.00    +0.000 OA
BRANCH   6   8
ATOM      8  O   UNL     1       8.154   4.493  18.373  0.00  0.00    +0.000 OA
ATOM      9  H   UNL     1       8.564   3.882  19.014  0.00  0.00    +0.000 HD
ENDBRANCH   6   8
BRANCH   6  10
ATOM     10  O   UNL     1       8.311   5.287  20.582  0.00  0.00    +0.000 OA
ATOM     11  H   UNL     1       8.711   4.422  20.356  0.00  0.00    +0.000 HD
ENDBRANCH   6  10
ENDBRANCH   5   6
ENDBRANCH   3   5
BRANCH   2  12
ATOM     12  O   UNL     1       5.908   4.048  16.492  0.00  0.00    +0.000 OA
BRANCH  12  13
ATOM     13  C   UNL     1       4.530   4.077  16.084  0.00  0.00    +0.000 C 
BRANCH  13  14
ATOM     14  C   UNL     1       3.508   4.045  17.201  0.00  0.00    +0.000 A 
ATOM     15  C   UNL     1       3.245   5.181  17.975  0.00  0.00    +0.000 A 
ATOM     16  C   UNL     1       2.202   5.181  18.910  0.00  0.00    +0.000 A 
ATOM     17  C   UNL     1       1.420   4.038  19.090  0.00  0.00    +0.000 A 
ATOM     18  C   UNL     1       1.692   2.893  18.347  0.00  0.00    +0.000 A 
ATOM     19  C   UNL     1       2.732   2.892  17.412  0.00  0.00    +0.000 A 
ENDBRANCH  13  14
ENDBRANCH  12  13
ENDBRANCH   2  12
TORSDOF 7
ENDMDL
MODEL 3
REMARK VINA RESULT:      -6.6      2.252      3.517
REMARK  Name = 
REMARK  7 active torsions:
REMARK  status: ('A' for Active; 'I' for Inactive)
REMARK    1  A    between atoms: C_2  and  O_9
REMARK    2  A    between atoms: N_3  and  C_4
REMARK    3  A    between atoms: C_4  and  P_5
REMARK    4  A    between atoms: P_5  and  O_7
REMARK    5  A    between atoms: P_5  and  O_8
REMARK    6  A    between atoms: O_9  and  C_10
REMARK    7  A    between atoms: C_10  and  C_11
REMARK                            x       y       z     vdW  Elec       q    Type
REMARK                         _______ _______ _______ _____ _____    ______ ____
ROOT
ATOM      1  O   UNL     1       6.448   4.428  14.317  0.00  0.00    +0.000 OA
ATOM      2  C   UNL     1       6.245   4.834  15.452  0.00  0.00    +0.000 C 
ATOM      3  N   UNL     1       7.211   5.497  16.149  0.00  0.00    +0.000 N 
ATOM      4  H   UNL     1       8.128   5.492  15.730  0.00  0.00    +0.000 HD
ENDROOT
BRANCH   3   5
ATOM      5  C   UNL     1       6.974   6.507  17.178  0.00  0.00    +0.000 C 
BRANCH   5   6
ATOM      6  P   UNL     1       7.380   5.905  18.858  0.00  0.00    +0.000 P 
ATOM      7  O   UNL     1       8.154   4.699  18.307  0.00  0.00    +0.000 OA
BRANCH   6   8
ATOM      8  O   UNL     1       8.533   7.055  19.037  0.00  0.00    +0.000 OA
ATOM      9  H   UNL     1       8.341   7.638  19.795  0.00  0.00    +0.000 HD
ENDBRANCH   6   8
BRANCH   6  10
ATOM     10  O   UNL     1       7.763   5.334  20.446  0.00  0.00    +0.000 OA
ATOM     11  H   UNL     1       7.271   5.926  21.051  0.00  0.00    +0.000 HD
ENDBRANCH   6  10
ENDBRANCH   5   6
ENDBRANCH   3   5
BRANCH   2  12
ATOM     12  O   UNL     1       5.081   4.723  16.137  0.00  0.00    +0.000 OA
BRANCH  12  13
ATOM     13  C   UNL     1       4.840   3.436  16.732  0.00  0.00    +0.000 C 
BRANCH  13  14
ATOM     14  C   UNL     1       3.582   3.318  17.567  0.00  0.00    +0.000 A 
ATOM     15  C   UNL     1       2.684   4.386  17.680  0.00  0.00    +0.000 A 
ATOM     16  C   UNL     1       1.459   4.221  18.338  0.00  0.00    +0.000 A 
ATOM     17  C   UNL     1       1.124   2.989  18.903  0.00  0.00    +0.000 A 
ATOM     18  C   UNL     1       2.023   1.928  18.823  0.00  0.00    +0.000 A 
ATOM     19  C   UNL     1       3.246   2.090  18.164  0.00  0.00    +0.000 A 
ENDBRANCH  13  14
ENDBRANCH  12  13
ENDBRANCH   2  12
TORSDOF 7
ENDMDL
MODEL 4
REMARK VINA RESULT:      -6.6      1.016      1.623
REMARK  Name = 
REMARK  7 active torsions:
REMARK  status: ('A' for Active; 'I' for Inactive)
REMARK    1  A    between atoms: C_2  and  O_9
REMARK    2  A    between atoms: N_3  and  C_4
REMARK    3  A    between atoms: C_4  and  P_5
REMARK    4  A    between atoms: P_5  and  O_7
REMARK    5  A    between atoms: P_5  and  O_8
REMARK    6  A    between atoms: O_9  and  C_10
REMARK    7  A    between atoms: C_10  and  C_11
REMARK                            x       y       z     vdW  Elec       q    Type
REMARK                         _______ _______ _______ _____ _____    ______ ____
ROOT
ATOM      1  O   UNL     1       5.372   3.866  19.542  0.00  0.00    +0.000 OA
ATOM      2  C   UNL     1       5.363   4.389  18.438  0.00  0.00    +0.000 C 
ATOM      3  N   UNL     1       5.880   3.752  17.349  0.00  0.00    +0.000 N 
ATOM      4  H   UNL     1       6.395   2.907  17.546  0.00  0.00    +0.000 HD
ENDROOT
BRANCH   3   5
ATOM      5  C   UNL     1       5.439   3.936  15.968  0.00  0.00    +0.000 C 
BRANCH   5   6
ATOM      6  P   UNL     1       6.706   4.757  14.933  0.00  0.00    +0.000 P 
ATOM      7  O   UNL     1       6.098   6.145  15.177  0.00  0.00    +0.000 OA
BRANCH   6   8
ATOM      8  O   UNL     1       7.828   4.614  16.118  0.00  0.00    +0.000 OA
ATOM      9  H   UNL     1       8.479   5.340  16.083  0.00  0.00    +0.000 HD
ENDBRANCH   6   8
BRANCH   6  10
ATOM     10  O   UNL     1       7.903   5.533  13.953  0.00  0.00    +0.000 OA
ATOM     11  H   UNL     1       7.745   6.492  14.075  0.00  0.00    +0.000 HD
ENDBRANCH   6  10
ENDBRANCH   5   6
ENDBRANCH   3   5
BRANCH   2  12
ATOM     12  O   UNL     1       4.834   5.601  18.139  0.00  0.00    +0.000 OA
BRANCH  12  13
ATOM     13  C   UNL     1       3.453   5.585  17.740  0.00  0.00    +0.000 C 
BRANCH  13  14
ATOM     14  C   UNL     1       2.542   4.677  18.540  0.00  0.00    +0.000 A 
ATOM     15  C   UNL     1       2.114   5.032  19.825  0.00  0.00    +0.000 A 
ATOM     16  C   UNL     1       1.164   4.254  20.499  0.00  0.00    +0.000 A 
ATOM     17  C   UNL     1       0.642   3.106  19.901  0.00  0.00    +0.000 A 
ATOM     18  C   UNL     1       1.084   2.727  18.636  0.00  0.00    +0.000 A 
ATOM     19  C   UNL     1       2.032   3.503  17.960  0.00  0.00    +0.000 A 
ENDBRANCH  13  14
ENDBRANCH  12  13
ENDBRANCH   2  12
TORSDOF 7
ENDMDL
MODEL 5
REMARK VINA RESULT:      -6.6      1.978      3.109
REMARK  Name = 
REMARK  7 active torsions:
REMARK  status: ('A' for Active; 'I' for Inactive)
REMARK    1  A    between atoms: C_2  and  O_9
REMARK    2  A    between atoms: N_3  and  C_4
REMARK    3  A    between atoms: C_4  and  P_5
REMARK    4  A    between atoms: P_5  and  O_7
REMARK    5  A    between atoms: P_5  and  O_8
REMARK    6  A    between atoms: O_9  and  C_10
REMARK    7  A    between atoms: C_10  and  C_11
REMARK                            x       y       z     vdW  Elec       q    Type
REMARK                         _______ _______ _______ _____ _____    ______ ____
ROOT
ATOM      1  O   UNL     1       5.659   3.601  15.125  0.00  0.00    +0.000 OA
ATOM      2  C   UNL     1       5.652   4.282  16.140  0.00  0.00    +0.000 C 
ATOM      3  N   UNL     1       6.807   4.779  16.666  0.00  0.00    +0.000 N 
ATOM      4  H   UNL     1       7.658   4.426  16.254  0.00  0.00    +0.000 HD
ENDROOT
BRANCH   3   5
ATOM      5  C   UNL     1       6.925   6.011  17.443  0.00  0.00    +0.000 C 
BRANCH   5   6
ATOM      6  P   UNL     1       7.588   5.718  19.124  0.00  0.00    +0.000 P 
ATOM      7  O   UNL     1       6.244   5.173  19.627  0.00  0.00    +0.000 OA
BRANCH   6   8
ATOM      8  O   UNL     1       8.384   4.378  18.621  0.00  0.00    +0.000 OA
ATOM      9  H   UNL     1       8.739   4.490  17.719  0.00  0.00    +0.000 HD
ENDBRANCH   6   8
BRANCH   6  10
ATOM     10  O   UNL     1       8.214   5.442  20.713  0.00  0.00    +0.000 OA
ATOM     11  H   UNL     1       8.586   6.305  20.991  0.00  0.00    +0.000 HD
ENDBRANCH   6  10
ENDBRANCH   5   6
ENDBRANCH   3   5
BRANCH   2  12
ATOM     12  O   UNL     1       4.551   4.652  16.838  0.00  0.00    +0.000 OA
BRANCH  12  13
ATOM     13  C   UNL     1       3.576   3.615  17.040  0.00  0.00    +0.000 C 
BRANCH  13  14
ATOM     14  C   UNL     1       2.610   3.829  18.187  0.00  0.00    +0.000 A 
ATOM     15  C   UNL     1       1.692   2.839  18.554  0.00  0.00    +0.000 A 
ATOM     16  C   UNL     1       0.900   2.991  19.701  0.00  0.00    +0.000 A 
ATOM     17  C   UNL     1       1.009   4.142  20.483  0.00  0.00    +0.000 A 
ATOM     18  C   UNL     1       1.897   5.147  20.109  0.00  0.00    +0.000 A 
ATOM     19  C   UNL     1       2.689   4.996  18.966  0.00  0.00    +0.000 A 
ENDBRANCH  13  14
ENDBRANCH  12  13
ENDBRANCH   2  12
TORSDOF 7
ENDMDL
MODEL 6
REMARK VINA RESULT:      -6.4      0.671      1.313
REMARK  Name = 
REMARK  7 active torsions:
REMARK  status: ('A' for Active; 'I' for Inactive)
REMARK    1  A    between atoms: C_2  and  O_9
REMARK    2  A    between atoms: N_3  and  C_4
REMARK    3  A    between atoms: C_4  and  P_5
REMARK    4  A    between atoms: P_5  and  O_7
REMARK    5  A    between atoms: P_5  and  O_8
REMARK    6  A    between atoms: O_9  and  C_10
REMARK    7  A    between atoms: C_10  and  C_11
REMARK                            x       y       z     vdW  Elec       q    Type
REMARK                         _______ _______ _______ _____ _____    ______ ____
ROOT
ATOM      1  O   UNL     1       5.803   3.932  19.459  0.00  0.00    +0.000 OA
ATOM      2  C   UNL     1       5.836   4.867  18.673  0.00  0.00    +0.000 C 
ATOM      3  N   UNL     1       6.985   5.203  18.021  0.00  0.00    +0.000 N 
ATOM      4  H   UNL     1       7.818   4.734  18.343  0.00  0.00    +0.000 HD
ENDROOT
BRANCH   3   5
ATOM      5  C   UNL     1       7.063   5.832  16.704  0.00  0.00    +0.000 C 
BRANCH   5   6
ATOM      6  P   UNL     1       6.710   4.656  15.346  0.00  0.00    +0.000 P 
ATOM      7  O   UNL     1       5.378   5.340  15.013  0.00  0.00    +0.000 OA
BRANCH   6   8
ATOM      8  O   UNL     1       7.785   5.405  14.363  0.00  0.00    +0.000 OA
ATOM      9  H   UNL     1       7.535   6.335  14.202  0.00  0.00    +0.000 HD
ENDBRANCH   6   8
BRANCH   6  10
ATOM     10  O   UNL     1       6.377   3.543  14.064  0.00  0.00    +0.000 OA
ATOM     11  H   UNL     1       6.472   4.069  13.243  0.00  0.00    +0.000 HD
ENDBRANCH   6  10
ENDBRANCH   5   6
ENDBRANCH   3   5
BRANCH   2  12
ATOM     12  O   UNL     1       4.783   5.647  18.323  0.00  0.00    +0.000 OA
BRANCH  12  13
ATOM     13  C   UNL     1       3.783   5.819  19.342  0.00  0.00    +0.000 C 
BRANCH  13  14
ATOM     14  C   UNL     1       2.755   4.712  19.454  0.00  0.00    +0.000 A 
ATOM     15  C   UNL     1       2.207   4.356  20.691  0.00  0.00    +0.000 A 
ATOM     16  C   UNL     1       1.158   3.430  20.766  0.00  0.00    +0.000 A 
ATOM     17  C   UNL     1       0.656   2.841  19.604  0.00  0.00    +0.000 A 
ATOM     18  C   UNL     1       1.214   3.165  18.370  0.00  0.00    +0.000 A 
ATOM     19  C   UNL     1       2.261   4.091  18.294  0.00  0.00    +0.000 A 
ENDBRANCH  13  14
ENDBRANCH  12  13
ENDBRANCH   2  12
TORSDOF 7
ENDMDL
MODEL 7
REMARK VINA RESULT:      -6.4      1.459      2.234
REMARK  Name = 
REMARK  7 active torsions:
REMARK  status: ('A' for Active; 'I' for Inactive)
REMARK    1  A    between atoms: C_2  and  O_9
REMARK    2  A    between atoms: N_3  and  C_4
REMARK    3  A    between atoms: C_4  and  P_5
REMARK    4  A    between atoms: P_5  and  O_7
REMARK    5  A    between atoms: P_5  and  O_8
REMARK    6  A    between atoms: O_9  and  C_10
REMARK    7  A    between atoms: C_10  and  C_11
REMARK                            x       y       z     vdW  Elec       q    Type
REMARK                         _______ _______ _______ _____ _____    ______ ____
ROOT
ATOM      1  O   UNL     1       5.112   5.530  19.403  0.00  0.00    +0.000 OA
ATOM      2  C   UNL     1       5.118   4.580  18.634  0.00  0.00    +0.000 C 
ATOM      3  N   UNL     1       4.876   4.747  17.303  0.00  0.00    +0.000 N 
ATOM      4  H   UNL     1       4.548   5.663  17.034  0.00  0.00    +0.000 HD
ENDROOT
BRANCH   3   5
ATOM      5  C   UNL     1       5.405   3.907  16.231  0.00  0.00    +0.000 C 
BRANCH   5   6
ATOM      6  P   UNL     1       6.685   4.761  15.240  0.00  0.00    +0.000 P 
ATOM      7  O   UNL     1       6.154   6.146  15.631  0.00  0.00    +0.000 OA
BRANCH   6   8
ATOM      8  O   UNL     1       7.828   4.451  16.372  0.00  0.00    +0.000 OA
ATOM      9  H   UNL     1       7.455   4.481  17.273  0.00  0.00    +0.000 HD
ENDBRANCH   6   8
BRANCH   6  10
ATOM     10  O   UNL     1       7.894   5.568  14.301  0.00  0.00    +0.000 OA
ATOM     11  H   UNL     1       7.394   6.151  13.694  0.00  0.00    +0.000 HD
ENDBRANCH   6  10
ENDBRANCH   5   6
ENDBRANCH   3   5
BRANCH   2  12
ATOM     12  O   UNL     1       5.387   3.294  18.965  0.00  0.00    +0.000 OA
BRANCH  12  13
ATOM     13  C   UNL     1       4.633   2.776  20.075  0.00  0.00    +0.000 C 
BRANCH  13  14
ATOM     14  C   UNL     1       3.127   2.802  19.922  0.00  0.00    +0.000 A 
ATOM     15  C   UNL     1       2.330   3.614  20.736  0.00  0.00    +0.000 A 
ATOM     16  C   UNL     1       0.955   3.736  20.494  0.00  0.00    +0.000 A 
ATOM     17  C   UNL     1       0.361   3.033  19.444  0.00  0.00    +0.000 A 
ATOM     18  C   UNL     1       1.139   2.198  18.646  0.00  0.00    +0.000 A 
ATOM     19  C   UNL     1       2.513   2.077  18.885  0.00  0.00    +0.000 A 
ENDBRANCH  13  14
ENDBRANCH  12  13
ENDBRANCH   2  12
TORSDOF 7
ENDMDL
MODEL 8
REMARK VINA RESULT:      -6.4      1.984      3.183
REMARK  Name = 
REMARK  7 active torsions:
REMARK  status: ('A' for Active; 'I' for Inactive)
REMARK    1  A    between atoms: C_2  and  O_9
REMARK    2  A    between atoms: N_3  and  C_4
REMARK    3  A    between atoms: C_4  and  P_5
REMARK    4  A    between atoms: P_5  and  O_7
REMARK    5  A    between atoms: P_5  and  O_8
REMARK    6  A    between atoms: O_9  and  C_10
REMARK    7  A    between atoms: C_10  and  C_11
REMARK                            x       y       z     vdW  Elec       q    Type
REMARK                         _______ _______ _______ _____ _____    ______ ____
ROOT
ATOM      1  O   UNL     1       5.069   7.257  15.417  0.00  0.00    +0.000 OA
ATOM      2  C   UNL     1       5.199   6.106  15.806  0.00  0.00    +0.000 C 
ATOM      3  N   UNL     1       6.356   5.415  15.599  0.00  0.00    +0.000 N 
ATOM      4  H   UNL     1       7.021   5.860  14.983  0.00  0.00    +0.000 HD
ENDROOT
BRANCH   3   5
ATOM      5  C   UNL     1       6.875   4.351  16.454  0.00  0.00    +0.000 C 
BRANCH   5   6
ATOM      6  P   UNL     1       7.476   4.979  18.065  0.00  0.00    +0.000 P 
ATOM      7  O   UNL     1       6.395   4.214  18.840  0.00  0.00    +0.000 OA
BRANCH   6   8
ATOM      8  O   UNL     1       8.743   3.941  18.045  0.00  0.00    +0.000 OA
ATOM      9  H   UNL     1       9.388   4.150  18.746  0.00  0.00    +0.000 HD
ENDBRANCH   6   8
BRANCH   6  10
ATOM     10  O   UNL     1       8.044   5.574  19.588  0.00  0.00    +0.000 OA
ATOM     11  H   UNL     1       7.570   6.421  19.719  0.00  0.00    +0.000 HD
ENDBRANCH   6  10
ENDBRANCH   5   6
ENDBRANCH   3   5
BRANCH   2  12
ATOM     12  O   UNL     1       4.275   5.393  16.495  0.00  0.00    +0.000 OA
BRANCH  12  13
ATOM     13  C   UNL     1       3.703   6.065  17.629  0.00  0.00    +0.000 C 
BRANCH  13  14
ATOM     14  C   UNL     1       2.810   5.224  18.517  0.00  0.00    +0.000 A 
ATOM     15  C   UNL     1       2.586   5.569  19.855  0.00  0.00    +0.000 A 
ATOM     16  C   UNL     1       1.651   4.866  20.626  0.00  0.00    +0.000 A 
ATOM     17  C   UNL     1       0.941   3.800  20.070  0.00  0.00    +0.000 A 
ATOM     18  C   UNL     1       1.178   3.428  18.749  0.00  0.00    +0.000 A 
ATOM     19  C   UNL     1       2.110   4.131  17.978  0.00  0.00    +0.000 A 
ENDBRANCH  13  14
ENDBRANCH  12  13
ENDBRANCH   2  12
TORSDOF 7
ENDMDL
MODEL 9
REMARK VINA RESULT:      -6.4      0.804      1.071
REMARK  Name = 
REMARK  7 active torsions:
REMARK  status: ('A' for Active; 'I' for Inactive)
REMARK    1  A    between atoms: C_2  and  O_9
REMARK    2  A    between atoms: N_3  and  C_4
REMARK    3  A    between atoms: C_4  and  P_5
REMARK    4  A    between atoms: P_5  and  O_7
REMARK    5  A    between atoms: P_5  and  O_8
REMARK    6  A    between atoms: O_9  and  C_10
REMARK    7  A    between atoms: C_10  and  C_11
REMARK                            x       y       z     vdW  Elec       q    Type
REMARK                         _______ _______ _______ _____ _____    ______ ____
ROOT
ATOM      1  O   UNL     1       5.420   3.838  19.305  0.00  0.00    +0.000 OA
ATOM      2  C   UNL     1       5.392   4.798  18.549  0.00  0.00    +0.000 C 
ATOM      3  N   UNL     1       6.166   4.837  17.427  0.00  0.00    +0.000 N 
ATOM      4  H   UNL     1       6.856   4.105  17.352  0.00  0.00    +0.000 HD
ENDROOT
BRANCH   3   5
ATOM      5  C   UNL     1       5.840   5.550  16.195  0.00  0.00    +0.000 C 
BRANCH   5   6
ATOM      6  P   UNL     1       6.137   4.536  14.700  0.00  0.00    +0.000 P 
ATOM      7  O   UNL     1       7.565   5.075  14.541  0.00  0.00    +0.000 OA
BRANCH   6   8
ATOM      8  O   UNL     1       6.333   3.185  15.605  0.00  0.00    +0.000 OA
ATOM      9  H   UNL     1       7.031   2.609  15.241  0.00  0.00    +0.000 HD
ENDBRANCH   6   8
BRANCH   6  10
ATOM     10  O   UNL     1       6.418   3.578  13.287  0.00  0.00    +0.000 OA
ATOM     11  H   UNL     1       5.647   3.752  12.708  0.00  0.00    +0.000 HD
ENDBRANCH   6  10
ENDBRANCH   5   6
ENDBRANCH   3   5
BRANCH   2  12
ATOM     12  O   UNL     1       4.605   5.893  18.686  0.00  0.00    +0.000 OA
BRANCH  12  13
ATOM     13  C   UNL     1       3.320   5.808  18.047  0.00  0.00    +0.000 C 
BRANCH  13  14
ATOM     14  C   UNL     1       2.332   4.845  18.672  0.00  0.00    +0.000 A 
ATOM     15  C   UNL     1       1.845   3.743  17.960  0.00  0.00    +0.000 A 
ATOM     16  C   UNL     1       1.042   2.784  18.592  0.00  0.00    +0.000 A 
ATOM     17  C   UNL     1       0.706   2.926  19.940  0.00  0.00    +0.000 A 
ATOM     18  C   UNL     1       1.160   4.035  20.650  0.00  0.00    +0.000 A 
ATOM     19  C   UNL     1       1.963   4.993  20.020  0.00  0.00    +0.000 A 
ENDBRANCH  13  14
ENDBRANCH  12  13
ENDBRANCH   2  12
TORSDOF 7
ENDMDL
