MODEL 1
REMARK VINA RESULT:      -6.9      0.000      0.000
REMARK  Name = 
REMARK  5 active torsions:
REMARK  status: ('A' for Active; 'I' for Inactive)
REMARK    1  A    between atoms: C_1  and  N_2
REMARK    2  A    between atoms: C_8  and  C_10
REMARK    3  A    between atoms: N_18  and  O_19
REMARK    4  A    between atoms: O_19  and  S_20
REMARK    5  A    between atoms: S_20  and  O_23
REMARK                            x       y       z     vdW  Elec       q    Type
REMARK                         _______ _______ _______ _____ _____    ______ ____
ROOT
ATOM      1  C   UNL     1       2.496   7.408  17.863  0.00  0.00    +0.000 C 
ATOM      2  C   UNL     1       1.599   6.176  18.194  0.00  0.00    +0.000 C 
ATOM      3  C   UNL     1       2.310   4.855  17.867  0.00  0.00    +0.000 C 
ATOM      4  C   UNL     1       3.768   4.836  18.426  0.00  0.00    +0.000 C 
ATOM      5  C   UNL     1       4.038   6.096  19.234  0.00  0.00    +0.000 C 
ATOM      6  N   UNL     1       3.902   7.087  18.188  0.00  0.00    +0.000 N 
ATOM      7  C   UNL     1       4.598   6.480  17.051  0.00  0.00    +0.000 C 
ATOM      8  O   UNL     1       4.842   7.026  15.986  0.00  0.00    +0.000 OA
ATOM      9  N   UNL     1       4.666   5.049  17.296  0.00  0.00    +0.000 N 
ENDROOT
BRANCH   1  17
ATOM     10  C   UNL     1       0.117  11.271  19.400  0.00  0.00    +0.000 C 
ATOM     11  N   UNL     1       0.190  10.427  20.561  0.00  0.00    +0.000 N 
ATOM     12  C   UNL     1      -0.617  10.748  21.714  0.00  0.00    +0.000 C 
ATOM     13  C   UNL     1       0.016   9.832  22.758  0.00  0.00    +0.000 C 
ATOM     14  N   UNL     1       0.768   8.779  22.003  0.00  0.00    +0.000 NA
ATOM     15  C   UNL     1       0.848   9.253  20.782  0.00  0.00    +0.000 C 
ATOM     16  N   UNL     1       1.569   8.478  19.902  0.00  0.00    +0.000 N 
ATOM     17  C   UNL     1       1.837   8.621  18.554  0.00  0.00    +0.000 C 
ATOM     18  O   UNL     1       1.593   9.621  17.876  0.00  0.00    +0.000 OA
ATOM     19  H   UNL     1       1.930   7.640  20.341  0.00  0.00    +0.000 HD
ENDBRANCH   1  17
BRANCH   9  20
ATOM     20  O   UNL     1       6.017   4.791  17.757  0.00  0.00    +0.000 OA
BRANCH  20  21
ATOM     21  S   UNL     1       7.127   4.561  16.578  0.00  0.00    +0.000 S 
ATOM     22  O   UNL     1       8.353   4.063  17.161  0.00  0.00    +0.000 OA
ATOM     23  O   UNL     1       6.480   3.876  15.477  0.00  0.00    +0.000 OA
BRANCH  21  24
ATOM     24  O   UNL     1       7.486   6.043  16.046  0.00  0.00    +0.000 OA
ATOM     25  H   UNL     1       6.932   6.660  16.569  0.00  0.00    +0.000 HD
ENDBRANCH  21  24
ENDBRANCH  20  21
ENDBRANCH   9  20
TORSDOF 4
ENDMDL
MODEL 2
REMARK VINA RESULT:      -6.8      4.327      7.997
REMARK  Name = 
REMARK  5 active torsions:
REMARK  status: ('A' for Active; 'I' for Inactive)
REMARK    1  A    between atoms: C_1  and  N_2
REMARK    2  A    between atoms: C_8  and  C_10
REMARK    3  A    between atoms: N_18  and  O_19
REMARK    4  A    between atoms: O_19  and  S_20
REMARK    5  A    between atoms: S_20  and  O_23
REMARK                            x       y       z     vdW  Elec       q    Type
REMARK                         _______ _______ _______ _____ _____    ______ ____
ROOT
ATOM      1  C   UNL     1       5.426   5.457  16.865  0.00  0.00    +0.000 C 
ATOM      2  C   UNL     1       6.584   5.433  17.909  0.00  0.00    +0.000 C 
ATOM      3  C   UNL     1       6.055   5.220  19.335  0.00  0.00    +0.000 C 
ATOM      4  C   UNL     1       5.027   4.045  19.394  0.00  0.00    +0.000 C 
ATOM      5  C   UNL     1       4.921   3.370  18.036  0.00  0.00    +0.000 C 
ATOM      6  N   UNL     1       4.395   4.473  17.259  0.00  0.00    +0.000 N 
ATOM      7  C   UNL     1       3.389   5.064  18.145  0.00  0.00    +0.000 C 
ATOM      8  O   UNL     1       2.603   5.949  17.846  0.00  0.00    +0.000 OA
ATOM      9  N   UNL     1       3.700   4.638  19.500  0.00  0.00    +0.000 N 
ENDROOT
BRANCH   1  17
ATOM     10  C   UNL     1       8.095   5.060  12.908  0.00  0.00    +0.000 C 
ATOM     11  N   UNL     1       6.967   4.207  12.648  0.00  0.00    +0.000 N 
ATOM     12  C   UNL     1       7.015   3.302  11.526  0.00  0.00    +0.000 C 
ATOM     13  C   UNL     1       5.550   2.879  11.448  0.00  0.00    +0.000 C 
ATOM     14  N   UNL     1       4.943   3.201  12.780  0.00  0.00    +0.000 NA
ATOM     15  C   UNL     1       5.815   4.001  13.347  0.00  0.00    +0.000 C 
ATOM     16  N   UNL     1       5.439   4.495  14.576  0.00  0.00    +0.000 N 
ATOM     17  C   UNL     1       6.091   5.314  15.478  0.00  0.00    +0.000 C 
ATOM     18  O   UNL     1       7.139   5.925  15.266  0.00  0.00    +0.000 OA
ATOM     19  H   UNL     1       4.530   4.152  14.862  0.00  0.00    +0.000 HD
ENDBRANCH   1  17
BRANCH   9  20
ATOM     20  O   UNL     1       2.766   3.569  19.801  0.00  0.00    +0.000 OA
BRANCH  20  21
ATOM     21  S   UNL     1       1.687   3.894  20.987  0.00  0.00    +0.000 S 
ATOM     22  O   UNL     1       2.145   3.312  22.228  0.00  0.00    +0.000 OA
ATOM     23  O   UNL     1       1.327   5.295  20.896  0.00  0.00    +0.000 OA
BRANCH  21  24
ATOM     24  O   UNL     1       0.364   3.057  20.592  0.00  0.00    +0.000 OA
ATOM     25  H   UNL     1      -0.275   3.200  21.322  0.00  0.00    +0.000 HD
ENDBRANCH  21  24
ENDBRANCH  20  21
ENDBRANCH   9  20
TORSDOF 4
ENDMDL
MODEL 3
REMARK VINA RESULT:      -6.8      1.176      1.710
REMARK  Name = 
REMARK  5 active torsions:
REMARK  status: ('A' for Active; 'I' for Inactive)
REMARK    1  A    between atoms: C_1  and  N_2
REMARK    2  A    between atoms: C_8  and  C_10
REMARK    3  A    between atoms: N_18  and  O_19
REMARK    4  A    between atoms: O_19  and  S_20
REMARK    5  A    between atoms: S_20  and  O_23
REMARK                            x       y       z     vdW  Elec       q    Type
REMARK                         _______ _______ _______ _____ _____    ______ ____
ROOT
ATOM      1  C   UNL     1       2.401   6.791  18.679  0.00  0.00    +0.000 C 
ATOM      2  C   UNL     1       1.623   5.442  18.774  0.00  0.00    +0.000 C 
ATOM      3  C   UNL     1       2.406   4.292  18.126  0.00  0.00    +0.000 C 
ATOM      4  C   UNL     1       3.897   4.280  18.590  0.00  0.00    +0.000 C 
ATOM      5  C   UNL     1       4.129   5.354  19.642  0.00  0.00    +0.000 C 
ATOM      6  N   UNL     1       3.846   6.532  18.851  0.00  0.00    +0.000 N 
ATOM      7  C   UNL     1       4.504   6.250  17.573  0.00  0.00    +0.000 C 
ATOM      8  O   UNL     1       4.632   7.033  16.645  0.00  0.00    +0.000 OA
ATOM      9  N   UNL     1       4.695   4.811  17.491  0.00  0.00    +0.000 N 
ENDROOT
BRANCH   1  17
ATOM     10  C   UNL     1       0.650   9.528  22.198  0.00  0.00    +0.000 C 
ATOM     11  N   UNL     1       0.627  10.390  21.048  0.00  0.00    +0.000 N 
ATOM     12  C   UNL     1       0.390  11.801  21.233  0.00  0.00    +0.000 C 
ATOM     13  C   UNL     1       0.125  12.229  19.792  0.00  0.00    +0.000 C 
ATOM     14  N   UNL     1       0.691  11.153  18.917  0.00  0.00    +0.000 NA
ATOM     15  C   UNL     1       0.887  10.143  19.732  0.00  0.00    +0.000 C 
ATOM     16  N   UNL     1       1.348   8.992  19.135  0.00  0.00    +0.000 N 
ATOM     17  C   UNL     1       1.703   7.762  19.656  0.00  0.00    +0.000 C 
ATOM     18  O   UNL     1       1.510   7.391  20.815  0.00  0.00    +0.000 OA
ATOM     19  H   UNL     1       1.473   9.106  18.136  0.00  0.00    +0.000 HD
ENDBRANCH   1  17
BRANCH   9  20
ATOM     20  O   UNL     1       6.091   4.579  17.812  0.00  0.00    +0.000 OA
BRANCH  20  21
ATOM     21  S   UNL     1       7.111   4.565  16.534  0.00  0.00    +0.000 S 
ATOM     22  O   UNL     1       8.402   4.070  16.953  0.00  0.00    +0.000 OA
ATOM     23  O   UNL     1       6.409   3.988  15.404  0.00  0.00    +0.000 OA
BRANCH  21  24
ATOM     24  O   UNL     1       7.353   6.120  16.173  0.00  0.00    +0.000 OA
ATOM     25  H   UNL     1       7.178   6.206  15.212  0.00  0.00    +0.000 HD
ENDBRANCH  21  24
ENDBRANCH  20  21
ENDBRANCH   9  20
TORSDOF 4
ENDMDL
MODEL 4
REMARK VINA RESULT:      -6.6      3.567      5.079
REMARK  Name = 
REMARK  5 active torsions:
REMARK  status: ('A' for Active; 'I' for Inactive)
REMARK    1  A    between atoms: C_1  and  N_2
REMARK    2  A    between atoms: C_8  and  C_10
REMARK    3  A    between atoms: N_18  and  O_19
REMARK    4  A    between atoms: O_19  and  S_20
REMARK    5  A    between atoms: S_20  and  O_23
REMARK                            x       y       z     vdW  Elec       q    Type
REMARK                         _______ _______ _______ _____ _____    ______ ____
ROOT
ATOM      1  C   UNL     1       5.209   5.561  17.501  0.00  0.00    +0.000 C 
ATOM      2  C   UNL     1       4.643   6.682  16.576  0.00  0.00    +0.000 C 
ATOM      3  C   UNL     1       5.313   6.666  15.195  0.00  0.00    +0.000 C 
ATOM      4  C   UNL     1       5.370   5.222  14.602  0.00  0.00    +0.000 C 
ATOM      5  C   UNL     1       4.644   4.249  15.518  0.00  0.00    +0.000 C 
ATOM      6  N   UNL     1       5.480   4.354  16.694  0.00  0.00    +0.000 N 
ATOM      7  C   UNL     1       6.839   4.361  16.145  0.00  0.00    +0.000 C 
ATOM      8  O   UNL     1       7.873   4.308  16.792  0.00  0.00    +0.000 OA
ATOM      9  N   UNL     1       6.741   4.749  14.747  0.00  0.00    +0.000 N 
ENDROOT
BRANCH   1  17
ATOM     10  C   UNL     1       1.776   5.663  20.840  0.00  0.00    +0.000 C 
ATOM     11  N   UNL     1       2.248   4.305  20.875  0.00  0.00    +0.000 N 
ATOM     12  C   UNL     1       1.491   3.316  21.602  0.00  0.00    +0.000 C 
ATOM     13  C   UNL     1       2.499   2.171  21.644  0.00  0.00    +0.000 C 
ATOM     14  N   UNL     1       3.500   2.444  20.563  0.00  0.00    +0.000 NA
ATOM     15  C   UNL     1       3.295   3.700  20.243  0.00  0.00    +0.000 C 
ATOM     16  N   UNL     1       4.158   4.210  19.299  0.00  0.00    +0.000 N 
ATOM     17  C   UNL     1       4.231   5.449  18.692  0.00  0.00    +0.000 C 
ATOM     18  O   UNL     1       3.590   6.448  19.020  0.00  0.00    +0.000 OA
ATOM     19  H   UNL     1       4.830   3.520  18.986  0.00  0.00    +0.000 HD
ENDBRANCH   1  17
BRANCH   9  20
ATOM     20  O   UNL     1       6.862   3.519  13.987  0.00  0.00    +0.000 OA
BRANCH  20  21
ATOM     21  S   UNL     1       6.632   3.668  12.374  0.00  0.00    +0.000 S 
ATOM     22  O   UNL     1       5.220   3.577  12.079  0.00  0.00    +0.000 OA
ATOM     23  O   UNL     1       7.433   4.781  11.905  0.00  0.00    +0.000 OA
BRANCH  21  24
ATOM     24  O   UNL     1       7.283   2.336  11.733  0.00  0.00    +0.000 OA
ATOM     25  H   UNL     1       7.302   2.484  10.764  0.00  0.00    +0.000 HD
ENDBRANCH  21  24
ENDBRANCH  20  21
ENDBRANCH   9  20
TORSDOF 4
ENDMDL
MODEL 5
REMARK VINA RESULT:      -6.6      4.351      7.964
REMARK  Name = 
REMARK  5 active torsions:
REMARK  status: ('A' for Active; 'I' for Inactive)
REMARK    1  A    between atoms: C_1  and  N_2
REMARK    2  A    between atoms: C_8  and  C_10
REMARK    3  A    between atoms: N_18  and  O_19
REMARK    4  A    between atoms: O_19  and  S_20
REMARK    5  A    between atoms: S_20  and  O_23
REMARK                            x       y       z     vdW  Elec       q    Type
REMARK                         _______ _______ _______ _____ _____    ______ ____
ROOT
ATOM      1  C   UNL     1       5.575   5.507  16.877  0.00  0.00    +0.000 C 
ATOM      2  C   UNL     1       6.779   5.543  17.868  0.00  0.00    +0.000 C 
ATOM      3  C   UNL     1       6.320   5.356  19.321  0.00  0.00    +0.000 C 
ATOM      4  C   UNL     1       5.328   4.158  19.460  0.00  0.00    +0.000 C 
ATOM      5  C   UNL     1       5.178   3.443  18.126  0.00  0.00    +0.000 C 
ATOM      6  N   UNL     1       4.590   4.510  17.344  0.00  0.00    +0.000 N 
ATOM      7  C   UNL     1       3.609   5.100  18.259  0.00  0.00    +0.000 C 
ATOM      8  O   UNL     1       2.787   5.956  17.972  0.00  0.00    +0.000 OA
ATOM      9  N   UNL     1       3.991   4.720  19.610  0.00  0.00    +0.000 N 
ENDROOT
BRANCH   1  17
ATOM     10  C   UNL     1       8.074   5.040  12.818  0.00  0.00    +0.000 C 
ATOM     11  N   UNL     1       6.929   4.195  12.616  0.00  0.00    +0.000 N 
ATOM     12  C   UNL     1       6.922   3.277  11.503  0.00  0.00    +0.000 C 
ATOM     13  C   UNL     1       5.452   2.866  11.491  0.00  0.00    +0.000 C 
ATOM     14  N   UNL     1       4.903   3.209  12.843  0.00  0.00    +0.000 NA
ATOM     15  C   UNL     1       5.805   4.008  13.364  0.00  0.00    +0.000 C 
ATOM     16  N   UNL     1       5.484   4.519  14.602  0.00  0.00    +0.000 N 
ATOM     17  C   UNL     1       6.180   5.343  15.466  0.00  0.00    +0.000 C 
ATOM     18  O   UNL     1       7.225   5.941  15.203  0.00  0.00    +0.000 OA
ATOM     19  H   UNL     1       4.585   4.188  14.929  0.00  0.00    +0.000 HD
ENDBRANCH   1  17
BRANCH   9  20
ATOM     20  O   UNL     1       3.101   3.637  19.982  0.00  0.00    +0.000 OA
BRANCH  20  21
ATOM     21  S   UNL     1       1.862   4.054  20.966  0.00  0.00    +0.000 S 
ATOM     22  O   UNL     1       0.616   3.952  20.242  0.00  0.00    +0.000 OA
ATOM     23  O   UNL     1       2.055   3.389  22.239  0.00  0.00    +0.000 OA
BRANCH  21  24
ATOM     24  O   UNL     1       2.060   5.633  21.242  0.00  0.00    +0.000 OA
ATOM     25  H   UNL     1       2.902   5.881  20.804  0.00  0.00    +0.000 HD
ENDBRANCH  21  24
ENDBRANCH  20  21
ENDBRANCH   9  20
TORSDOF 4
ENDMDL
MODEL 6
REMARK VINA RESULT:      -6.4      1.189      1.948
REMARK  Name = 
REMARK  5 active torsions:
REMARK  status: ('A' for Active; 'I' for Inactive)
REMARK    1  A    between atoms: C_1  and  N_2
REMARK    2  A    between atoms: C_8  and  C_10
REMARK    3  A    between atoms: N_18  and  O_19
REMARK    4  A    between atoms: O_19  and  S_20
REMARK    5  A    between atoms: S_20  and  O_23
REMARK                            x       y       z     vdW  Elec       q    Type
REMARK                         _______ _______ _______ _____ _____    ______ ____
ROOT
ATOM      1  C   UNL     1       2.329   6.839  18.674  0.00  0.00    +0.000 C 
ATOM      2  C   UNL     1       1.611   5.458  18.777  0.00  0.00    +0.000 C 
ATOM      3  C   UNL     1       2.401   4.356  18.057  0.00  0.00    +0.000 C 
ATOM      4  C   UNL     1       3.915   4.394  18.439  0.00  0.00    +0.000 C 
ATOM      5  C   UNL     1       4.162   5.451  19.505  0.00  0.00    +0.000 C 
ATOM      6  N   UNL     1       3.790   6.636  18.761  0.00  0.00    +0.000 N 
ATOM      7  C   UNL     1       4.387   6.411  17.442  0.00  0.00    +0.000 C 
ATOM      8  O   UNL     1       4.433   7.220  16.529  0.00  0.00    +0.000 OA
ATOM      9  N   UNL     1       4.630   4.983  17.313  0.00  0.00    +0.000 N 
ENDROOT
BRANCH   1  17
ATOM     10  C   UNL     1       0.660   9.410  22.355  0.00  0.00    +0.000 C 
ATOM     11  N   UNL     1       0.562  10.308  21.236  0.00  0.00    +0.000 N 
ATOM     12  C   UNL     1       0.295  11.705  21.478  0.00  0.00    +0.000 C 
ATOM     13  C   UNL     1      -0.045  12.171  20.065  0.00  0.00    +0.000 C 
ATOM     14  N   UNL     1       0.511  11.140  19.131  0.00  0.00    +0.000 NA
ATOM     15  C   UNL     1       0.771  10.111  19.903  0.00  0.00    +0.000 C 
ATOM     16  N   UNL     1       1.237   8.994  19.248  0.00  0.00    +0.000 N 
ATOM     17  C   UNL     1       1.648   7.758  19.712  0.00  0.00    +0.000 C 
ATOM     18  O   UNL     1       1.517   7.344  20.865  0.00  0.00    +0.000 OA
ATOM     19  H   UNL     1       1.315   9.143  18.249  0.00  0.00    +0.000 HD
ENDBRANCH   1  17
BRANCH   9  20
ATOM     20  O   UNL     1       6.049   4.801  17.552  0.00  0.00    +0.000 OA
BRANCH  20  21
ATOM     21  S   UNL     1       6.949   4.488  16.222  0.00  0.00    +0.000 S 
ATOM     22  O   UNL     1       6.765   5.547  15.256  0.00  0.00    +0.000 OA
ATOM     23  O   UNL     1       8.270   4.082  16.658  0.00  0.00    +0.000 OA
BRANCH  21  24
ATOM     24  O   UNL     1       6.269   3.185  15.553  0.00  0.00    +0.000 OA
ATOM     25  H   UNL     1       6.238   3.362  14.588  0.00  0.00    +0.000 HD
ENDBRANCH  21  24
ENDBRANCH  20  21
ENDBRANCH   9  20
TORSDOF 4
ENDMDL
MODEL 7
REMARK VINA RESULT:      -6.4      4.380      8.104
REMARK  Name = 
REMARK  5 active torsions:
REMARK  status: ('A' for Active; 'I' for Inactive)
REMARK    1  A    between atoms: C_1  and  N_2
REMARK    2  A    between atoms: C_8  and  C_10
REMARK    3  A    between atoms: N_18  and  O_19
REMARK    4  A    between atoms: O_19  and  S_20
REMARK    5  A    between atoms: S_20  and  O_23
REMARK                            x       y       z     vdW  Elec       q    Type
REMARK                         _______ _______ _______ _____ _____    ______ ____
ROOT
ATOM      1  C   UNL     1       4.541   5.240  16.173  0.00  0.00    +0.000 C 
ATOM      2  C   UNL     1       4.925   6.580  16.872  0.00  0.00    +0.000 C 
ATOM      3  C   UNL     1       4.319   6.676  18.280  0.00  0.00    +0.000 C 
ATOM      4  C   UNL     1       4.552   5.364  19.094  0.00  0.00    +0.000 C 
ATOM      5  C   UNL     1       5.411   4.395  18.296  0.00  0.00    +0.000 C 
ATOM      6  N   UNL     1       4.527   4.155  17.176  0.00  0.00    +0.000 N 
ATOM      7  C   UNL     1       3.211   4.013  17.805  0.00  0.00    +0.000 C 
ATOM      8  O   UNL     1       2.182   3.672  17.244  0.00  0.00    +0.000 OA
ATOM      9  N   UNL     1       3.287   4.639  19.115  0.00  0.00    +0.000 N 
ENDROOT
BRANCH   1  17
ATOM     10  C   UNL     1       7.962   5.001  12.828  0.00  0.00    +0.000 C 
ATOM     11  N   UNL     1       7.055   3.946  12.468  0.00  0.00    +0.000 N 
ATOM     12  C   UNL     1       7.462   2.976  11.481  0.00  0.00    +0.000 C 
ATOM     13  C   UNL     1       6.126   2.298  11.190  0.00  0.00    +0.000 C 
ATOM     14  N   UNL     1       5.227   2.615  12.346  0.00  0.00    +0.000 NA
ATOM     15  C   UNL     1       5.834   3.598  12.968  0.00  0.00    +0.000 C 
ATOM     16  N   UNL     1       5.153   4.115  14.046  0.00  0.00    +0.000 N 
ATOM     17  C   UNL     1       5.479   5.106  14.953  0.00  0.00    +0.000 C 
ATOM     18  O   UNL     1       6.440   5.872  14.865  0.00  0.00    +0.000 OA
ATOM     19  H   UNL     1       4.270   3.643  14.201  0.00  0.00    +0.000 HD
ENDBRANCH   1  17
BRANCH   9  20
ATOM     20  O   UNL     1       3.422   3.551  20.065  0.00  0.00    +0.000 OA
BRANCH  20  21
ATOM     21  S   UNL     1       2.044   3.113  20.830  0.00  0.00    +0.000 S 
ATOM     22  O   UNL     1       1.413   2.034  20.105  0.00  0.00    +0.000 OA
ATOM     23  O   UNL     1       2.329   3.008  22.247  0.00  0.00    +0.000 OA
BRANCH  21  24
ATOM     24  O   UNL     1       1.050   4.374  20.657  0.00  0.00    +0.000 OA
ATOM     25  H   UNL     1       1.617   5.173  20.698  0.00  0.00    +0.000 HD
ENDBRANCH  21  24
ENDBRANCH  20  21
ENDBRANCH   9  20
TORSDOF 4
ENDMDL
MODEL 8
REMARK VINA RESULT:      -6.4      2.283      2.802
REMARK  Name = 
REMARK  5 active torsions:
REMARK  status: ('A' for Active; 'I' for Inactive)
REMARK    1  A    between atoms: C_1  and  N_2
REMARK    2  A    between atoms: C_8  and  C_10
REMARK    3  A    between atoms: N_18  and  O_19
REMARK    4  A    between atoms: O_19  and  S_20
REMARK    5  A    between atoms: S_20  and  O_23
REMARK                            x       y       z     vdW  Elec       q    Type
REMARK                         _______ _______ _______ _____ _____    ______ ____
ROOT
ATOM      1  C   UNL     1       2.827   6.869  18.284  0.00  0.00    +0.000 C 
ATOM      2  C   UNL     1       1.654   5.956  17.810  0.00  0.00    +0.000 C 
ATOM      3  C   UNL     1       2.087   4.487  17.709  0.00  0.00    +0.000 C 
ATOM      4  C   UNL     1       2.866   4.030  18.984  0.00  0.00    +0.000 C 
ATOM      5  C   UNL     1       2.883   5.146  20.018  0.00  0.00    +0.000 C 
ATOM      6  N   UNL     1       3.635   6.143  19.286  0.00  0.00    +0.000 N 
ATOM      7  C   UNL     1       4.708   5.366  18.659  0.00  0.00    +0.000 C 
ATOM      8  O   UNL     1       5.660   5.825  18.047  0.00  0.00    +0.000 OA
ATOM      9  N   UNL     1       4.280   3.977  18.630  0.00  0.00    +0.000 N 
ENDROOT
BRANCH   1  17
ATOM     10  C   UNL     1       0.640  11.090  18.866  0.00  0.00    +0.000 C 
ATOM     11  N   UNL     1       0.423  10.416  20.117  0.00  0.00    +0.000 N 
ATOM     12  C   UNL     1      -0.531  10.960  21.052  0.00  0.00    +0.000 C 
ATOM     13  C   UNL     1      -0.188  10.152  22.301  0.00  0.00    +0.000 C 
ATOM     14  N   UNL     1       0.568   8.945  21.833  0.00  0.00    +0.000 NA
ATOM     15  C   UNL     1       0.906   9.235  20.598  0.00  0.00    +0.000 C 
ATOM     16  N   UNL     1       1.682   8.287  19.969  0.00  0.00    +0.000 N 
ATOM     17  C   UNL     1       2.190   8.217  18.686  0.00  0.00    +0.000 C 
ATOM     18  O   UNL     1       2.173   9.128  17.856  0.00  0.00    +0.000 OA
ATOM     19  H   UNL     1       1.872   7.493  20.568  0.00  0.00    +0.000 HD
ENDBRANCH   1  17
BRANCH   9  20
ATOM     20  O   UNL     1       4.979   3.325  19.721  0.00  0.00    +0.000 OA
BRANCH  20  21
ATOM     21  S   UNL     1       4.348   1.895  20.202  0.00  0.00    +0.000 S 
ATOM     22  O   UNL     1       3.579   2.090  21.411  0.00  0.00    +0.000 OA
ATOM     23  O   UNL     1       3.779   1.240  19.041  0.00  0.00    +0.000 OA
BRANCH  21  24
ATOM     24  O   UNL     1       5.619   1.005  20.651  0.00  0.00    +0.000 OA
ATOM     25  H   UNL     1       5.812   1.258  21.579  0.00  0.00    +0.000 HD
ENDBRANCH  21  24
ENDBRANCH  20  21
ENDBRANCH   9  20
TORSDOF 4
ENDMDL
MODEL 9
REMARK VINA RESULT:      -6.2      1.476      2.160
REMARK  Name = 
REMARK  5 active torsions:
REMARK  status: ('A' for Active; 'I' for Inactive)
REMARK    1  A    between atoms: C_1  and  N_2
REMARK    2  A    between atoms: C_8  and  C_10
REMARK    3  A    between atoms: N_18  and  O_19
REMARK    4  A    between atoms: O_19  and  S_20
REMARK    5  A    between atoms: S_20  and  O_23
REMARK                            x       y       z     vdW  Elec       q    Type
REMARK                         _______ _______ _______ _____ _____    ______ ____
ROOT
ATOM      1  C   UNL     1       2.489   7.514  17.901  0.00  0.00    +0.000 C 
ATOM      2  C   UNL     1       1.570   6.294  18.214  0.00  0.00    +0.000 C 
ATOM      3  C   UNL     1       2.259   4.966  17.869  0.00  0.00    +0.000 C 
ATOM      4  C   UNL     1       3.716   4.914  18.427  0.00  0.00    +0.000 C 
ATOM      5  C   UNL     1       4.008   6.157  19.253  0.00  0.00    +0.000 C 
ATOM      6  N   UNL     1       3.888   7.166  18.221  0.00  0.00    +0.000 N 
ATOM      7  C   UNL     1       4.575   6.562  17.076  0.00  0.00    +0.000 C 
ATOM      8  O   UNL     1       4.829   7.119  16.019  0.00  0.00    +0.000 OA
ATOM      9  N   UNL     1       4.618   5.127  17.301  0.00  0.00    +0.000 N 
ENDROOT
BRANCH   1  17
ATOM     10  C   UNL     1       0.591  10.918  20.686  0.00  0.00    +0.000 C 
ATOM     11  N   UNL     1       1.287  11.656  19.668  0.00  0.00    +0.000 N 
ATOM     12  C   UNL     1       1.489  13.073  19.843  0.00  0.00    +0.000 C 
ATOM     13  C   UNL     1       1.938  13.465  18.437  0.00  0.00    +0.000 C 
ATOM     14  N   UNL     1       2.390  12.203  17.767  0.00  0.00    +0.000 NA
ATOM     15  C   UNL     1       1.917  11.245  18.530  0.00  0.00    +0.000 C 
ATOM     16  N   UNL     1       2.150   9.968  18.074  0.00  0.00    +0.000 N 
ATOM     17  C   UNL     1       1.850   8.729  18.608  0.00  0.00    +0.000 C 
ATOM     18  O   UNL     1       1.128   8.525  19.586  0.00  0.00    +0.000 OA
ATOM     19  H   UNL     1       2.667   9.963  17.203  0.00  0.00    +0.000 HD
ENDBRANCH   1  17
BRANCH   9  20
ATOM     20  O   UNL     1       5.964   4.839  17.759  0.00  0.00    +0.000 OA
BRANCH  20  21
ATOM     21  S   UNL     1       7.058   4.549  16.578  0.00  0.00    +0.000 S 
ATOM     22  O   UNL     1       8.290   4.077  17.167  0.00  0.00    +0.000 OA
ATOM     23  O   UNL     1       6.395   3.813  15.520  0.00  0.00    +0.000 OA
BRANCH  21  24
ATOM     24  O   UNL     1       7.413   6.002  15.969  0.00  0.00    +0.000 OA
ATOM     25  H   UNL     1       7.065   6.004  15.052  0.00  0.00    +0.000 HD
ENDBRANCH  21  24
ENDBRANCH  20  21
ENDBRANCH   9  20
TORSDOF 4
ENDMDL
