MODEL 1
REMARK VINA RESULT:      -6.3      0.000      0.000
REMARK  Name = 
REMARK  6 active torsions:
REMARK  status: ('A' for Active; 'I' for Inactive)
REMARK    1  A    between atoms: C_1  and  O_2
REMARK    2  A    between atoms: O_2  and  C_3
REMARK    3  A    between atoms: C_3  and  C_5
REMARK    4  A    between atoms: C_7  and  C_8
REMARK    5  A    between atoms: C_16  and  C_24
REMARK    6  A    between atoms: N_17  and  C_18
REMARK                            x       y       z     vdW  Elec       q    Type
REMARK                         _______ _______ _______ _____ _____    ______ ____
ROOT
ATOM      1  C   UNL     1       0.096  10.583  22.330  0.00  0.00    +0.000 A 
ATOM      2  C   UNL     1      -1.234  10.638  22.771  0.00  0.00    +0.000 A 
ATOM      3  C   UNL     1      -1.717  11.913  22.498  0.00  0.00    +0.000 A 
ATOM      4  N   UNL     1      -0.648  12.575  21.866  0.00  0.00    +0.000 N 
ATOM      5  C   UNL     1      -0.415  13.880  21.314  0.00  0.00    +0.000 C 
ATOM      6  N   UNL     1      -0.952  15.006  21.692  0.00  0.00    +0.000 NA
ATOM      7  N   UNL     1       0.445  11.753  21.799  0.00  0.00    +0.000 NA
ENDROOT
BRANCH   3   8
ATOM      8  C   UNL     1      -3.097  12.344  22.800  0.00  0.00    +0.000 A 
ATOM      9  C   UNL     1      -3.508  12.344  24.151  0.00  0.00    +0.000 A 
ATOM     10  C   UNL     1      -4.817  12.658  24.527  0.00  0.00    +0.000 A 
ATOM     11  C   UNL     1      -5.740  12.998  23.549  0.00  0.00    +0.000 A 
ATOM     12 CL   UNL     1      -7.342  13.422  24.001  0.00  0.00    +0.000 Cl
ATOM     13  C   UNL     1      -5.363  12.989  22.204  0.00  0.00    +0.000 A 
ATOM     14  C   UNL     1      -4.053  12.649  21.829  0.00  0.00    +0.000 A 
ENDBRANCH   3   8
BRANCH   6  15
ATOM     15  C   UNL     1      -1.593  15.262  22.899  0.00  0.00    +0.000 A 
ATOM     16  C   UNL     1      -0.947  15.120  24.131  0.00  0.00    +0.000 A 
ATOM     17  C   UNL     1      -1.569  15.532  25.311  0.00  0.00    +0.000 A 
ATOM     18  C   UNL     1      -2.820  16.141  25.258  0.00  0.00    +0.000 A 
ATOM     19  C   UNL     1      -3.449  16.336  24.031  0.00  0.00    +0.000 A 
ATOM     20  C   UNL     1      -2.836  15.898  22.859  0.00  0.00    +0.000 A 
ENDBRANCH   6  15
BRANCH   5  21
ATOM     21  C   UNL     1       0.679  14.060  20.267  0.00  0.00    +0.000 A 
ATOM     22  C   UNL     1       0.609  13.465  19.002  0.00  0.00    +0.000 A 
ATOM     23  C   UNL     1       1.722  13.477  18.154  0.00  0.00    +0.000 A 
ATOM     24  C   UNL     1       2.899  14.112  18.552  0.00  0.00    +0.000 A 
ATOM     25  C   UNL     1       2.961  14.757  19.784  0.00  0.00    +0.000 A 
ATOM     26  C   UNL     1       1.856  14.734  20.639  0.00  0.00    +0.000 A 
ENDBRANCH   5  21
BRANCH   1  27
ATOM     27  C   UNL     1       1.001   9.434  22.403  0.00  0.00    +0.000 C 
ATOM     28  O   UNL     1       1.989   9.408  23.130  0.00  0.00    +0.000 OA
BRANCH  27  30
ATOM     29  C   UNL     1       1.528   8.122  20.522  0.00  0.00    +0.000 C 
ATOM     30  O   UNL     1       0.621   8.408  21.584  0.00  0.00    +0.000 OA
ENDBRANCH  27  30
ENDBRANCH   1  27
TORSDOF 5
ENDMDL
MODEL 2
REMARK VINA RESULT:      -6.0      8.572     10.711
REMARK  Name = 
REMARK  6 active torsions:
REMARK  status: ('A' for Active; 'I' for Inactive)
REMARK    1  A    between atoms: C_1  and  O_2
REMARK    2  A    between atoms: O_2  and  C_3
REMARK    3  A    between atoms: C_3  and  C_5
REMARK    4  A    between atoms: C_7  and  C_8
REMARK    5  A    between atoms: C_16  and  C_24
REMARK    6  A    between atoms: N_17  and  C_18
REMARK                            x       y       z     vdW  Elec       q    Type
REMARK                         _______ _______ _______ _____ _____    ______ ____
ROOT
ATOM      1  C   UNL     1       7.376  15.676  19.970  0.00  0.00    +0.000 A 
ATOM      2  C   UNL     1       7.217  16.173  21.271  0.00  0.00    +0.000 A 
ATOM      3  C   UNL     1       7.848  15.291  22.141  0.00  0.00    +0.000 A 
ATOM      4  N   UNL     1       8.397  14.297  21.310  0.00  0.00    +0.000 N 
ATOM      5  C   UNL     1       9.168  13.099  21.491  0.00  0.00    +0.000 C 
ATOM      6  N   UNL     1       9.154  12.298  22.520  0.00  0.00    +0.000 NA
ATOM      7  N   UNL     1       8.075  14.543  20.002  0.00  0.00    +0.000 NA
ENDROOT
BRANCH   3   8
ATOM      8  C   UNL     1       7.913  15.493  23.602  0.00  0.00    +0.000 A 
ATOM      9  C   UNL     1       6.700  15.477  24.326  0.00  0.00    +0.000 A 
ATOM     10  C   UNL     1       6.653  15.738  25.698  0.00  0.00    +0.000 A 
ATOM     11  C   UNL     1       7.831  16.005  26.378  0.00  0.00    +0.000 A 
ATOM     12 CL   UNL     1       7.791  16.292  28.071  0.00  0.00    +0.000 Cl
ATOM     13  C   UNL     1       9.042  16.044  25.683  0.00  0.00    +0.000 A 
ATOM     14  C   UNL     1       9.082  15.805  24.299  0.00  0.00    +0.000 A 
ENDBRANCH   3   8
BRANCH   6  15
ATOM     15  C   UNL     1       8.175  12.220  23.505  0.00  0.00    +0.000 A 
ATOM     16  C   UNL     1       6.850  11.881  23.214  0.00  0.00    +0.000 A 
ATOM     17  C   UNL     1       5.930  11.662  24.241  0.00  0.00    +0.000 A 
ATOM     18  C   UNL     1       6.346  11.726  25.568  0.00  0.00    +0.000 A 
ATOM     19  C   UNL     1       7.676  12.011  25.868  0.00  0.00    +0.000 A 
ATOM     20  C   UNL     1       8.584  12.256  24.839  0.00  0.00    +0.000 A 
ENDBRANCH   6  15
BRANCH   5  21
ATOM     21  C   UNL     1      10.004  12.569  20.332  0.00  0.00    +0.000 A 
ATOM     22  C   UNL     1      11.202  13.175  19.935  0.00  0.00    +0.000 A 
ATOM     23  C   UNL     1      11.825  12.792  18.743  0.00  0.00    +0.000 A 
ATOM     24  C   UNL     1      11.272  11.780  17.956  0.00  0.00    +0.000 A 
ATOM     25  C   UNL     1      10.112  11.131  18.370  0.00  0.00    +0.000 A 
ATOM     26  C   UNL     1       9.480  11.521  19.554  0.00  0.00    +0.000 A 
ENDBRANCH   5  21
BRANCH   1  27
ATOM     27  C   UNL     1       6.884  16.280  18.729  0.00  0.00    +0.000 C 
ATOM     28  O   UNL     1       6.778  17.493  18.575  0.00  0.00    +0.000 OA
BRANCH  27  30
ATOM     29  C   UNL     1       5.223  14.881  17.825  0.00  0.00    +0.000 C 
ATOM     30  O   UNL     1       6.568  15.352  17.778  0.00  0.00    +0.000 OA
ENDBRANCH  27  30
ENDBRANCH   1  27
TORSDOF 5
ENDMDL
MODEL 3
REMARK VINA RESULT:      -6.0      0.512      1.012
REMARK  Name = 
REMARK  6 active torsions:
REMARK  status: ('A' for Active; 'I' for Inactive)
REMARK    1  A    between atoms: C_1  and  O_2
REMARK    2  A    between atoms: O_2  and  C_3
REMARK    3  A    between atoms: C_3  and  C_5
REMARK    4  A    between atoms: C_7  and  C_8
REMARK    5  A    between atoms: C_16  and  C_24
REMARK    6  A    between atoms: N_17  and  C_18
REMARK                            x       y       z     vdW  Elec       q    Type
REMARK                         _______ _______ _______ _____ _____    ______ ____
ROOT
ATOM      1  C   UNL     1       0.013  10.728  22.289  0.00  0.00    +0.000 A 
ATOM      2  C   UNL     1      -1.338  10.742  22.663  0.00  0.00    +0.000 A 
ATOM      3  C   UNL     1      -1.805  12.044  22.508  0.00  0.00    +0.000 A 
ATOM      4  N   UNL     1      -0.704  12.764  22.009  0.00  0.00    +0.000 N 
ATOM      5  C   UNL     1      -0.441  14.120  21.617  0.00  0.00    +0.000 C 
ATOM      6  N   UNL     1      -0.996  15.201  22.088  0.00  0.00    +0.000 NA
ATOM      7  N   UNL     1       0.390  11.947  21.909  0.00  0.00    +0.000 NA
ENDROOT
BRANCH   3   8
ATOM      8  C   UNL     1      -3.198  12.447  22.784  0.00  0.00    +0.000 A 
ATOM      9  C   UNL     1      -3.660  12.361  24.116  0.00  0.00    +0.000 A 
ATOM     10  C   UNL     1      -4.984  12.645  24.460  0.00  0.00    +0.000 A 
ATOM     11  C   UNL     1      -5.872  13.040  23.471  0.00  0.00    +0.000 A 
ATOM     12 CL   UNL     1      -7.494  13.427  23.887  0.00  0.00    +0.000 Cl
ATOM     13  C   UNL     1      -5.445  13.117  22.143  0.00  0.00    +0.000 A 
ATOM     14  C   UNL     1      -4.120  12.807  21.798  0.00  0.00    +0.000 A 
ENDBRANCH   3   8
BRANCH   6  15
ATOM     15  C   UNL     1      -1.699  15.327  23.281  0.00  0.00    +0.000 A 
ATOM     16  C   UNL     1      -1.106  15.090  24.525  0.00  0.00    +0.000 A 
ATOM     17  C   UNL     1      -1.794  15.374  25.706  0.00  0.00    +0.000 A 
ATOM     18  C   UNL     1      -3.060  15.951  25.649  0.00  0.00    +0.000 A 
ATOM     19  C   UNL     1      -3.638  16.241  24.415  0.00  0.00    +0.000 A 
ATOM     20  C   UNL     1      -2.958  15.929  23.239  0.00  0.00    +0.000 A 
ENDBRANCH   6  15
BRANCH   5  21
ATOM     21  C   UNL     1       0.706  14.407  20.654  0.00  0.00    +0.000 A 
ATOM     22  C   UNL     1       1.903  15.000  21.071  0.00  0.00    +0.000 A 
ATOM     23  C   UNL     1       2.839  15.439  20.128  0.00  0.00    +0.000 A 
ATOM     24  C   UNL     1       2.599  15.259  18.766  0.00  0.00    +0.000 A 
ATOM     25  C   UNL     1       1.437  14.618  18.342  0.00  0.00    +0.000 A 
ATOM     26  C   UNL     1       0.494  14.191  19.281  0.00  0.00    +0.000 A 
ENDBRANCH   5  21
BRANCH   1  27
ATOM     27  C   UNL     1       0.913   9.571  22.282  0.00  0.00    +0.000 C 
ATOM     28  O   UNL     1       1.836   9.440  23.079  0.00  0.00    +0.000 OA
BRANCH  27  30
ATOM     29  C   UNL     1       1.143   8.971  20.019  0.00  0.00    +0.000 C 
ATOM     30  O   UNL     1       0.605   8.669  21.304  0.00  0.00    +0.000 OA
ENDBRANCH  27  30
ENDBRANCH   1  27
TORSDOF 5
ENDMDL
MODEL 4
REMARK VINA RESULT:      -5.8      8.239     10.384
REMARK  Name = 
REMARK  6 active torsions:
REMARK  status: ('A' for Active; 'I' for Inactive)
REMARK    1  A    between atoms: C_1  and  O_2
REMARK    2  A    between atoms: O_2  and  C_3
REMARK    3  A    between atoms: C_3  and  C_5
REMARK    4  A    between atoms: C_7  and  C_8
REMARK    5  A    between atoms: C_16  and  C_24
REMARK    6  A    between atoms: N_17  and  C_18
REMARK                            x       y       z     vdW  Elec       q    Type
REMARK                         _______ _______ _______ _____ _____    ______ ____
ROOT
ATOM      1  C   UNL     1       6.784  15.691  20.164  0.00  0.00    +0.000 A 
ATOM      2  C   UNL     1       6.592  16.174  21.466  0.00  0.00    +0.000 A 
ATOM      3  C   UNL     1       7.328  15.367  22.328  0.00  0.00    +0.000 A 
ATOM      4  N   UNL     1       7.968  14.435  21.490  0.00  0.00    +0.000 N 
ATOM      5  C   UNL     1       8.865  13.327  21.663  0.00  0.00    +0.000 C 
ATOM      6  N   UNL     1       8.953  12.534  22.694  0.00  0.00    +0.000 NA
ATOM      7  N   UNL     1       7.602  14.640  20.188  0.00  0.00    +0.000 NA
ENDROOT
BRANCH   3   8
ATOM      8  C   UNL     1       7.392  15.581  23.788  0.00  0.00    +0.000 A 
ATOM      9  C   UNL     1       6.205  15.412  24.533  0.00  0.00    +0.000 A 
ATOM     10  C   UNL     1       6.149  15.669  25.906  0.00  0.00    +0.000 A 
ATOM     11  C   UNL     1       7.295  16.088  26.564  0.00  0.00    +0.000 A 
ATOM     12 CL   UNL     1       7.249  16.372  28.258  0.00  0.00    +0.000 Cl
ATOM     13  C   UNL     1       8.479  16.279  25.847  0.00  0.00    +0.000 A 
ATOM     14  C   UNL     1       8.524  16.043  24.463  0.00  0.00    +0.000 A 
ENDBRANCH   3   8
BRANCH   6  15
ATOM     15  C   UNL     1       8.003  12.355  23.693  0.00  0.00    +0.000 A 
ATOM     16  C   UNL     1       6.728  11.846  23.428  0.00  0.00    +0.000 A 
ATOM     17  C   UNL     1       5.855  11.536  24.472  0.00  0.00    +0.000 A 
ATOM     18  C   UNL     1       6.275  11.679  25.792  0.00  0.00    +0.000 A 
ATOM     19  C   UNL     1       7.562  12.136  26.068  0.00  0.00    +0.000 A 
ATOM     20  C   UNL     1       8.419  12.470  25.021  0.00  0.00    +0.000 A 
ENDBRANCH   6  15
BRANCH   5  21
ATOM     21  C   UNL     1       9.736  12.886  20.492  0.00  0.00    +0.000 A 
ATOM     22  C   UNL     1       9.427  11.768  19.708  0.00  0.00    +0.000 A 
ATOM     23  C   UNL     1      10.356  11.275  18.787  0.00  0.00    +0.000 A 
ATOM     24  C   UNL     1      11.585  11.913  18.619  0.00  0.00    +0.000 A 
ATOM     25  C   UNL     1      11.881  13.060  19.352  0.00  0.00    +0.000 A 
ATOM     26  C   UNL     1      10.960  13.547  20.284  0.00  0.00    +0.000 A 
ENDBRANCH   5  21
BRANCH   1  27
ATOM     27  C   UNL     1       6.212  16.235  18.930  0.00  0.00    +0.000 C 
ATOM     28  O   UNL     1       6.074  17.438  18.732  0.00  0.00    +0.000 OA
BRANCH  27  30
ATOM     29  C   UNL     1       4.469  15.201  17.735  0.00  0.00    +0.000 C 
ATOM     30  O   UNL     1       5.860  15.262  18.037  0.00  0.00    +0.000 OA
ENDBRANCH  27  30
ENDBRANCH   1  27
TORSDOF 5
ENDMDL
MODEL 5
REMARK VINA RESULT:      -5.8      8.278     10.505
REMARK  Name = 
REMARK  6 active torsions:
REMARK  status: ('A' for Active; 'I' for Inactive)
REMARK    1  A    between atoms: C_1  and  O_2
REMARK    2  A    between atoms: O_2  and  C_3
REMARK    3  A    between atoms: C_3  and  C_5
REMARK    4  A    between atoms: C_7  and  C_8
REMARK    5  A    between atoms: C_16  and  C_24
REMARK    6  A    between atoms: N_17  and  C_18
REMARK                            x       y       z     vdW  Elec       q    Type
REMARK                         _______ _______ _______ _____ _____    ______ ____
ROOT
ATOM      1  C   UNL     1       7.066  15.163  19.822  0.00  0.00    +0.000 A 
ATOM      2  C   UNL     1       6.762  15.769  21.049  0.00  0.00    +0.000 A 
ATOM      3  C   UNL     1       7.456  15.085  22.042  0.00  0.00    +0.000 A 
ATOM      4  N   UNL     1       8.186  14.097  21.354  0.00  0.00    +0.000 N 
ATOM      5  C   UNL     1       9.102  13.049  21.706  0.00  0.00    +0.000 C 
ATOM      6  N   UNL     1       9.137  12.369  22.818  0.00  0.00    +0.000 NA
ATOM      7  N   UNL     1       7.911  14.153  20.014  0.00  0.00    +0.000 NA
ENDROOT
BRANCH   3   8
ATOM      8  C   UNL     1       7.405  15.450  23.471  0.00  0.00    +0.000 A 
ATOM      9  C   UNL     1       8.607  15.850  24.095  0.00  0.00    +0.000 A 
ATOM     10  C   UNL     1       8.672  16.138  25.461  0.00  0.00    +0.000 A 
ATOM     11  C   UNL     1       7.522  16.044  26.229  0.00  0.00    +0.000 A 
ATOM     12 CL   UNL     1       7.581  16.429  27.903  0.00  0.00    +0.000 Cl
ATOM     13  C   UNL     1       6.323  15.634  25.640  0.00  0.00    +0.000 A 
ATOM     14  C   UNL     1       6.268  15.323  24.272  0.00  0.00    +0.000 A 
ENDBRANCH   3   8
BRANCH   6  15
ATOM     15  C   UNL     1       8.122  12.258  23.761  0.00  0.00    +0.000 A 
ATOM     16  C   UNL     1       6.851  11.771  23.436  0.00  0.00    +0.000 A 
ATOM     17  C   UNL     1       5.906  11.528  24.433  0.00  0.00    +0.000 A 
ATOM     18  C   UNL     1       6.246  11.716  25.770  0.00  0.00    +0.000 A 
ATOM     19  C   UNL     1       7.526  12.150  26.109  0.00  0.00    +0.000 A 
ATOM     20  C   UNL     1       8.457  12.418  25.107  0.00  0.00    +0.000 A 
ENDBRANCH   6  15
BRANCH   5  21
ATOM     21  C   UNL     1      10.071  12.523  20.653  0.00  0.00    +0.000 A 
ATOM     22  C   UNL     1      11.224  13.224  20.280  0.00  0.00    +0.000 A 
ATOM     23  C   UNL     1      11.967  12.818  19.167  0.00  0.00    +0.000 A 
ATOM     24  C   UNL     1      11.583  11.690  18.440  0.00  0.00    +0.000 A 
ATOM     25  C   UNL     1      10.470  10.952  18.836  0.00  0.00    +0.000 A 
ATOM     26  C   UNL     1       9.717  11.364  19.939  0.00  0.00    +0.000 A 
ENDBRANCH   5  21
BRANCH   1  27
ATOM     27  C   UNL     1       6.570  15.554  18.500  0.00  0.00    +0.000 C 
ATOM     28  O   UNL     1       7.239  15.442  17.477  0.00  0.00    +0.000 OA
BRANCH  27  30
ATOM     29  C   UNL     1       4.336  15.271  17.820  0.00  0.00    +0.000 C 
ATOM     30  O   UNL     1       5.295  16.044  18.537  0.00  0.00    +0.000 OA
ENDBRANCH  27  30
ENDBRANCH   1  27
TORSDOF 5
ENDMDL
MODEL 6
REMARK VINA RESULT:      -5.8      3.670      6.916
REMARK  Name = 
REMARK  6 active torsions:
REMARK  status: ('A' for Active; 'I' for Inactive)
REMARK    1  A    between atoms: C_1  and  O_2
REMARK    2  A    between atoms: O_2  and  C_3
REMARK    3  A    between atoms: C_3  and  C_5
REMARK    4  A    between atoms: C_7  and  C_8
REMARK    5  A    between atoms: C_16  and  C_24
REMARK    6  A    between atoms: N_17  and  C_18
REMARK                            x       y       z     vdW  Elec       q    Type
REMARK                         _______ _______ _______ _____ _____    ______ ____
ROOT
ATOM      1  C   UNL     1       0.405  11.483  18.837  0.00  0.00    +0.000 A 
ATOM      2  C   UNL     1       1.598  12.170  18.572  0.00  0.00    +0.000 A 
ATOM      3  C   UNL     1       1.562  13.368  19.277  0.00  0.00    +0.000 A 
ATOM      4  N   UNL     1       0.340  13.338  19.974  0.00  0.00    +0.000 N 
ATOM      5  C   UNL     1      -0.360  14.204  20.881  0.00  0.00    +0.000 C 
ATOM      6  N   UNL     1      -0.308  15.506  20.931  0.00  0.00    +0.000 NA
ATOM      7  N   UNL     1      -0.351  12.196  19.671  0.00  0.00    +0.000 NA
ENDROOT
BRANCH   3   8
ATOM      8  C   UNL     1       2.661  14.354  19.265  0.00  0.00    +0.000 A 
ATOM      9  C   UNL     1       2.958  14.997  18.043  0.00  0.00    +0.000 A 
ATOM     10  C   UNL     1       4.029  15.885  17.915  0.00  0.00    +0.000 A 
ATOM     11  C   UNL     1       4.819  16.159  19.021  0.00  0.00    +0.000 A 
ATOM     12 CL   UNL     1       6.117  17.276  18.885  0.00  0.00    +0.000 Cl
ATOM     13  C   UNL     1       4.557  15.523  20.237  0.00  0.00    +0.000 A 
ATOM     14  C   UNL     1       3.494  14.614  20.355  0.00  0.00    +0.000 A 
ENDBRANCH   3   8
BRANCH   6  15
ATOM     15  C   UNL     1       0.149  16.362  19.935  0.00  0.00    +0.000 A 
ATOM     16  C   UNL     1      -0.452  16.429  18.674  0.00  0.00    +0.000 A 
ATOM     17  C   UNL     1      -0.067  17.405  17.754  0.00  0.00    +0.000 A 
ATOM     18  C   UNL     1       0.884  18.357  18.111  0.00  0.00    +0.000 A 
ATOM     19  C   UNL     1       1.451  18.332  19.383  0.00  0.00    +0.000 A 
ATOM     20  C   UNL     1       1.083  17.338  20.288  0.00  0.00    +0.000 A 
ENDBRANCH   6  15
BRANCH   5  21
ATOM     21  C   UNL     1      -1.407  13.611  21.817  0.00  0.00    +0.000 A 
ATOM     22  C   UNL     1      -1.114  12.568  22.703  0.00  0.00    +0.000 A 
ATOM     23  C   UNL     1      -2.144  11.913  23.386  0.00  0.00    +0.000 A 
ATOM     24  C   UNL     1      -3.469  12.316  23.212  0.00  0.00    +0.000 A 
ATOM     25  C   UNL     1      -3.766  13.389  22.377  0.00  0.00    +0.000 A 
ATOM     26  C   UNL     1      -2.741  14.037  21.683  0.00  0.00    +0.000 A 
ENDBRANCH   5  21
BRANCH   1  27
ATOM     27  C   UNL     1       0.008  10.172  18.318  0.00  0.00    +0.000 C 
ATOM     28  O   UNL     1       0.818   9.342  17.916  0.00  0.00    +0.000 OA
BRANCH  27  30
ATOM     29  C   UNL     1      -1.994  10.165  17.084  0.00  0.00    +0.000 C 
ATOM     30  O   UNL     1      -1.344   9.982  18.340  0.00  0.00    +0.000 OA
ENDBRANCH  27  30
ENDBRANCH   1  27
TORSDOF 5
ENDMDL
MODEL 7
REMARK VINA RESULT:      -5.7      3.697      6.878
REMARK  Name = 
REMARK  6 active torsions:
REMARK  status: ('A' for Active; 'I' for Inactive)
REMARK    1  A    between atoms: C_1  and  O_2
REMARK    2  A    between atoms: O_2  and  C_3
REMARK    3  A    between atoms: C_3  and  C_5
REMARK    4  A    between atoms: C_7  and  C_8
REMARK    5  A    between atoms: C_16  and  C_24
REMARK    6  A    between atoms: N_17  and  C_18
REMARK                            x       y       z     vdW  Elec       q    Type
REMARK                         _______ _______ _______ _____ _____    ______ ____
ROOT
ATOM      1  C   UNL     1       1.004  11.435  18.575  0.00  0.00    +0.000 A 
ATOM      2  C   UNL     1       2.155  12.230  18.475  0.00  0.00    +0.000 A 
ATOM      3  C   UNL     1       1.944  13.376  19.235  0.00  0.00    +0.000 A 
ATOM      4  N   UNL     1       0.665  13.206  19.795  0.00  0.00    +0.000 N 
ATOM      5  C   UNL     1      -0.196  13.956  20.666  0.00  0.00    +0.000 C 
ATOM      6  N   UNL     1      -0.261  15.252  20.790  0.00  0.00    +0.000 NA
ATOM      7  N   UNL     1       0.109  12.033  19.359  0.00  0.00    +0.000 NA
ENDROOT
BRANCH   3   8
ATOM      8  C   UNL     1       2.950  14.445  19.391  0.00  0.00    +0.000 A 
ATOM      9  C   UNL     1       3.318  15.179  18.243  0.00  0.00    +0.000 A 
ATOM     10  C   UNL     1       4.318  16.155  18.277  0.00  0.00    +0.000 A 
ATOM     11  C   UNL     1       4.960  16.427  19.475  0.00  0.00    +0.000 A 
ATOM     12 CL   UNL     1       6.165  17.650  19.538  0.00  0.00    +0.000 Cl
ATOM     13  C   UNL     1       4.626  15.703  20.623  0.00  0.00    +0.000 A 
ATOM     14  C   UNL     1       3.638  14.706  20.579  0.00  0.00    +0.000 A 
ENDBRANCH   3   8
BRANCH   6  15
ATOM     15  C   UNL     1       0.220  16.201  19.895  0.00  0.00    +0.000 A 
ATOM     16  C   UNL     1      -0.265  16.309  18.588  0.00  0.00    +0.000 A 
ATOM     17  C   UNL     1       0.128  17.367  17.769  0.00  0.00    +0.000 A 
ATOM     18  C   UNL     1       0.968  18.358  18.272  0.00  0.00    +0.000 A 
ATOM     19  C   UNL     1       1.416  18.289  19.589  0.00  0.00    +0.000 A 
ATOM     20  C   UNL     1       1.041  17.215  20.394  0.00  0.00    +0.000 A 
ENDBRANCH   6  15
BRANCH   5  21
ATOM     21  C   UNL     1      -1.278  13.225  21.452  0.00  0.00    +0.000 A 
ATOM     22  C   UNL     1      -2.642  13.473  21.259  0.00  0.00    +0.000 A 
ATOM     23  C   UNL     1      -3.588  12.943  22.142  0.00  0.00    +0.000 A 
ATOM     24  C   UNL     1      -3.181  12.135  23.204  0.00  0.00    +0.000 A 
ATOM     25  C   UNL     1      -1.832  11.834  23.373  0.00  0.00    +0.000 A 
ATOM     26  C   UNL     1      -0.883  12.374  22.501  0.00  0.00    +0.000 A 
ENDBRANCH   5  21
BRANCH   1  27
ATOM     27  C   UNL     1       0.776  10.131  17.948  0.00  0.00    +0.000 C 
ATOM     28  O   UNL     1      -0.340   9.636  17.824  0.00  0.00    +0.000 OA
BRANCH  27  30
ATOM     29  C   UNL     1       2.263   8.322  18.180  0.00  0.00    +0.000 C 
ATOM     30  O   UNL     1       1.932   9.541  17.520  0.00  0.00    +0.000 OA
ENDBRANCH  27  30
ENDBRANCH   1  27
TORSDOF 5
ENDMDL
MODEL 8
REMARK VINA RESULT:      -5.7      3.701      6.579
REMARK  Name = 
REMARK  6 active torsions:
REMARK  status: ('A' for Active; 'I' for Inactive)
REMARK    1  A    between atoms: C_1  and  O_2
REMARK    2  A    between atoms: O_2  and  C_3
REMARK    3  A    between atoms: C_3  and  C_5
REMARK    4  A    between atoms: C_7  and  C_8
REMARK    5  A    between atoms: C_16  and  C_24
REMARK    6  A    between atoms: N_17  and  C_18
REMARK                            x       y       z     vdW  Elec       q    Type
REMARK                         _______ _______ _______ _____ _____    ______ ____
ROOT
ATOM      1  C   UNL     1      -2.409  11.638  18.635  0.00  0.00    +0.000 A 
ATOM      2  C   UNL     1      -1.054  11.910  18.394  0.00  0.00    +0.000 A 
ATOM      3  C   UNL     1      -0.633  12.833  19.347  0.00  0.00    +0.000 A 
ATOM      4  N   UNL     1      -1.764  13.059  20.153  0.00  0.00    +0.000 N 
ATOM      5  C   UNL     1      -2.077  13.862  21.302  0.00  0.00    +0.000 C 
ATOM      6  N   UNL     1      -1.552  15.009  21.631  0.00  0.00    +0.000 NA
ATOM      7  N   UNL     1      -2.831  12.341  19.685  0.00  0.00    +0.000 NA
ENDROOT
BRANCH   3   8
ATOM      8  C   UNL     1       0.749  13.346  19.428  0.00  0.00    +0.000 A 
ATOM      9  C   UNL     1       1.480  13.094  20.609  0.00  0.00    +0.000 A 
ATOM     10  C   UNL     1       2.764  13.607  20.810  0.00  0.00    +0.000 A 
ATOM     11  C   UNL     1       3.350  14.374  19.815  0.00  0.00    +0.000 A 
ATOM     12 CL   UNL     1       4.943  14.981  20.034  0.00  0.00    +0.000 Cl
ATOM     13  C   UNL     1       2.642  14.653  18.643  0.00  0.00    +0.000 A 
ATOM     14  C   UNL     1       1.342  14.155  18.456  0.00  0.00    +0.000 A 
ENDBRANCH   3   8
BRANCH   6  15
ATOM     15  C   UNL     1      -0.840  15.870  20.804  0.00  0.00    +0.000 A 
ATOM     16  C   UNL     1      -1.378  16.383  19.619  0.00  0.00    +0.000 A 
ATOM     17  C   UNL     1      -0.697  17.361  18.894  0.00  0.00    +0.000 A 
ATOM     18  C   UNL     1       0.503  17.875  19.380  0.00  0.00    +0.000 A 
ATOM     19  C   UNL     1       1.022  17.409  20.586  0.00  0.00    +0.000 A 
ATOM     20  C   UNL     1       0.351  16.412  21.292  0.00  0.00    +0.000 A 
ENDBRANCH   6  15
BRANCH   5  21
ATOM     21  C   UNL     1      -3.244  13.459  22.196  0.00  0.00    +0.000 A 
ATOM     22  C   UNL     1      -4.509  14.049  22.088  0.00  0.00    +0.000 A 
ATOM     23  C   UNL     1      -5.485  13.807  23.060  0.00  0.00    +0.000 A 
ATOM     24  C   UNL     1      -5.215  12.948  24.127  0.00  0.00    +0.000 A 
ATOM     25  C   UNL     1      -3.980  12.310  24.212  0.00  0.00    +0.000 A 
ATOM     26  C   UNL     1      -2.998  12.562  23.251  0.00  0.00    +0.000 A 
ENDBRANCH   5  21
BRANCH   1  27
ATOM     27  C   UNL     1      -3.269  10.718  17.888  0.00  0.00    +0.000 C 
ATOM     28  O   UNL     1      -4.494  10.748  17.953  0.00  0.00    +0.000 OA
BRANCH  27  30
ATOM     29  C   UNL     1      -2.837   9.910  15.721  0.00  0.00    +0.000 C 
ATOM     30  O   UNL     1      -2.560   9.840  17.117  0.00  0.00    +0.000 OA
ENDBRANCH  27  30
ENDBRANCH   1  27
TORSDOF 5
ENDMDL
MODEL 9
REMARK VINA RESULT:      -5.6      3.698      6.684
REMARK  Name = 
REMARK  6 active torsions:
REMARK  status: ('A' for Active; 'I' for Inactive)
REMARK    1  A    between atoms: C_1  and  O_2
REMARK    2  A    between atoms: O_2  and  C_3
REMARK    3  A    between atoms: C_3  and  C_5
REMARK    4  A    between atoms: C_7  and  C_8
REMARK    5  A    between atoms: C_16  and  C_24
REMARK    6  A    between atoms: N_17  and  C_18
REMARK                            x       y       z     vdW  Elec       q    Type
REMARK                         _______ _______ _______ _____ _____    ______ ____
ROOT
ATOM      1  C   UNL     1      -2.188  11.604  18.734  0.00  0.00    +0.000 A 
ATOM      2  C   UNL     1      -0.835  11.928  18.553  0.00  0.00    +0.000 A 
ATOM      3  C   UNL     1      -0.498  12.883  19.506  0.00  0.00    +0.000 A 
ATOM      4  N   UNL     1      -1.674  13.077  20.253  0.00  0.00    +0.000 N 
ATOM      5  C   UNL     1      -2.074  13.887  21.370  0.00  0.00    +0.000 C 
ATOM      6  N   UNL     1      -1.613  15.060  21.701  0.00  0.00    +0.000 NA
ATOM      7  N   UNL     1      -2.688  12.307  19.749  0.00  0.00    +0.000 NA
ENDROOT
BRANCH   3   8
ATOM      8  C   UNL     1       0.857  13.455  19.642  0.00  0.00    +0.000 A 
ATOM      9  C   UNL     1       1.373  14.198  18.558  0.00  0.00    +0.000 A 
ATOM     10  C   UNL     1       2.674  14.709  18.563  0.00  0.00    +0.000 A 
ATOM     11  C   UNL     1       3.481  14.497  19.670  0.00  0.00    +0.000 A 
ATOM     12 CL   UNL     1       5.069  15.150  19.704  0.00  0.00    +0.000 Cl
ATOM     13  C   UNL     1       3.000  13.750  20.749  0.00  0.00    +0.000 A 
ATOM     14  C   UNL     1       1.701  13.218  20.729  0.00  0.00    +0.000 A 
ENDBRANCH   3   8
BRANCH   6  15
ATOM     15  C   UNL     1      -0.897  15.935  20.892  0.00  0.00    +0.000 A 
ATOM     16  C   UNL     1      -1.428  16.464  19.711  0.00  0.00    +0.000 A 
ATOM     17  C   UNL     1      -0.745  17.455  19.005  0.00  0.00    +0.000 A 
ATOM     18  C   UNL     1       0.451  17.964  19.508  0.00  0.00    +0.000 A 
ATOM     19  C   UNL     1       0.962  17.481  20.710  0.00  0.00    +0.000 A 
ATOM     20  C   UNL     1       0.289  16.472  21.396  0.00  0.00    +0.000 A 
ENDBRANCH   6  15
BRANCH   5  21
ATOM     21  C   UNL     1      -3.266  13.451  22.215  0.00  0.00    +0.000 A 
ATOM     22  C   UNL     1      -4.558  13.945  21.998  0.00  0.00    +0.000 A 
ATOM     23  C   UNL     1      -5.575  13.687  22.923  0.00  0.00    +0.000 A 
ATOM     24  C   UNL     1      -5.317  12.909  24.053  0.00  0.00    +0.000 A 
ATOM     25  C   UNL     1      -4.050  12.366  24.249  0.00  0.00    +0.000 A 
ATOM     26  C   UNL     1      -3.027  12.633  23.334  0.00  0.00    +0.000 A 
ENDBRANCH   5  21
BRANCH   1  27
ATOM     27  C   UNL     1      -2.973  10.636  17.965  0.00  0.00    +0.000 C 
ATOM     28  O   UNL     1      -2.464   9.709  17.343  0.00  0.00    +0.000 OA
BRANCH  27  30
ATOM     29  C   UNL     1      -4.843  11.603  16.915  0.00  0.00    +0.000 C 
ATOM     30  O   UNL     1      -4.317  10.880  18.024  0.00  0.00    +0.000 OA
ENDBRANCH  27  30
ENDBRANCH   1  27
TORSDOF 5
ENDMDL
