MODEL 1
REMARK VINA RESULT:      -6.8      0.000      0.000
REMARK  Name = 
REMARK  9 active torsions:
REMARK  status: ('A' for Active; 'I' for Inactive)
REMARK    1  A    between atoms: C_1  and  C_2
REMARK    2  A    between atoms: C_2  and  C_3
REMARK    3  A    between atoms: C_8  and  N_9
REMARK    4  A    between atoms: C_10  and  S_11
REMARK    5  A    between atoms: N_12  and  C_13
REMARK    6  A    between atoms: N_12  and  C_19
REMARK    7  A    between atoms: C_13  and  C_14
REMARK    8  A    between atoms: C_19  and  C_20
REMARK    9  A    between atoms: C_19  and  C_21
REMARK                            x       y       z     vdW  Elec       q    Type
REMARK                         _______ _______ _______ _____ _____    ______ ____
ROOT
ATOM      1  N   UNL     1       3.309   6.109  17.586  0.00  0.00    +0.000 NA
ATOM      2  C   UNL     1       4.591   6.036  17.352  0.00  0.00    +0.000 C 
ATOM      3  N   UNL     1       5.148   4.950  16.668  0.00  0.00    +0.000 N 
ENDROOT
BRANCH   1   9
ATOM      4  C   UNL     1       2.215   7.039  19.552  0.00  0.00    +0.000 A 
ATOM      5  C   UNL     1       1.566   8.110  20.200  0.00  0.00    +0.000 A 
ATOM      6  C   UNL     1       1.296   9.299  19.531  0.00  0.00    +0.000 A 
ATOM      7  C   UNL     1       1.710   9.455  18.214  0.00  0.00    +0.000 A 
ATOM      8  C   UNL     1       2.398   8.419  17.574  0.00  0.00    +0.000 A 
ATOM      9  C   UNL     1       2.615   7.180  18.199  0.00  0.00    +0.000 A 
BRANCH   4  11
ATOM     10  C   UNL     1       1.368   4.789  20.546  0.00  0.00    +0.000 C 
ATOM     11  C   UNL     1       2.528   5.744  20.279  0.00  0.00    +0.000 C 
ENDBRANCH   4  11
ENDBRANCH   1   9
BRANCH   2  12
ATOM     12  S   UNL     1       5.734   7.265  17.920  0.00  0.00    +0.000 S 
ATOM     13  H   UNL     1       6.152   6.543  18.969  0.00  0.00    +0.000 HD
ENDBRANCH   2  12
BRANCH   3  14
ATOM     14  C   UNL     1       6.384   5.067  15.844  0.00  0.00    +0.000 C 
ATOM     15  C   UNL     1       7.569   4.509  16.651  0.00  0.00    +0.000 C 
BRANCH  14  16
ATOM     16  C   UNL     1       6.353   4.520  14.409  0.00  0.00    +0.000 A 
ATOM     17  C   UNL     1       5.396   3.778  13.744  0.00  0.00    +0.000 A 
ATOM     18  C   UNL     1       5.764   3.468  12.396  0.00  0.00    +0.000 A 
ATOM     19  C   UNL     1       6.967   4.038  12.046  0.00  0.00    +0.000 A 
ATOM     20  S   UNL     1       7.644   4.931  13.329  0.00  0.00    +0.000 S 
ENDBRANCH  14  16
ENDBRANCH   3  14
BRANCH   3  21
ATOM     21  C   UNL     1       4.354   3.721  16.483  0.00  0.00    +0.000 C 
BRANCH  21  22
ATOM     22  C   UNL     1       3.803   3.029  17.696  0.00  0.00    +0.000 A 
ATOM     23  C   UNL     1       2.708   2.221  17.919  0.00  0.00    +0.000 A 
ATOM     24  C   UNL     1       2.836   1.716  19.240  0.00  0.00    +0.000 A 
ATOM     25  C   UNL     1       3.990   2.265  19.744  0.00  0.00    +0.000 A 
ATOM     26  O   UNL     1       4.580   3.068  18.826  0.00  0.00    +0.000 OA
ENDBRANCH  21  22
ENDBRANCH   3  21
TORSDOF 7
ENDMDL
MODEL 2
REMARK VINA RESULT:      -6.3      2.634      4.838
REMARK  Name = 
REMARK  9 active torsions:
REMARK  status: ('A' for Active; 'I' for Inactive)
REMARK    1  A    between atoms: C_1  and  C_2
REMARK    2  A    between atoms: C_2  and  C_3
REMARK    3  A    between atoms: C_8  and  N_9
REMARK    4  A    between atoms: C_10  and  S_11
REMARK    5  A    between atoms: N_12  and  C_13
REMARK    6  A    between atoms: N_12  and  C_19
REMARK    7  A    between atoms: C_13  and  C_14
REMARK    8  A    between atoms: C_19  and  C_20
REMARK    9  A    between atoms: C_19  and  C_21
REMARK                            x       y       z     vdW  Elec       q    Type
REMARK                         _______ _______ _______ _____ _____    ______ ____
ROOT
ATOM      1  N   UNL     1       3.068   7.251  18.476  0.00  0.00    +0.000 NA
ATOM      2  C   UNL     1       2.959   6.103  17.865  0.00  0.00    +0.000 C 
ATOM      3  N   UNL     1       3.961   5.632  17.010  0.00  0.00    +0.000 N 
ENDROOT
BRANCH   1   9
ATOM      4  C   UNL     1       1.546   9.042  19.110  0.00  0.00    +0.000 A 
ATOM      5  C   UNL     1       0.607   9.591  20.007  0.00  0.00    +0.000 A 
ATOM      6  C   UNL     1       0.287   8.945  21.197  0.00  0.00    +0.000 A 
ATOM      7  C   UNL     1       0.869   7.719  21.491  0.00  0.00    +0.000 A 
ATOM      8  C   UNL     1       1.766   7.140  20.588  0.00  0.00    +0.000 A 
ATOM      9  C   UNL     1       2.166   7.805  19.417  0.00  0.00    +0.000 A 
BRANCH   4  11
ATOM     10  C   UNL     1       2.252  11.213  17.859  0.00  0.00    +0.000 C 
ATOM     11  C   UNL     1       1.889   9.731  17.801  0.00  0.00    +0.000 C 
ENDBRANCH   4  11
ENDBRANCH   1   9
BRANCH   2  12
ATOM     12  S   UNL     1       1.525   5.074  18.020  0.00  0.00    +0.000 S 
ATOM     13  H   UNL     1       0.838   5.706  17.058  0.00  0.00    +0.000 HD
ENDBRANCH   2  12
BRANCH   3  14
ATOM     14  C   UNL     1       4.221   4.180  16.796  0.00  0.00    +0.000 C 
ATOM     15  C   UNL     1       5.480   4.029  15.926  0.00  0.00    +0.000 C 
BRANCH  14  16
ATOM     16  C   UNL     1       4.252   3.261  18.026  0.00  0.00    +0.000 A 
ATOM     17  C   UNL     1       4.790   3.450  19.284  0.00  0.00    +0.000 A 
ATOM     18  C   UNL     1       4.601   2.326  20.150  0.00  0.00    +0.000 A 
ATOM     19  C   UNL     1       3.865   1.331  19.548  0.00  0.00    +0.000 A 
ATOM     20  S   UNL     1       3.413   1.746  17.960  0.00  0.00    +0.000 S 
ENDBRANCH  14  16
ENDBRANCH   3  14
BRANCH   3  21
ATOM     21  C   UNL     1       5.004   6.559  16.531  0.00  0.00    +0.000 C 
BRANCH  21  22
ATOM     22  C   UNL     1       6.204   6.804  17.399  0.00  0.00    +0.000 A 
ATOM     23  C   UNL     1       6.853   6.061  18.363  0.00  0.00    +0.000 A 
ATOM     24  C   UNL     1       8.046   6.761  18.683  0.00  0.00    +0.000 A 
ATOM     25  C   UNL     1       8.038   7.895  17.908  0.00  0.00    +0.000 A 
ATOM     26  O   UNL     1       6.926   7.940  17.135  0.00  0.00    +0.000 OA
ENDBRANCH  21  22
ENDBRANCH   3  21
TORSDOF 7
ENDMDL
MODEL 3
REMARK VINA RESULT:      -6.1      2.538      6.928
REMARK  Name = 
REMARK  9 active torsions:
REMARK  status: ('A' for Active; 'I' for Inactive)
REMARK    1  A    between atoms: C_1  and  C_2
REMARK    2  A    between atoms: C_2  and  C_3
REMARK    3  A    between atoms: C_8  and  N_9
REMARK    4  A    between atoms: C_10  and  S_11
REMARK    5  A    between atoms: N_12  and  C_13
REMARK    6  A    between atoms: N_12  and  C_19
REMARK    7  A    between atoms: C_13  and  C_14
REMARK    8  A    between atoms: C_19  and  C_20
REMARK    9  A    between atoms: C_19  and  C_21
REMARK                            x       y       z     vdW  Elec       q    Type
REMARK                         _______ _______ _______ _____ _____    ______ ____
ROOT
ATOM      1  N   UNL     1       4.548   5.979  16.556  0.00  0.00    +0.000 NA
ATOM      2  C   UNL     1       3.832   5.297  17.408  0.00  0.00    +0.000 C 
ATOM      3  N   UNL     1       2.867   5.913  18.211  0.00  0.00    +0.000 N 
ENDROOT
BRANCH   1   9
ATOM      4  C   UNL     1       6.876   5.674  15.911  0.00  0.00    +0.000 A 
ATOM      5  C   UNL     1       7.845   5.133  15.042  0.00  0.00    +0.000 A 
ATOM      6  C   UNL     1       7.473   4.411  13.912  0.00  0.00    +0.000 A 
ATOM      7  C   UNL     1       6.128   4.181  13.655  0.00  0.00    +0.000 A 
ATOM      8  C   UNL     1       5.158   4.670  14.536  0.00  0.00    +0.000 A 
ATOM      9  C   UNL     1       5.499   5.468  15.641  0.00  0.00    +0.000 A 
BRANCH   4  11
ATOM     10  C   UNL     1       7.612   5.644  18.407  0.00  0.00    +0.000 C 
ATOM     11  C   UNL     1       7.271   6.449  17.156  0.00  0.00    +0.000 C 
ENDBRANCH   4  11
ENDBRANCH   1   9
BRANCH   2  12
ATOM     12  S   UNL     1       4.054   3.557  17.660  0.00  0.00    +0.000 S 
ATOM     13  H   UNL     1       4.487   3.687  18.922  0.00  0.00    +0.000 HD
ENDBRANCH   2  12
BRANCH   3  14
ATOM     14  C   UNL     1       1.650   5.203  18.696  0.00  0.00    +0.000 C 
ATOM     15  C   UNL     1       0.997   4.478  17.507  0.00  0.00    +0.000 C 
BRANCH  14  16
ATOM     16  C   UNL     1       1.783   4.294  19.927  0.00  0.00    +0.000 A 
ATOM     17  C   UNL     1       2.407   4.501  21.141  0.00  0.00    +0.000 A 
ATOM     18  C   UNL     1       2.297   3.382  22.027  0.00  0.00    +0.000 A 
ATOM     19  C   UNL     1       1.535   2.371  21.486  0.00  0.00    +0.000 A 
ATOM     20  S   UNL     1       0.964   2.767  19.932  0.00  0.00    +0.000 S 
ENDBRANCH  14  16
ENDBRANCH   3  14
BRANCH   3  21
ATOM     21  C   UNL     1       2.861   7.383  18.345  0.00  0.00    +0.000 C 
BRANCH  21  22
ATOM     22  C   UNL     1       1.918   8.013  19.327  0.00  0.00    +0.000 A 
ATOM     23  C   UNL     1       1.685   7.836  20.676  0.00  0.00    +0.000 A 
ATOM     24  C   UNL     1       0.801   8.873  21.076  0.00  0.00    +0.000 A 
ATOM     25  C   UNL     1       0.537   9.603  19.943  0.00  0.00    +0.000 A 
ATOM     26  O   UNL     1       1.196   9.089  18.877  0.00  0.00    +0.000 OA
ENDBRANCH  21  22
ENDBRANCH   3  21
TORSDOF 7
ENDMDL
MODEL 4
REMARK VINA RESULT:      -6.1      2.555      7.079
REMARK  Name = 
REMARK  9 active torsions:
REMARK  status: ('A' for Active; 'I' for Inactive)
REMARK    1  A    between atoms: C_1  and  C_2
REMARK    2  A    between atoms: C_2  and  C_3
REMARK    3  A    between atoms: C_8  and  N_9
REMARK    4  A    between atoms: C_10  and  S_11
REMARK    5  A    between atoms: N_12  and  C_13
REMARK    6  A    between atoms: N_12  and  C_19
REMARK    7  A    between atoms: C_13  and  C_14
REMARK    8  A    between atoms: C_19  and  C_20
REMARK    9  A    between atoms: C_19  and  C_21
REMARK                            x       y       z     vdW  Elec       q    Type
REMARK                         _______ _______ _______ _____ _____    ______ ____
ROOT
ATOM      1  N   UNL     1       4.079   5.828  19.303  0.00  0.00    +0.000 NA
ATOM      2  C   UNL     1       3.278   6.793  18.940  0.00  0.00    +0.000 C 
ATOM      3  N   UNL     1       2.217   7.206  19.752  0.00  0.00    +0.000 N 
ENDROOT
BRANCH   1   9
ATOM      4  C   UNL     1       5.060   4.358  17.629  0.00  0.00    +0.000 A 
ATOM      5  C   UNL     1       6.177   3.915  16.891  0.00  0.00    +0.000 A 
ATOM      6  C   UNL     1       7.445   4.441  17.122  0.00  0.00    +0.000 A 
ATOM      7  C   UNL     1       7.609   5.448  18.063  0.00  0.00    +0.000 A 
ATOM      8  C   UNL     1       6.502   5.931  18.767  0.00  0.00    +0.000 A 
ATOM      9  C   UNL     1       5.225   5.366  18.612  0.00  0.00    +0.000 A 
BRANCH   4  11
ATOM     10  C   UNL     1       3.457   2.308  17.599  0.00  0.00    +0.000 C 
ATOM     11  C   UNL     1       3.670   3.802  17.372  0.00  0.00    +0.000 C 
ENDBRANCH   4  11
ENDBRANCH   1   9
BRANCH   2  12
ATOM     12  S   UNL     1       3.429   7.619  17.380  0.00  0.00    +0.000 S 
ATOM     13  H   UNL     1       3.875   6.535  16.729  0.00  0.00    +0.000 HD
ENDBRANCH   2  12
BRANCH   3  14
ATOM     14  C   UNL     1       1.693   8.601  19.743  0.00  0.00    +0.000 C 
ATOM     15  C   UNL     1       0.898   8.819  18.444  0.00  0.00    +0.000 C 
BRANCH  14  16
ATOM     16  C   UNL     1       0.929   9.097  20.979  0.00  0.00    +0.000 A 
ATOM     17  C   UNL     1       1.205   8.965  22.326  0.00  0.00    +0.000 A 
ATOM     18  C   UNL     1       0.221   9.581  23.163  0.00  0.00    +0.000 A 
ATOM     19  C   UNL     1      -0.750  10.225  22.429  0.00  0.00    +0.000 A 
ATOM     20  S   UNL     1      -0.479  10.082  20.754  0.00  0.00    +0.000 S 
ENDBRANCH  14  16
ENDBRANCH   3  14
BRANCH   3  21
ATOM     21  C   UNL     1       1.786   6.355  20.877  0.00  0.00    +0.000 C 
BRANCH  21  22
ATOM     22  C   UNL     1       1.677   4.874  20.660  0.00  0.00    +0.000 A 
ATOM     23  C   UNL     1       2.106   3.770  21.368  0.00  0.00    +0.000 A 
ATOM     24  C   UNL     1       1.521   2.635  20.747  0.00  0.00    +0.000 A 
ATOM     25  C   UNL     1       0.790   3.117  19.689  0.00  0.00    +0.000 A 
ATOM     26  O   UNL     1       0.882   4.467  19.618  0.00  0.00    +0.000 OA
ENDBRANCH  21  22
ENDBRANCH   3  21
TORSDOF 7
ENDMDL
MODEL 5
REMARK VINA RESULT:      -6.0      7.706     12.394
REMARK  Name = 
REMARK  9 active torsions:
REMARK  status: ('A' for Active; 'I' for Inactive)
REMARK    1  A    between atoms: C_1  and  C_2
REMARK    2  A    between atoms: C_2  and  C_3
REMARK    3  A    between atoms: C_8  and  N_9
REMARK    4  A    between atoms: C_10  and  S_11
REMARK    5  A    between atoms: N_12  and  C_13
REMARK    6  A    between atoms: N_12  and  C_19
REMARK    7  A    between atoms: C_13  and  C_14
REMARK    8  A    between atoms: C_19  and  C_20
REMARK    9  A    between atoms: C_19  and  C_21
REMARK                            x       y       z     vdW  Elec       q    Type
REMARK                         _______ _______ _______ _____ _____    ______ ____
ROOT
ATOM      1  N   UNL     1      -1.776  11.919  20.222  0.00  0.00    +0.000 NA
ATOM      2  C   UNL     1      -1.756  13.223  20.163  0.00  0.00    +0.000 C 
ATOM      3  N   UNL     1      -2.812  13.993  20.660  0.00  0.00    +0.000 N 
ENDROOT
BRANCH   1   9
ATOM      4  C   UNL     1       0.002  10.371  20.828  0.00  0.00    +0.000 A 
ATOM      5  C   UNL     1       0.999   9.445  20.457  0.00  0.00    +0.000 A 
ATOM      6  C   UNL     1       1.272   9.180  19.119  0.00  0.00    +0.000 A 
ATOM      7  C   UNL     1       0.523   9.803  18.129  0.00  0.00    +0.000 A 
ATOM      8  C   UNL     1      -0.502  10.686  18.484  0.00  0.00    +0.000 A 
ATOM      9  C   UNL     1      -0.747  11.032  19.822  0.00  0.00    +0.000 A 
BRANCH   4  11
ATOM     10  C   UNL     1      -0.107   9.518  23.284  0.00  0.00    +0.000 C 
ATOM     11  C   UNL     1      -0.314  10.654  22.286  0.00  0.00    +0.000 C 
ENDBRANCH   4  11
ENDBRANCH   1   9
BRANCH   2  12
ATOM     12  S   UNL     1      -0.429  14.121  19.406  0.00  0.00    +0.000 S 
ATOM     13  H   UNL     1       0.444  13.107  19.488  0.00  0.00    +0.000 HD
ENDBRANCH   2  12
BRANCH   3  14
ATOM     14  C   UNL     1      -2.621  15.371  21.195  0.00  0.00    +0.000 C 
ATOM     15  C   UNL     1      -3.789  16.250  20.718  0.00  0.00    +0.000 C 
BRANCH  14  16
ATOM     16  C   UNL     1      -2.348  15.535  22.697  0.00  0.00    +0.000 A 
ATOM     17  C   UNL     1      -3.139  16.037  23.711  0.00  0.00    +0.000 A 
ATOM     18  C   UNL     1      -2.496  16.013  24.989  0.00  0.00    +0.000 A 
ATOM     19  C   UNL     1      -1.249  15.432  24.927  0.00  0.00    +0.000 A 
ATOM     20  S   UNL     1      -0.861  14.928  23.348  0.00  0.00    +0.000 S 
ENDBRANCH  14  16
ENDBRANCH   3  14
BRANCH   3  21
ATOM     21  C   UNL     1      -4.103  13.349  20.966  0.00  0.00    +0.000 C 
BRANCH  21  22
ATOM     22  C   UNL     1      -4.375  12.914  22.377  0.00  0.00    +0.000 A 
ATOM     23  C   UNL     1      -3.599  12.350  23.369  0.00  0.00    +0.000 A 
ATOM     24  C   UNL     1      -4.384  12.355  24.552  0.00  0.00    +0.000 A 
ATOM     25  C   UNL     1      -5.594  12.903  24.202  0.00  0.00    +0.000 A 
ATOM     26  O   UNL     1      -5.606  13.236  22.889  0.00  0.00    +0.000 OA
ENDBRANCH  21  22
ENDBRANCH   3  21
TORSDOF 7
ENDMDL
MODEL 6
REMARK VINA RESULT:      -6.0      5.958     10.674
REMARK  Name = 
REMARK  9 active torsions:
REMARK  status: ('A' for Active; 'I' for Inactive)
REMARK    1  A    between atoms: C_1  and  C_2
REMARK    2  A    between atoms: C_2  and  C_3
REMARK    3  A    between atoms: C_8  and  N_9
REMARK    4  A    between atoms: C_10  and  S_11
REMARK    5  A    between atoms: N_12  and  C_13
REMARK    6  A    between atoms: N_12  and  C_19
REMARK    7  A    between atoms: C_13  and  C_14
REMARK    8  A    between atoms: C_19  and  C_20
REMARK    9  A    between atoms: C_19  and  C_21
REMARK                            x       y       z     vdW  Elec       q    Type
REMARK                         _______ _______ _______ _____ _____    ______ ____
ROOT
ATOM      1  N   UNL     1      -0.494  10.380  19.445  0.00  0.00    +0.000 NA
ATOM      2  C   UNL     1      -0.418  11.597  19.910  0.00  0.00    +0.000 C 
ATOM      3  N   UNL     1      -1.564  12.367  20.131  0.00  0.00    +0.000 N 
ENDROOT
BRANCH   1   9
ATOM      4  C   UNL     1       0.890   8.559  20.281  0.00  0.00    +0.000 A 
ATOM      5  C   UNL     1       1.920   7.615  20.088  0.00  0.00    +0.000 A 
ATOM      6  C   UNL     1       2.647   7.577  18.902  0.00  0.00    +0.000 A 
ATOM      7  C   UNL     1       2.328   8.453  17.872  0.00  0.00    +0.000 A 
ATOM      8  C   UNL     1       1.277   9.362  18.032  0.00  0.00    +0.000 A 
ATOM      9  C   UNL     1       0.577   9.475  19.245  0.00  0.00    +0.000 A 
BRANCH   4  11
ATOM     10  C   UNL     1       0.663   9.376  22.741  0.00  0.00    +0.000 C 
ATOM     11  C   UNL     1       0.080   8.597  21.564  0.00  0.00    +0.000 C 
ENDBRANCH   4  11
ENDBRANCH   1   9
BRANCH   2  12
ATOM     12  S   UNL     1       1.129  12.392  20.247  0.00  0.00    +0.000 S 
ATOM     13  H   UNL     1       1.141  12.054  21.544  0.00  0.00    +0.000 HD
ENDBRANCH   2  12
BRANCH   3  14
ATOM     14  C   UNL     1      -1.632  13.424  21.180  0.00  0.00    +0.000 C 
ATOM     15  C   UNL     1      -1.754  14.794  20.490  0.00  0.00    +0.000 C 
BRANCH  14  16
ATOM     16  C   UNL     1      -2.653  13.255  22.315  0.00  0.00    +0.000 A 
ATOM     17  C   UNL     1      -2.741  12.311  23.319  0.00  0.00    +0.000 A 
ATOM     18  C   UNL     1      -3.863  12.515  24.183  0.00  0.00    +0.000 A 
ATOM     19  C   UNL     1      -4.569  13.649  23.852  0.00  0.00    +0.000 A 
ATOM     20  S   UNL     1      -3.888  14.454  22.515  0.00  0.00    +0.000 S 
ENDBRANCH  14  16
ENDBRANCH   3  14
BRANCH   3  21
ATOM     21  C   UNL     1      -2.850  11.945  19.546  0.00  0.00    +0.000 C 
BRANCH  21  22
ATOM     22  C   UNL     1      -2.857  11.371  18.159  0.00  0.00    +0.000 A 
ATOM     23  C   UNL     1      -2.244  11.727  16.976  0.00  0.00    +0.000 A 
ATOM     24  C   UNL     1      -2.487  10.671  16.058  0.00  0.00    +0.000 A 
ATOM     25  C   UNL     1      -3.249   9.750  16.734  0.00  0.00    +0.000 A 
ATOM     26  O   UNL     1      -3.489  10.164  18.001  0.00  0.00    +0.000 OA
ENDBRANCH  21  22
ENDBRANCH   3  21
TORSDOF 7
ENDMDL
MODEL 7
REMARK VINA RESULT:      -6.0      5.585     10.263
REMARK  Name = 
REMARK  9 active torsions:
REMARK  status: ('A' for Active; 'I' for Inactive)
REMARK    1  A    between atoms: C_1  and  C_2
REMARK    2  A    between atoms: C_2  and  C_3
REMARK    3  A    between atoms: C_8  and  N_9
REMARK    4  A    between atoms: C_10  and  S_11
REMARK    5  A    between atoms: N_12  and  C_13
REMARK    6  A    between atoms: N_12  and  C_19
REMARK    7  A    between atoms: C_13  and  C_14
REMARK    8  A    between atoms: C_19  and  C_20
REMARK    9  A    between atoms: C_19  and  C_21
REMARK                            x       y       z     vdW  Elec       q    Type
REMARK                         _______ _______ _______ _____ _____    ______ ____
ROOT
ATOM      1  N   UNL     1       0.040  10.256  19.181  0.00  0.00    +0.000 NA
ATOM      2  C   UNL     1       0.242  11.539  19.311  0.00  0.00    +0.000 C 
ATOM      3  N   UNL     1      -0.817  12.429  19.514  0.00  0.00    +0.000 N 
ENDROOT
BRANCH   1   9
ATOM      4  C   UNL     1       1.239   8.362  20.130  0.00  0.00    +0.000 A 
ATOM      5  C   UNL     1       2.179   7.319  20.001  0.00  0.00    +0.000 A 
ATOM      6  C   UNL     1       2.911   7.151  18.830  0.00  0.00    +0.000 A 
ATOM      7  C   UNL     1       2.686   7.998  17.752  0.00  0.00    +0.000 A 
ATOM      8  C   UNL     1       1.722   9.007  17.849  0.00  0.00    +0.000 A 
ATOM      9  C   UNL     1       1.024   9.248  19.044  0.00  0.00    +0.000 A 
BRANCH   4  11
ATOM     10  C   UNL     1       1.073   9.303  22.551  0.00  0.00    +0.000 C 
ATOM     11  C   UNL     1       0.423   8.542  21.397  0.00  0.00    +0.000 C 
ENDBRANCH   4  11
ENDBRANCH   1   9
BRANCH   2  12
ATOM     12  S   UNL     1       1.854  12.265  19.191  0.00  0.00    +0.000 S 
ATOM     13  H   UNL     1       1.658  12.753  17.958  0.00  0.00    +0.000 HD
ENDBRANCH   2  12
BRANCH   3  14
ATOM     14  C   UNL     1      -0.662  13.707  20.265  0.00  0.00    +0.000 C 
ATOM     15  C   UNL     1      -0.719  14.875  19.266  0.00  0.00    +0.000 C 
BRANCH  14  16
ATOM     16  C   UNL     1      -1.563  13.945  21.486  0.00  0.00    +0.000 A 
ATOM     17  C   UNL     1      -2.638  14.793  21.666  0.00  0.00    +0.000 A 
ATOM     18  C   UNL     1      -3.207  14.707  22.976  0.00  0.00    +0.000 A 
ATOM     19  C   UNL     1      -2.590  13.745  23.744  0.00  0.00    +0.000 A 
ATOM     20  S   UNL     1      -1.339  12.961  22.895  0.00  0.00    +0.000 S 
ENDBRANCH  14  16
ENDBRANCH   3  14
BRANCH   3  21
ATOM     21  C   UNL     1      -2.201  11.984  19.264  0.00  0.00    +0.000 C 
BRANCH  21  22
ATOM     22  C   UNL     1      -2.487  11.181  18.028  0.00  0.00    +0.000 A 
ATOM     23  C   UNL     1      -3.103   9.968  17.799  0.00  0.00    +0.000 A 
ATOM     24  C   UNL     1      -3.243   9.842  16.391  0.00  0.00    +0.000 A 
ATOM     25  C   UNL     1      -2.686  10.976  15.853  0.00  0.00    +0.000 A 
ATOM     26  O   UNL     1      -2.217  11.790  16.829  0.00  0.00    +0.000 OA
ENDBRANCH  21  22
ENDBRANCH   3  21
TORSDOF 7
ENDMDL
MODEL 8
REMARK VINA RESULT:      -5.9      4.458      9.147
REMARK  Name = 
REMARK  9 active torsions:
REMARK  status: ('A' for Active; 'I' for Inactive)
REMARK    1  A    between atoms: C_1  and  C_2
REMARK    2  A    between atoms: C_2  and  C_3
REMARK    3  A    between atoms: C_8  and  N_9
REMARK    4  A    between atoms: C_10  and  S_11
REMARK    5  A    between atoms: N_12  and  C_13
REMARK    6  A    between atoms: N_12  and  C_19
REMARK    7  A    between atoms: C_13  and  C_14
REMARK    8  A    between atoms: C_19  and  C_20
REMARK    9  A    between atoms: C_19  and  C_21
REMARK                            x       y       z     vdW  Elec       q    Type
REMARK                         _______ _______ _______ _____ _____    ______ ____
ROOT
ATOM      1  N   UNL     1       1.185   8.522  18.452  0.00  0.00    +0.000 NA
ATOM      2  C   UNL     1       1.085   9.823  18.474  0.00  0.00    +0.000 C 
ATOM      3  N   UNL     1      -0.137  10.459  18.715  0.00  0.00    +0.000 N 
ENDROOT
BRANCH   1   9
ATOM      4  C   UNL     1       2.634   6.722  19.219  0.00  0.00    +0.000 A 
ATOM      5  C   UNL     1       3.780   5.918  19.054  0.00  0.00    +0.000 A 
ATOM      6  C   UNL     1       4.665   6.135  18.002  0.00  0.00    +0.000 A 
ATOM      7  C   UNL     1       4.397   7.133  17.074  0.00  0.00    +0.000 A 
ATOM      8  C   UNL     1       3.238   7.906  17.199  0.00  0.00    +0.000 A 
ATOM      9  C   UNL     1       2.368   7.761  18.292  0.00  0.00    +0.000 A 
BRANCH   4  11
ATOM     10  C   UNL     1       1.345   5.033  20.721  0.00  0.00    +0.000 C 
ATOM     11  C   UNL     1       1.653   6.482  20.354  0.00  0.00    +0.000 C 
ENDBRANCH   4  11
ENDBRANCH   1   9
BRANCH   2  12
ATOM     12  S   UNL     1       2.463  10.890  18.151  0.00  0.00    +0.000 S 
ATOM     13  H   UNL     1       1.795  12.016  18.436  0.00  0.00    +0.000 HD
ENDBRANCH   2  12
BRANCH   3  14
ATOM     14  C   UNL     1      -0.235  11.800  19.358  0.00  0.00    +0.000 C 
ATOM     15  C   UNL     1      -0.700  12.818  18.303  0.00  0.00    +0.000 C 
BRANCH  14  16
ATOM     16  C   UNL     1      -1.026  11.920  20.668  0.00  0.00    +0.000 A 
ATOM     17  C   UNL     1      -2.207  12.575  20.956  0.00  0.00    +0.000 A 
ATOM     18  C   UNL     1      -2.607  12.437  22.323  0.00  0.00    +0.000 A 
ATOM     19  C   UNL     1      -1.751  11.623  23.030  0.00  0.00    +0.000 A 
ATOM     20  S   UNL     1      -0.481  11.039  22.058  0.00  0.00    +0.000 S 
ENDBRANCH  14  16
ENDBRANCH   3  14
BRANCH   3  21
ATOM     21  C   UNL     1      -1.390   9.684  18.629  0.00  0.00    +0.000 C 
BRANCH  21  22
ATOM     22  C   UNL     1      -2.434  10.110  17.638  0.00  0.00    +0.000 A 
ATOM     23  C   UNL     1      -3.713  10.614  17.755  0.00  0.00    +0.000 A 
ATOM     24  C   UNL     1      -4.116  11.009  16.452  0.00  0.00    +0.000 A 
ATOM     25  C   UNL     1      -3.065  10.702  15.622  0.00  0.00    +0.000 A 
ATOM     26  O   UNL     1      -2.046  10.150  16.323  0.00  0.00    +0.000 OA
ENDBRANCH  21  22
ENDBRANCH   3  21
TORSDOF 7
ENDMDL
MODEL 9
REMARK VINA RESULT:      -5.8      1.730      6.466
REMARK  Name = 
REMARK  9 active torsions:
REMARK  status: ('A' for Active; 'I' for Inactive)
REMARK    1  A    between atoms: C_1  and  C_2
REMARK    2  A    between atoms: C_2  and  C_3
REMARK    3  A    between atoms: C_8  and  N_9
REMARK    4  A    between atoms: C_10  and  S_11
REMARK    5  A    between atoms: N_12  and  C_13
REMARK    6  A    between atoms: N_12  and  C_19
REMARK    7  A    between atoms: C_13  and  C_14
REMARK    8  A    between atoms: C_19  and  C_20
REMARK    9  A    between atoms: C_19  and  C_21
REMARK                            x       y       z     vdW  Elec       q    Type
REMARK                         _______ _______ _______ _____ _____    ______ ____
ROOT
ATOM      1  N   UNL     1       5.335   4.085  15.145  0.00  0.00    +0.000 NA
ATOM      2  C   UNL     1       4.955   4.905  16.086  0.00  0.00    +0.000 C 
ATOM      3  N   UNL     1       4.115   4.488  17.124  0.00  0.00    +0.000 N 
ENDROOT
BRANCH   1   9
ATOM      4  C   UNL     1       5.897   3.920  12.782  0.00  0.00    +0.000 A 
ATOM      5  C   UNL     1       6.751   4.224  11.702  0.00  0.00    +0.000 A 
ATOM      6  C   UNL     1       7.929   4.937  11.897  0.00  0.00    +0.000 A 
ATOM      7  C   UNL     1       8.253   5.396  13.167  0.00  0.00    +0.000 A 
ATOM      8  C   UNL     1       7.390   5.143  14.238  0.00  0.00    +0.000 A 
ATOM      9  C   UNL     1       6.234   4.360  14.086  0.00  0.00    +0.000 A 
BRANCH   4  11
ATOM     10  C   UNL     1       4.019   3.124  11.165  0.00  0.00    +0.000 C 
ATOM     11  C   UNL     1       4.600   3.157  12.576  0.00  0.00    +0.000 C 
ENDBRANCH   4  11
ENDBRANCH   1   9
BRANCH   2  12
ATOM     12  S   UNL     1       5.420   6.615  16.104  0.00  0.00    +0.000 S 
ATOM     13  H   UNL     1       6.024   6.572  14.908  0.00  0.00    +0.000 HD
ENDBRANCH   2  12
BRANCH   3  14
ATOM     14  C   UNL     1       4.148   5.102  18.482  0.00  0.00    +0.000 C 
ATOM     15  C   UNL     1       5.614   5.356  18.871  0.00  0.00    +0.000 C 
BRANCH  14  16
ATOM     16  C   UNL     1       3.257   6.324  18.747  0.00  0.00    +0.000 A 
ATOM     17  C   UNL     1       2.981   7.429  17.966  0.00  0.00    +0.000 A 
ATOM     18  C   UNL     1       2.087   8.352  18.596  0.00  0.00    +0.000 A 
ATOM     19  C   UNL     1       1.652   7.895  19.820  0.00  0.00    +0.000 A 
ATOM     20  S   UNL     1       2.318   6.375  20.203  0.00  0.00    +0.000 S 
ENDBRANCH  14  16
ENDBRANCH   3  14
BRANCH   3  21
ATOM     21  C   UNL     1       3.385   3.212  17.002  0.00  0.00    +0.000 C 
BRANCH  21  22
ATOM     22  C   UNL     1       2.461   2.802  18.112  0.00  0.00    +0.000 A 
ATOM     23  C   UNL     1       2.645   2.165  19.322  0.00  0.00    +0.000 A 
ATOM     24  C   UNL     1       1.408   2.243  20.015  0.00  0.00    +0.000 A 
ATOM     25  C   UNL     1       0.545   2.904  19.176  0.00  0.00    +0.000 A 
ATOM     26  O   UNL     1       1.164   3.239  18.018  0.00  0.00    +0.000 OA
ENDBRANCH  21  22
ENDBRANCH   3  21
TORSDOF 7
ENDMDL
