MODEL 1
REMARK VINA RESULT:      -8.8      0.000      0.000
REMARK  Name = 
REMARK  12 active torsions:
REMARK  status: ('A' for Active; 'I' for Inactive)
REMARK    1  A    between atoms: C_1  and  O_2
REMARK    2  A    between atoms: O_2  and  C_3
REMARK    3  A    between atoms: C_5  and  C_6
REMARK    4  A    between atoms: C_6  and  C_8
REMARK    5  A    between atoms: C_14  and  C_15
REMARK    6  A    between atoms: C_19  and  C_20
REMARK    7  A    between atoms: C_21  and  C_22
REMARK    8  A    between atoms: N_27  and  C_28
REMARK    9  A    between atoms: C_30  and  O_31
REMARK   10  A    between atoms: O_31  and  C_32
REMARK   11  A    between atoms: C_33  and  O_34
REMARK   12  A    between atoms: O_34  and  C_35
REMARK                            x       y       z     vdW  Elec       q    Type
REMARK                         _______ _______ _______ _____ _____    ______ ____
ROOT
ATOM      1  C   UNL     1       1.845   8.329  18.511  0.00  0.00    +0.000 A 
ATOM      2  C   UNL     1       1.769   8.235  19.906  0.00  0.00    +0.000 A 
ATOM      3  C   UNL     1       1.115   9.207  20.674  0.00  0.00    +0.000 A 
ATOM      4  C   UNL     1       0.548  10.252  19.945  0.00  0.00    +0.000 A 
ATOM      5  C   UNL     1       0.179  10.141  18.603  0.00  0.00    +0.000 A 
ATOM      6  C   UNL     1       1.015   9.266  17.841  0.00  0.00    +0.000 A 
ATOM      7  C   UNL     1      -0.523  11.361  18.354  0.00  0.00    +0.000 A 
ATOM      8  C   UNL     1       0.344  12.262  18.970  0.00  0.00    +0.000 A 
ATOM      9  N   UNL     1       0.440  11.603  20.200  0.00  0.00    +0.000 N 
ATOM     10  C   UNL     1       0.472  12.274  21.473  0.00  0.00    +0.000 C 
ENDROOT
BRANCH   7  11
ATOM     11  C   UNL     1      -1.972  11.838  18.502  0.00  0.00    +0.000 A 
ATOM     12  N   UNL     1      -2.420  12.118  19.711  0.00  0.00    +0.000 NA
ATOM     13  C   UNL     1      -3.749  12.362  19.589  0.00  0.00    +0.000 A 
ATOM     14  C   UNL     1      -4.631  12.799  20.579  0.00  0.00    +0.000 A 
ATOM     15  C   UNL     1      -5.947  13.134  20.232  0.00  0.00    +0.000 A 
ATOM     16  C   UNL     1      -6.754  13.867  21.274  0.00  0.00    +0.000 C 
ATOM     17  C   UNL     1      -6.431  12.815  18.947  0.00  0.00    +0.000 A 
ATOM     18  C   UNL     1      -7.907  12.919  18.637  0.00  0.00    +0.000 C 
ATOM     19  C   UNL     1      -5.539  12.322  17.947  0.00  0.00    +0.000 A 
ATOM     20  C   UNL     1      -4.186  12.167  18.287  0.00  0.00    +0.000 A 
ATOM     21  N   UNL     1      -3.023  11.831  17.601  0.00  0.00    +0.000 N 
ATOM     22  H   UNL     1      -2.962  11.585  16.625  0.00  0.00    +0.000 HD
ENDBRANCH   7  11
BRANCH   1  23
ATOM     23  C   UNL     1       2.972   7.571  17.853  0.00  0.00    +0.000 C 
ATOM     24  O   UNL     1       3.620   8.110  16.951  0.00  0.00    +0.000 OA
BRANCH  23  27
ATOM     25  C   UNL     1       4.997   4.524  18.722  0.00  0.00    +0.000 A 
ATOM     26  C   UNL     1       4.635   5.784  18.229  0.00  0.00    +0.000 A 
ATOM     27  C   UNL     1       3.313   6.181  18.204  0.00  0.00    +0.000 A 
ATOM     28  C   UNL     1       2.318   5.234  18.493  0.00  0.00    +0.000 A 
ATOM     29  C   UNL     1       2.658   3.919  18.870  0.00  0.00    +0.000 A 
ATOM     30  C   UNL     1       4.019   3.547  19.001  0.00  0.00    +0.000 A 
BRANCH  25  32
ATOM     31  C   UNL     1       7.194   4.787  17.893  0.00  0.00    +0.000 C 
ATOM     32  O   UNL     1       6.331   4.255  18.906  0.00  0.00    +0.000 OA
ENDBRANCH  25  32
BRANCH  29  33
ATOM     33  O   UNL     1       1.536   3.152  19.101  0.00  0.00    +0.000 OA
ATOM     34  C   UNL     1       0.943   3.143  20.393  0.00  0.00    +0.000 C 
ENDBRANCH  29  33
BRANCH  30  35
ATOM     35  O   UNL     1       4.262   2.252  19.382  0.00  0.00    +0.000 OA
ATOM     36  C   UNL     1       3.850   1.180  18.557  0.00  0.00    +0.000 C 
ENDBRANCH  30  35
ENDBRANCH  23  27
ENDBRANCH   1  23
TORSDOF 6
ENDMDL
MODEL 2
REMARK VINA RESULT:      -8.6      2.805      4.351
REMARK  Name = 
REMARK  12 active torsions:
REMARK  status: ('A' for Active; 'I' for Inactive)
REMARK    1  A    between atoms: C_1  and  O_2
REMARK    2  A    between atoms: O_2  and  C_3
REMARK    3  A    between atoms: C_5  and  C_6
REMARK    4  A    between atoms: C_6  and  C_8
REMARK    5  A    between atoms: C_14  and  C_15
REMARK    6  A    between atoms: C_19  and  C_20
REMARK    7  A    between atoms: C_21  and  C_22
REMARK    8  A    between atoms: N_27  and  C_28
REMARK    9  A    between atoms: C_30  and  O_31
REMARK   10  A    between atoms: O_31  and  C_32
REMARK   11  A    between atoms: C_33  and  O_34
REMARK   12  A    between atoms: O_34  and  C_35
REMARK                            x       y       z     vdW  Elec       q    Type
REMARK                         _______ _______ _______ _____ _____    ______ ____
ROOT
ATOM      1  C   UNL     1       2.016   7.786  19.488  0.00  0.00    +0.000 A 
ATOM      2  C   UNL     1       2.098   8.468  18.267  0.00  0.00    +0.000 A 
ATOM      3  C   UNL     1       1.375   9.646  18.033  0.00  0.00    +0.000 A 
ATOM      4  C   UNL     1       0.590  10.077  19.102  0.00  0.00    +0.000 A 
ATOM      5  C   UNL     1       0.846   9.737  20.431  0.00  0.00    +0.000 A 
ATOM      6  C   UNL     1       1.417   8.437  20.598  0.00  0.00    +0.000 A 
ATOM      7  C   UNL     1      -0.073  10.554  21.161  0.00  0.00    +0.000 A 
ATOM      8  C   UNL     1      -1.221  10.361  20.395  0.00  0.00    +0.000 A 
ATOM      9  N   UNL     1      -0.658  10.664  19.152  0.00  0.00    +0.000 N 
ATOM     10  C   UNL     1      -1.332  11.412  18.123  0.00  0.00    +0.000 C 
ENDROOT
BRANCH   7  11
ATOM     11  C   UNL     1      -0.053  11.975  21.734  0.00  0.00    +0.000 A 
ATOM     12  N   UNL     1      -0.919  12.282  22.682  0.00  0.00    +0.000 NA
ATOM     13  C   UNL     1      -0.802  13.615  22.904  0.00  0.00    +0.000 A 
ATOM     14  C   UNL     1      -1.440  14.376  23.884  0.00  0.00    +0.000 A 
ATOM     15  C   UNL     1      -1.086  15.722  24.051  0.00  0.00    +0.000 A 
ATOM     16  C   UNL     1      -1.589  16.403  25.300  0.00  0.00    +0.000 C 
ATOM     17  C   UNL     1      -0.266  16.350  23.093  0.00  0.00    +0.000 A 
ATOM     18  C   UNL     1      -0.089  17.852  23.102  0.00  0.00    +0.000 C 
ATOM     19  C   UNL     1       0.349  15.581  22.059  0.00  0.00    +0.000 A 
ATOM     20  C   UNL     1       0.107  14.198  22.034  0.00  0.00    +0.000 A 
ATOM     21  N   UNL     1       0.580  13.122  21.289  0.00  0.00    +0.000 N 
ATOM     22  H   UNL     1       1.240  13.174  20.528  0.00  0.00    +0.000 HD
ENDBRANCH   7  11
BRANCH   1  23
ATOM     23  C   UNL     1       2.380   6.322  19.457  0.00  0.00    +0.000 C 
ATOM     24  O   UNL     1       1.882   5.556  20.287  0.00  0.00    +0.000 OA
BRANCH  23  27
ATOM     25  C   UNL     1       5.257   6.081  17.048  0.00  0.00    +0.000 A 
ATOM     26  C   UNL     1       4.214   6.598  17.826  0.00  0.00    +0.000 A 
ATOM     27  C   UNL     1       3.352   5.759  18.505  0.00  0.00    +0.000 A 
ATOM     28  C   UNL     1       3.413   4.380  18.249  0.00  0.00    +0.000 A 
ATOM     29  C   UNL     1       4.378   3.848  17.370  0.00  0.00    +0.000 A 
ATOM     30  C   UNL     1       5.330   4.702  16.759  0.00  0.00    +0.000 A 
BRANCH  25  32
ATOM     31  C   UNL     1       7.300   7.202  17.434  0.00  0.00    +0.000 C 
ATOM     32  O   UNL     1       6.197   6.953  16.555  0.00  0.00    +0.000 OA
ENDBRANCH  25  32
BRANCH  29  33
ATOM     33  O   UNL     1       4.260   2.480  17.254  0.00  0.00    +0.000 OA
ATOM     34  C   UNL     1       3.320   1.784  18.062  0.00  0.00    +0.000 C 
ENDBRANCH  29  33
BRANCH  30  35
ATOM     35  O   UNL     1       6.240   4.103  15.926  0.00  0.00    +0.000 OA
ATOM     36  C   UNL     1       6.004   4.060  14.531  0.00  0.00    +0.000 C 
ENDBRANCH  30  35
ENDBRANCH  23  27
ENDBRANCH   1  23
TORSDOF 6
ENDMDL
MODEL 3
REMARK VINA RESULT:      -8.5      2.848      5.064
REMARK  Name = 
REMARK  12 active torsions:
REMARK  status: ('A' for Active; 'I' for Inactive)
REMARK    1  A    between atoms: C_1  and  O_2
REMARK    2  A    between atoms: O_2  and  C_3
REMARK    3  A    between atoms: C_5  and  C_6
REMARK    4  A    between atoms: C_6  and  C_8
REMARK    5  A    between atoms: C_14  and  C_15
REMARK    6  A    between atoms: C_19  and  C_20
REMARK    7  A    between atoms: C_21  and  C_22
REMARK    8  A    between atoms: N_27  and  C_28
REMARK    9  A    between atoms: C_30  and  O_31
REMARK   10  A    between atoms: O_31  and  C_32
REMARK   11  A    between atoms: C_33  and  O_34
REMARK   12  A    between atoms: O_34  and  C_35
REMARK                            x       y       z     vdW  Elec       q    Type
REMARK                         _______ _______ _______ _____ _____    ______ ____
ROOT
ATOM      1  C   UNL     1       2.075   7.776  19.443  0.00  0.00    +0.000 A 
ATOM      2  C   UNL     1       2.036   8.302  18.146  0.00  0.00    +0.000 A 
ATOM      3  C   UNL     1       1.272   9.434  17.834  0.00  0.00    +0.000 A 
ATOM      4  C   UNL     1       0.574   9.988  18.907  0.00  0.00    +0.000 A 
ATOM      5  C   UNL     1       0.952   9.818  20.240  0.00  0.00    +0.000 A 
ATOM      6  C   UNL     1       1.562   8.554  20.514  0.00  0.00    +0.000 A 
ATOM      7  C   UNL     1       0.084  10.710  20.944  0.00  0.00    +0.000 A 
ATOM      8  C   UNL     1      -1.123  10.412  20.312  0.00  0.00    +0.000 A 
ATOM      9  N   UNL     1      -0.676  10.564  18.996  0.00  0.00    +0.000 N 
ATOM     10  C   UNL     1      -1.453  11.172  17.947  0.00  0.00    +0.000 C 
ENDROOT
BRANCH   7  11
ATOM     11  C   UNL     1       0.124  12.191  21.334  0.00  0.00    +0.000 A 
ATOM     12  N   UNL     1       1.239  12.866  21.125  0.00  0.00    +0.000 NA
ATOM     13  C   UNL     1       1.069  14.088  21.688  0.00  0.00    +0.000 A 
ATOM     14  C   UNL     1       1.936  15.180  21.636  0.00  0.00    +0.000 A 
ATOM     15  C   UNL     1       1.527  16.413  22.161  0.00  0.00    +0.000 A 
ATOM     16  C   UNL     1       2.377  17.610  21.816  0.00  0.00    +0.000 C 
ATOM     17  C   UNL     1       0.349  16.484  22.932  0.00  0.00    +0.000 A 
ATOM     18  C   UNL     1       0.029  17.730  23.727  0.00  0.00    +0.000 C 
ATOM     19  C   UNL     1      -0.516  15.352  23.028  0.00  0.00    +0.000 A 
ATOM     20  C   UNL     1      -0.153  14.185  22.337  0.00  0.00    +0.000 A 
ATOM     21  N   UNL     1      -0.748  12.951  22.095  0.00  0.00    +0.000 N 
ATOM     22  H   UNL     1      -1.643  12.646  22.447  0.00  0.00    +0.000 HD
ENDBRANCH   7  11
BRANCH   1  23
ATOM     23  C   UNL     1       2.465   6.323  19.560  0.00  0.00    +0.000 C 
ATOM     24  O   UNL     1       1.962   5.630  20.450  0.00  0.00    +0.000 OA
BRANCH  23  27
ATOM     25  C   UNL     1       4.278   3.718  17.544  0.00  0.00    +0.000 A 
ATOM     26  C   UNL     1       3.450   4.323  18.498  0.00  0.00    +0.000 A 
ATOM     27  C   UNL     1       3.468   5.691  18.686  0.00  0.00    +0.000 A 
ATOM     28  C   UNL     1       4.465   6.446  18.049  0.00  0.00    +0.000 A 
ATOM     29  C   UNL     1       5.392   5.837  17.180  0.00  0.00    +0.000 A 
ATOM     30  C   UNL     1       5.301   4.449  16.905  0.00  0.00    +0.000 A 
BRANCH  25  32
ATOM     31  C   UNL     1       3.422   1.648  18.294  0.00  0.00    +0.000 C 
ATOM     32  O   UNL     1       4.083   2.388  17.261  0.00  0.00    +0.000 OA
ENDBRANCH  25  32
BRANCH  29  33
ATOM     33  O   UNL     1       6.286   6.752  16.669  0.00  0.00    +0.000 OA
ATOM     34  C   UNL     1       7.379   7.188  17.465  0.00  0.00    +0.000 C 
ENDBRANCH  29  33
BRANCH  30  35
ATOM     35  O   UNL     1       6.235   3.937  16.040  0.00  0.00    +0.000 OA
ATOM     36  C   UNL     1       5.998   3.961  14.645  0.00  0.00    +0.000 C 
ENDBRANCH  30  35
ENDBRANCH  23  27
ENDBRANCH   1  23
TORSDOF 6
ENDMDL
MODEL 4
REMARK VINA RESULT:      -8.5      0.850      2.292
REMARK  Name = 
REMARK  12 active torsions:
REMARK  status: ('A' for Active; 'I' for Inactive)
REMARK    1  A    between atoms: C_1  and  O_2
REMARK    2  A    between atoms: O_2  and  C_3
REMARK    3  A    between atoms: C_5  and  C_6
REMARK    4  A    between atoms: C_6  and  C_8
REMARK    5  A    between atoms: C_14  and  C_15
REMARK    6  A    between atoms: C_19  and  C_20
REMARK    7  A    between atoms: C_21  and  C_22
REMARK    8  A    between atoms: N_27  and  C_28
REMARK    9  A    between atoms: C_30  and  O_31
REMARK   10  A    between atoms: O_31  and  C_32
REMARK   11  A    between atoms: C_33  and  O_34
REMARK   12  A    between atoms: O_34  and  C_35
REMARK                            x       y       z     vdW  Elec       q    Type
REMARK                         _______ _______ _______ _____ _____    ______ ____
ROOT
ATOM      1  C   UNL     1       1.907   8.252  18.574  0.00  0.00    +0.000 A 
ATOM      2  C   UNL     1       1.705   8.053  19.945  0.00  0.00    +0.000 A 
ATOM      3  C   UNL     1       0.990   8.972  20.724  0.00  0.00    +0.000 A 
ATOM      4  C   UNL     1       0.497  10.076  20.029  0.00  0.00    +0.000 A 
ATOM      5  C   UNL     1       0.249  10.071  18.655  0.00  0.00    +0.000 A 
ATOM      6  C   UNL     1       1.146   9.246  17.906  0.00  0.00    +0.000 A 
ATOM      7  C   UNL     1      -0.421  11.315  18.438  0.00  0.00    +0.000 A 
ATOM      8  C   UNL     1       0.392  12.156  19.197  0.00  0.00    +0.000 A 
ATOM      9  N   UNL     1       0.373  11.405  20.376  0.00  0.00    +0.000 N 
ATOM     10  C   UNL     1       0.296  11.978  21.694  0.00  0.00    +0.000 C 
ENDROOT
BRANCH   7  11
ATOM     11  C   UNL     1      -1.874  11.797  18.492  0.00  0.00    +0.000 A 
ATOM     12  N   UNL     1      -2.360  12.199  19.652  0.00  0.00    +0.000 NA
ATOM     13  C   UNL     1      -3.685  12.423  19.466  0.00  0.00    +0.000 A 
ATOM     14  C   UNL     1      -4.597  12.955  20.378  0.00  0.00    +0.000 A 
ATOM     15  C   UNL     1      -5.903  13.245  19.959  0.00  0.00    +0.000 A 
ATOM     16  C   UNL     1      -6.743  14.078  20.894  0.00  0.00    +0.000 C 
ATOM     17  C   UNL     1      -6.347  12.792  18.701  0.00  0.00    +0.000 A 
ATOM     18  C   UNL     1      -7.813  12.855  18.338  0.00  0.00    +0.000 C 
ATOM     19  C   UNL     1      -5.424  12.203  17.784  0.00  0.00    +0.000 A 
ATOM     20  C   UNL     1      -4.082  12.091  18.179  0.00  0.00    +0.000 A 
ATOM     21  N   UNL     1      -2.898  11.691  17.567  0.00  0.00    +0.000 N 
ATOM     22  H   UNL     1      -2.807  11.345  16.624  0.00  0.00    +0.000 HD
ENDBRANCH   7  11
BRANCH   1  23
ATOM     23  C   UNL     1       3.084   7.532  17.963  0.00  0.00    +0.000 C 
ATOM     24  O   UNL     1       3.996   8.186  17.450  0.00  0.00    +0.000 OA
BRANCH  23  27
ATOM     25  C   UNL     1       2.172   3.898  18.295  0.00  0.00    +0.000 A 
ATOM     26  C   UNL     1       2.198   5.286  18.485  0.00  0.00    +0.000 A 
ATOM     27  C   UNL     1       3.179   6.063  17.902  0.00  0.00    +0.000 A 
ATOM     28  C   UNL     1       4.265   5.424  17.281  0.00  0.00    +0.000 A 
ATOM     29  C   UNL     1       4.323   4.019  17.190  0.00  0.00    +0.000 A 
ATOM     30  C   UNL     1       3.259   3.230  17.693  0.00  0.00    +0.000 A 
BRANCH  25  32
ATOM     31  C   UNL     1       0.818   3.302  20.137  0.00  0.00    +0.000 C 
ATOM     32  O   UNL     1       1.072   3.201  18.731  0.00  0.00    +0.000 OA
ENDBRANCH  25  32
BRANCH  29  33
ATOM     33  O   UNL     1       5.470   3.599  16.552  0.00  0.00    +0.000 OA
ATOM     34  C   UNL     1       6.294   4.547  15.887  0.00  0.00    +0.000 C 
ENDBRANCH  29  33
BRANCH  30  35
ATOM     35  O   UNL     1       3.389   1.871  17.554  0.00  0.00    +0.000 OA
ATOM     36  C   UNL     1       3.837   1.087  18.644  0.00  0.00    +0.000 C 
ENDBRANCH  30  35
ENDBRANCH  23  27
ENDBRANCH   1  23
TORSDOF 6
ENDMDL
MODEL 5
REMARK VINA RESULT:      -8.5      2.860      4.649
REMARK  Name = 
REMARK  12 active torsions:
REMARK  status: ('A' for Active; 'I' for Inactive)
REMARK    1  A    between atoms: C_1  and  O_2
REMARK    2  A    between atoms: O_2  and  C_3
REMARK    3  A    between atoms: C_5  and  C_6
REMARK    4  A    between atoms: C_6  and  C_8
REMARK    5  A    between atoms: C_14  and  C_15
REMARK    6  A    between atoms: C_19  and  C_20
REMARK    7  A    between atoms: C_21  and  C_22
REMARK    8  A    between atoms: N_27  and  C_28
REMARK    9  A    between atoms: C_30  and  O_31
REMARK   10  A    between atoms: O_31  and  C_32
REMARK   11  A    between atoms: C_33  and  O_34
REMARK   12  A    between atoms: O_34  and  C_35
REMARK                            x       y       z     vdW  Elec       q    Type
REMARK                         _______ _______ _______ _____ _____    ______ ____
ROOT
ATOM      1  C   UNL     1       2.105   7.691  19.524  0.00  0.00    +0.000 A 
ATOM      2  C   UNL     1       2.172   8.303  18.265  0.00  0.00    +0.000 A 
ATOM      3  C   UNL     1       1.429   9.453  17.967  0.00  0.00    +0.000 A 
ATOM      4  C   UNL     1       0.641   9.934  19.012  0.00  0.00    +0.000 A 
ATOM      5  C   UNL     1       0.908   9.676  20.358  0.00  0.00    +0.000 A 
ATOM      6  C   UNL     1       1.500   8.396  20.597  0.00  0.00    +0.000 A 
ATOM      7  C   UNL     1      -0.021  10.518  21.044  0.00  0.00    +0.000 A 
ATOM      8  C   UNL     1      -1.169  10.263  20.295  0.00  0.00    +0.000 A 
ATOM      9  N   UNL     1      -0.615  10.503  19.034  0.00  0.00    +0.000 N 
ATOM     10  C   UNL     1      -1.306  11.179  17.967  0.00  0.00    +0.000 C 
ENDROOT
BRANCH   7  11
ATOM     11  C   UNL     1      -0.022  11.971  21.533  0.00  0.00    +0.000 A 
ATOM     12  N   UNL     1      -0.700  12.264  22.628  0.00  0.00    +0.000 NA
ATOM     13  C   UNL     1      -0.669  13.614  22.757  0.00  0.00    +0.000 A 
ATOM     14  C   UNL     1      -1.162  14.381  23.814  0.00  0.00    +0.000 A 
ATOM     15  C   UNL     1      -0.914  15.760  23.840  0.00  0.00    +0.000 A 
ATOM     16  C   UNL     1      -1.212  16.475  25.134  0.00  0.00    +0.000 C 
ATOM     17  C   UNL     1      -0.374  16.392  22.702  0.00  0.00    +0.000 A 
ATOM     18  C   UNL     1      -0.346  17.900  22.604  0.00  0.00    +0.000 C 
ATOM     19  C   UNL     1       0.087  15.611  21.599  0.00  0.00    +0.000 A 
ATOM     20  C   UNL     1      -0.020  14.214  21.689  0.00  0.00    +0.000 A 
ATOM     21  N   UNL     1       0.392  13.136  20.911  0.00  0.00    +0.000 N 
ATOM     22  H   UNL     1       0.872  13.194  20.027  0.00  0.00    +0.000 HD
ENDBRANCH   7  11
BRANCH   1  23
ATOM     23  C   UNL     1       2.492   6.234  19.576  0.00  0.00    +0.000 C 
ATOM     24  O   UNL     1       1.993   5.504  20.438  0.00  0.00    +0.000 OA
BRANCH  23  27
ATOM     25  C   UNL     1       4.302   3.706  17.461  0.00  0.00    +0.000 A 
ATOM     26  C   UNL     1       3.482   4.275  18.443  0.00  0.00    +0.000 A 
ATOM     27  C   UNL     1       3.488   5.637  18.670  0.00  0.00    +0.000 A 
ATOM     28  C   UNL     1       4.469   6.421  18.040  0.00  0.00    +0.000 A 
ATOM     29  C   UNL     1       5.388   5.846  17.141  0.00  0.00    +0.000 A 
ATOM     30  C   UNL     1       5.308   4.466  16.828  0.00  0.00    +0.000 A 
BRANCH  25  32
ATOM     31  C   UNL     1       3.596   1.580  18.209  0.00  0.00    +0.000 C 
ATOM     32  O   UNL     1       4.117   2.383  17.144  0.00  0.00    +0.000 OA
ENDBRANCH  25  32
BRANCH  29  33
ATOM     33  O   UNL     1       6.266   6.785  16.643  0.00  0.00    +0.000 OA
ATOM     34  C   UNL     1       7.370   7.206  17.434  0.00  0.00    +0.000 C 
ENDBRANCH  29  33
BRANCH  30  35
ATOM     35  O   UNL     1       6.235   3.989  15.936  0.00  0.00    +0.000 OA
ATOM     36  C   UNL     1       5.973   4.041  14.546  0.00  0.00    +0.000 C 
ENDBRANCH  30  35
ENDBRANCH  23  27
ENDBRANCH   1  23
TORSDOF 6
ENDMDL
MODEL 6
REMARK VINA RESULT:      -8.5      2.847      4.754
REMARK  Name = 
REMARK  12 active torsions:
REMARK  status: ('A' for Active; 'I' for Inactive)
REMARK    1  A    between atoms: C_1  and  O_2
REMARK    2  A    between atoms: O_2  and  C_3
REMARK    3  A    between atoms: C_5  and  C_6
REMARK    4  A    between atoms: C_6  and  C_8
REMARK    5  A    between atoms: C_14  and  C_15
REMARK    6  A    between atoms: C_19  and  C_20
REMARK    7  A    between atoms: C_21  and  C_22
REMARK    8  A    between atoms: N_27  and  C_28
REMARK    9  A    between atoms: C_30  and  O_31
REMARK   10  A    between atoms: O_31  and  C_32
REMARK   11  A    between atoms: C_33  and  O_34
REMARK   12  A    between atoms: O_34  and  C_35
REMARK                            x       y       z     vdW  Elec       q    Type
REMARK                         _______ _______ _______ _____ _____    ______ ____
ROOT
ATOM      1  C   UNL     1       2.059   7.843  19.347  0.00  0.00    +0.000 A 
ATOM      2  C   UNL     1       1.998   8.385  18.056  0.00  0.00    +0.000 A 
ATOM      3  C   UNL     1       1.232   9.523  17.772  0.00  0.00    +0.000 A 
ATOM      4  C   UNL     1       0.556  10.066  18.864  0.00  0.00    +0.000 A 
ATOM      5  C   UNL     1       0.958   9.880  20.188  0.00  0.00    +0.000 A 
ATOM      6  C   UNL     1       1.569   8.611  20.436  0.00  0.00    +0.000 A 
ATOM      7  C   UNL     1       0.106  10.766  20.917  0.00  0.00    +0.000 A 
ATOM      8  C   UNL     1      -1.113  10.479  20.305  0.00  0.00    +0.000 A 
ATOM      9  N   UNL     1      -0.691  10.645  18.983  0.00  0.00    +0.000 N 
ATOM     10  C   UNL     1      -1.485  11.268  17.955  0.00  0.00    +0.000 C 
ENDROOT
BRANCH   7  11
ATOM     11  C   UNL     1       0.158  12.243  21.323  0.00  0.00    +0.000 A 
ATOM     12  N   UNL     1       1.276  12.913  21.114  0.00  0.00    +0.000 NA
ATOM     13  C   UNL     1       1.118  14.130  21.692  0.00  0.00    +0.000 A 
ATOM     14  C   UNL     1       1.992  15.217  21.645  0.00  0.00    +0.000 A 
ATOM     15  C   UNL     1       1.593  16.447  22.187  0.00  0.00    +0.000 A 
ATOM     16  C   UNL     1       2.449  17.642  21.849  0.00  0.00    +0.000 C 
ATOM     17  C   UNL     1       0.422  16.517  22.967  0.00  0.00    +0.000 A 
ATOM     18  C   UNL     1       0.115  17.755  23.778  0.00  0.00    +0.000 C 
ATOM     19  C   UNL     1      -0.449  15.389  23.056  0.00  0.00    +0.000 A 
ATOM     20  C   UNL     1      -0.099  14.227  22.350  0.00  0.00    +0.000 A 
ATOM     21  N   UNL     1      -0.704  12.999  22.098  0.00  0.00    +0.000 N 
ATOM     22  H   UNL     1      -1.598  12.696  22.453  0.00  0.00    +0.000 HD
ENDBRANCH   7  11
BRANCH   1  23
ATOM     23  C   UNL     1       2.446   6.388  19.440  0.00  0.00    +0.000 C 
ATOM     24  O   UNL     1       2.022   5.707  20.378  0.00  0.00    +0.000 OA
BRANCH  23  27
ATOM     25  C   UNL     1       5.279   5.890  17.017  0.00  0.00    +0.000 A 
ATOM     26  C   UNL     1       4.290   6.499  17.800  0.00  0.00    +0.000 A 
ATOM     27  C   UNL     1       3.360   5.740  18.483  0.00  0.00    +0.000 A 
ATOM     28  C   UNL     1       3.295   4.361  18.226  0.00  0.00    +0.000 A 
ATOM     29  C   UNL     1       4.203   3.746  17.342  0.00  0.00    +0.000 A 
ATOM     30  C   UNL     1       5.226   4.510  16.728  0.00  0.00    +0.000 A 
BRANCH  25  32
ATOM     31  C   UNL     1       7.153   7.240  17.515  0.00  0.00    +0.000 C 
ATOM     32  O   UNL     1       6.291   6.674  16.520  0.00  0.00    +0.000 OA
ENDBRANCH  25  32
BRANCH  29  33
ATOM     33  O   UNL     1       3.962   2.394  17.227  0.00  0.00    +0.000 OA
ATOM     34  C   UNL     1       3.499   1.663  18.355  0.00  0.00    +0.000 C 
ENDBRANCH  29  33
BRANCH  30  35
ATOM     35  O   UNL     1       6.074   3.832  15.890  0.00  0.00    +0.000 OA
ATOM     36  C   UNL     1       6.004   4.037  14.492  0.00  0.00    +0.000 C 
ENDBRANCH  30  35
ENDBRANCH  23  27
ENDBRANCH   1  23
TORSDOF 6
ENDMDL
MODEL 7
REMARK VINA RESULT:      -8.2      0.938      1.511
REMARK  Name = 
REMARK  12 active torsions:
REMARK  status: ('A' for Active; 'I' for Inactive)
REMARK    1  A    between atoms: C_1  and  O_2
REMARK    2  A    between atoms: O_2  and  C_3
REMARK    3  A    between atoms: C_5  and  C_6
REMARK    4  A    between atoms: C_6  and  C_8
REMARK    5  A    between atoms: C_14  and  C_15
REMARK    6  A    between atoms: C_19  and  C_20
REMARK    7  A    between atoms: C_21  and  C_22
REMARK    8  A    between atoms: N_27  and  C_28
REMARK    9  A    between atoms: C_30  and  O_31
REMARK   10  A    between atoms: O_31  and  C_32
REMARK   11  A    between atoms: C_33  and  O_34
REMARK   12  A    between atoms: O_34  and  C_35
REMARK                            x       y       z     vdW  Elec       q    Type
REMARK                         _______ _______ _______ _____ _____    ______ ____
ROOT
ATOM      1  C   UNL     1       1.774   8.206  18.858  0.00  0.00    +0.000 A 
ATOM      2  C   UNL     1       1.503   7.635  20.108  0.00  0.00    +0.000 A 
ATOM      3  C   UNL     1       0.748   8.310  21.076  0.00  0.00    +0.000 A 
ATOM      4  C   UNL     1       0.289   9.570  20.693  0.00  0.00    +0.000 A 
ATOM      5  C   UNL     1       0.111   9.951  19.362  0.00  0.00    +0.000 A 
ATOM      6  C   UNL     1       1.045   9.357  18.458  0.00  0.00    +0.000 A 
ATOM      7  C   UNL     1      -0.549  11.215  19.469  0.00  0.00    +0.000 A 
ATOM      8  C   UNL     1       0.223  11.801  20.471  0.00  0.00    +0.000 A 
ATOM      9  N   UNL     1       0.146  10.751  21.391  0.00  0.00    +0.000 N 
ATOM     10  C   UNL     1       0.001  10.934  22.812  0.00  0.00    +0.000 C 
ENDROOT
BRANCH   7  11
ATOM     11  C   UNL     1      -2.004  11.681  19.584  0.00  0.00    +0.000 A 
ATOM     12  N   UNL     1      -2.792  11.546  18.533  0.00  0.00    +0.000 NA
ATOM     13  C   UNL     1      -3.961  12.164  18.838  0.00  0.00    +0.000 A 
ATOM     14  C   UNL     1      -5.131  12.197  18.079  0.00  0.00    +0.000 A 
ATOM     15  C   UNL     1      -6.290  12.768  18.621  0.00  0.00    +0.000 A 
ATOM     16  C   UNL     1      -7.579  12.515  17.881  0.00  0.00    +0.000 C 
ATOM     17  C   UNL     1      -6.208  13.500  19.823  0.00  0.00    +0.000 A 
ATOM     18  C   UNL     1      -7.373  14.344  20.287  0.00  0.00    +0.000 C 
ATOM     19  C   UNL     1      -4.996  13.507  20.578  0.00  0.00    +0.000 A 
ATOM     20  C   UNL     1      -3.907  12.772  20.083  0.00  0.00    +0.000 A 
ATOM     21  N   UNL     1      -2.636  12.447  20.549  0.00  0.00    +0.000 N 
ATOM     22  H   UNL     1      -2.230  12.751  21.420  0.00  0.00    +0.000 HD
ENDBRANCH   7  11
BRANCH   1  23
ATOM     23  C   UNL     1       2.981   7.670  18.129  0.00  0.00    +0.000 C 
ATOM     24  O   UNL     1       3.726   8.452  17.531  0.00  0.00    +0.000 OA
BRANCH  23  27
ATOM     25  C   UNL     1       4.919   4.449  18.236  0.00  0.00    +0.000 A 
ATOM     26  C   UNL     1       4.607   5.811  18.136  0.00  0.00    +0.000 A 
ATOM     27  C   UNL     1       3.295   6.233  18.050  0.00  0.00    +0.000 A 
ATOM     28  C   UNL     1       2.289   5.271  17.865  0.00  0.00    +0.000 A 
ATOM     29  C   UNL     1       2.596   3.897  17.836  0.00  0.00    +0.000 A 
ATOM     30  C   UNL     1       3.931   3.463  18.034  0.00  0.00    +0.000 A 
BRANCH  25  32
ATOM     31  C   UNL     1       7.194   4.674  17.640  0.00  0.00    +0.000 C 
ATOM     32  O   UNL     1       6.217   4.097  18.514  0.00  0.00    +0.000 OA
ENDBRANCH  25  32
BRANCH  29  33
ATOM     33  O   UNL     1       1.470   3.129  17.637  0.00  0.00    +0.000 OA
ATOM     34  C   UNL     1       0.732   2.658  18.757  0.00  0.00    +0.000 C 
ENDBRANCH  29  33
BRANCH  30  35
ATOM     35  O   UNL     1       4.143   2.108  18.001  0.00  0.00    +0.000 OA
ATOM     36  C   UNL     1       4.039   1.345  19.188  0.00  0.00    +0.000 C 
ENDBRANCH  30  35
ENDBRANCH  23  27
ENDBRANCH   1  23
TORSDOF 6
ENDMDL
MODEL 8
REMARK VINA RESULT:      -8.1      4.833     10.344
REMARK  Name = 
REMARK  12 active torsions:
REMARK  status: ('A' for Active; 'I' for Inactive)
REMARK    1  A    between atoms: C_1  and  O_2
REMARK    2  A    between atoms: O_2  and  C_3
REMARK    3  A    between atoms: C_5  and  C_6
REMARK    4  A    between atoms: C_6  and  C_8
REMARK    5  A    between atoms: C_14  and  C_15
REMARK    6  A    between atoms: C_19  and  C_20
REMARK    7  A    between atoms: C_21  and  C_22
REMARK    8  A    between atoms: N_27  and  C_28
REMARK    9  A    between atoms: C_30  and  O_31
REMARK   10  A    between atoms: O_31  and  C_32
REMARK   11  A    between atoms: C_33  and  O_34
REMARK   12  A    between atoms: O_34  and  C_35
REMARK                            x       y       z     vdW  Elec       q    Type
REMARK                         _______ _______ _______ _____ _____    ______ ____
ROOT
ATOM      1  C   UNL     1       0.227  13.023  21.207  0.00  0.00    +0.000 A 
ATOM      2  C   UNL     1      -1.115  12.641  21.082  0.00  0.00    +0.000 A 
ATOM      3  C   UNL     1      -1.503  11.582  20.251  0.00  0.00    +0.000 A 
ATOM      4  C   UNL     1      -0.459  10.947  19.579  0.00  0.00    +0.000 A 
ATOM      5  C   UNL     1       0.863  10.956  20.027  0.00  0.00    +0.000 A 
ATOM      6  C   UNL     1       1.236  12.157  20.709  0.00  0.00    +0.000 A 
ATOM      7  C   UNL     1       1.512  10.031  19.152  0.00  0.00    +0.000 A 
ATOM      8  C   UNL     1       0.980  10.446  17.933  0.00  0.00    +0.000 A 
ATOM      9  N   UNL     1      -0.367  10.417  18.309  0.00  0.00    +0.000 N 
ATOM     10  C   UNL     1      -1.432   9.958  17.455  0.00  0.00    +0.000 C 
ENDROOT
BRANCH   7  11
ATOM     11  C   UNL     1       1.742   8.516  19.140  0.00  0.00    +0.000 A 
ATOM     12  N   UNL     1       1.623   7.854  20.276  0.00  0.00    +0.000 NA
ATOM     13  C   UNL     1       2.021   6.580  20.031  0.00  0.00    +0.000 A 
ATOM     14  C   UNL     1       1.975   5.490  20.900  0.00  0.00    +0.000 A 
ATOM     15  C   UNL     1       2.300   4.213  20.423  0.00  0.00    +0.000 A 
ATOM     16  C   UNL     1       1.954   3.049  21.317  0.00  0.00    +0.000 C 
ATOM     17  C   UNL     1       2.883   4.074  19.147  0.00  0.00    +0.000 A 
ATOM     18  C   UNL     1       3.485   2.754  18.720  0.00  0.00    +0.000 C 
ATOM     19  C   UNL     1       2.975   5.200  18.274  0.00  0.00    +0.000 A 
ATOM     20  C   UNL     1       2.474   6.430  18.728  0.00  0.00    +0.000 A 
ATOM     21  N   UNL     1       2.284   7.691  18.170  0.00  0.00    +0.000 N 
ATOM     22  H   UNL     1       2.535   7.967  17.234  0.00  0.00    +0.000 HD
ENDBRANCH   7  11
BRANCH   1  23
ATOM     23  C   UNL     1       0.476  14.437  21.670  0.00  0.00    +0.000 C 
ATOM     24  O   UNL     1       0.402  14.703  22.874  0.00  0.00    +0.000 OA
BRANCH  23  27
ATOM     25  C   UNL     1       2.238  16.578  19.130  0.00  0.00    +0.000 A 
ATOM     26  C   UNL     1       1.999  15.640  20.142  0.00  0.00    +0.000 A 
ATOM     27  C   UNL     1       0.758  15.545  20.742  0.00  0.00    +0.000 A 
ATOM     28  C   UNL     1      -0.202  16.531  20.464  0.00  0.00    +0.000 A 
ATOM     29  C   UNL     1       0.064  17.561  19.540  0.00  0.00    +0.000 A 
ATOM     30  C   UNL     1       1.299  17.591  18.845  0.00  0.00    +0.000 A 
BRANCH  25  32
ATOM     31  C   UNL     1       3.485  15.435  17.481  0.00  0.00    +0.000 C 
ATOM     32  O   UNL     1       3.421  16.501  18.436  0.00  0.00    +0.000 OA
ENDBRANCH  25  32
BRANCH  29  33
ATOM     33  O   UNL     1      -1.004  18.424  19.421  0.00  0.00    +0.000 OA
ATOM     34  C   UNL     1      -2.233  17.953  18.883  0.00  0.00    +0.000 C 
ENDBRANCH  29  33
BRANCH  30  35
ATOM     35  O   UNL     1       1.473  18.622  17.956  0.00  0.00    +0.000 OA
ATOM     36  C   UNL     1       1.048  18.480  16.614  0.00  0.00    +0.000 C 
ENDBRANCH  30  35
ENDBRANCH  23  27
ENDBRANCH   1  23
TORSDOF 6
ENDMDL
MODEL 9
REMARK VINA RESULT:      -8.1      5.441     11.126
REMARK  Name = 
REMARK  12 active torsions:
REMARK  status: ('A' for Active; 'I' for Inactive)
REMARK    1  A    between atoms: C_1  and  O_2
REMARK    2  A    between atoms: O_2  and  C_3
REMARK    3  A    between atoms: C_5  and  C_6
REMARK    4  A    between atoms: C_6  and  C_8
REMARK    5  A    between atoms: C_14  and  C_15
REMARK    6  A    between atoms: C_19  and  C_20
REMARK    7  A    between atoms: C_21  and  C_22
REMARK    8  A    between atoms: N_27  and  C_28
REMARK    9  A    between atoms: C_30  and  O_31
REMARK   10  A    between atoms: O_31  and  C_32
REMARK   11  A    between atoms: C_33  and  O_34
REMARK   12  A    between atoms: O_34  and  C_35
REMARK                            x       y       z     vdW  Elec       q    Type
REMARK                         _______ _______ _______ _____ _____    ______ ____
ROOT
ATOM      1  C   UNL     1      -2.580  12.202  22.603  0.00  0.00    +0.000 A 
ATOM      2  C   UNL     1      -2.971  12.622  21.325  0.00  0.00    +0.000 A 
ATOM      3  C   UNL     1      -2.157  12.418  20.203  0.00  0.00    +0.000 A 
ATOM      4  C   UNL     1      -0.951  11.766  20.460  0.00  0.00    +0.000 A 
ATOM      5  C   UNL     1      -0.750  10.927  21.558  0.00  0.00    +0.000 A 
ATOM      6  C   UNL     1      -1.479  11.313  22.726  0.00  0.00    +0.000 A 
ATOM      7  C   UNL     1       0.530  10.346  21.295  0.00  0.00    +0.000 A 
ATOM      8  C   UNL     1       1.230  11.485  20.900  0.00  0.00    +0.000 A 
ATOM      9  N   UNL     1       0.316  11.931  19.941  0.00  0.00    +0.000 N 
ATOM     10  C   UNL     1       0.693  12.507  18.676  0.00  0.00    +0.000 C 
ENDROOT
BRANCH   7  11
ATOM     11  C   UNL     1       1.036   9.122  20.525  0.00  0.00    +0.000 A 
ATOM     12  N   UNL     1       1.094   7.963  21.155  0.00  0.00    +0.000 NA
ATOM     13  C   UNL     1       1.709   7.091  20.317  0.00  0.00    +0.000 A 
ATOM     14  C   UNL     1       1.905   5.722  20.505  0.00  0.00    +0.000 A 
ATOM     15  C   UNL     1       2.440   4.953  19.462  0.00  0.00    +0.000 A 
ATOM     16  C   UNL     1       2.355   3.456  19.616  0.00  0.00    +0.000 C 
ATOM     17  C   UNL     1       2.980   5.595  18.330  0.00  0.00    +0.000 A 
ATOM     18  C   UNL     1       3.795   4.815  17.324  0.00  0.00    +0.000 C 
ATOM     19  C   UNL     1       2.822   7.004  18.160  0.00  0.00    +0.000 A 
ATOM     20  C   UNL     1       2.123   7.713  19.149  0.00  0.00    +0.000 A 
ATOM     21  N   UNL     1       1.677   9.023  19.302  0.00  0.00    +0.000 N 
ATOM     22  H   UNL     1       1.830   9.780  18.654  0.00  0.00    +0.000 HD
ENDBRANCH   7  11
BRANCH   1  23
ATOM     23  C   UNL     1      -3.233  12.908  23.764  0.00  0.00    +0.000 C 
ATOM     24  O   UNL     1      -4.161  12.358  24.365  0.00  0.00    +0.000 OA
BRANCH  23  27
ATOM     25  C   UNL     1      -1.138  15.955  24.449  0.00  0.00    +0.000 A 
ATOM     26  C   UNL     1      -1.518  14.628  24.211  0.00  0.00    +0.000 A 
ATOM     27  C   UNL     1      -2.849  14.264  24.195  0.00  0.00    +0.000 A 
ATOM     28  C   UNL     1      -3.809  15.199  24.614  0.00  0.00    +0.000 A 
ATOM     29  C   UNL     1      -3.434  16.507  24.981  0.00  0.00    +0.000 A 
ATOM     30  C   UNL     1      -2.078  16.909  24.892  0.00  0.00    +0.000 A 
BRANCH  25  32
ATOM     31  C   UNL     1       0.482  16.819  22.963  0.00  0.00    +0.000 C 
ATOM     32  O   UNL     1       0.178  16.300  24.263  0.00  0.00    +0.000 OA
ENDBRANCH  25  32
BRANCH  29  33
ATOM     33  O   UNL     1      -4.524  17.258  25.367  0.00  0.00    +0.000 OA
ATOM     34  C   UNL     1      -5.412  17.767  24.382  0.00  0.00    +0.000 C 
ENDBRANCH  29  33
BRANCH  30  35
ATOM     35  O   UNL     1      -1.800  18.202  25.257  0.00  0.00    +0.000 OA
ATOM     36  C   UNL     1      -1.210  18.472  26.514  0.00  0.00    +0.000 C 
ENDBRANCH  30  35
ENDBRANCH  23  27
ENDBRANCH   1  23
TORSDOF 6
ENDMDL
