MODEL 1
REMARK VINA RESULT:      -7.8      0.000      0.000
REMARK  Name = 
REMARK  9 active torsions:
REMARK  status: ('A' for Active; 'I' for Inactive)
REMARK    1  A    between atoms: C_1  and  C_2
REMARK    2  A    between atoms: C_2  and  C_3
REMARK    3  A    between atoms: C_3  and  N_4
REMARK    4  A    between atoms: N_9  and  S_10
REMARK    5  A    between atoms: S_10  and  C_13
REMARK    6  A    between atoms: C_16  and  N_17
REMARK    7  A    between atoms: C_19  and  C_20
REMARK    8  A    between atoms: C_20  and  O_22
REMARK    9  A    between atoms: C_24  and  C_25
REMARK                            x       y       z     vdW  Elec       q    Type
REMARK                         _______ _______ _______ _____ _____    ______ ____
ROOT
ATOM      1  C   UNL     1       1.446   8.420  20.073  0.00  0.00    +0.000 A 
ATOM      2  C   UNL     1       1.851   8.755  18.778  0.00  0.00    +0.000 A 
ATOM      3  C   UNL     1       2.627   7.857  18.034  0.00  0.00    +0.000 A 
ATOM      4  C   UNL     1       2.970   6.605  18.568  0.00  0.00    +0.000 A 
ATOM      5  C   UNL     1       2.549   6.277  19.868  0.00  0.00    +0.000 A 
ATOM      6  C   UNL     1       1.795   7.184  20.624  0.00  0.00    +0.000 A 
ENDROOT
BRANCH   4   7
ATOM      7  N   UNL     1       3.794   5.720  17.808  0.00  0.00    +0.000 N 
ATOM      8  N   UNL     1       5.036   6.127  17.398  0.00  0.00    +0.000 NA
ATOM      9  C   UNL     1       5.611   5.017  16.891  0.00  0.00    +0.000 A 
ATOM     10  C   UNL     1       4.705   3.941  16.856  0.00  0.00    +0.000 A 
ATOM     11  C   UNL     1       3.531   4.420  17.395  0.00  0.00    +0.000 A 
ATOM     12  C   UNL     1       2.205   3.753  17.439  0.00  0.00    +0.000 C 
BRANCH   9  13
ATOM     13  C   UNL     1       7.001   5.014  16.431  0.00  0.00    +0.000 C 
ATOM     14  O   UNL     1       7.401   5.569  15.414  0.00  0.00    +0.000 OA
BRANCH  13  15
ATOM     15  O   UNL     1       7.825   4.305  17.256  0.00  0.00    +0.000 OA
ATOM     16  H   UNL     1       8.672   4.187  16.768  0.00  0.00    +0.000 HD
ENDBRANCH  13  15
ENDBRANCH   9  13
ENDBRANCH   4   7
BRANCH   1  17
ATOM     17  S   UNL     1       0.618   9.636  21.087  0.00  0.00    +0.000 S 
ATOM     18  O   UNL     1       1.532  10.023  22.142  0.00  0.00    +0.000 OA
ATOM     19  O   UNL     1      -0.679   9.090  21.396  0.00  0.00    +0.000 OA
BRANCH  17  25
ATOM     20  N   UNL     1      -1.413  12.477  19.997  0.00  0.00    +0.000 N 
ATOM     21  C   UNL     1      -0.637  13.564  20.368  0.00  0.00    +0.000 C 
ATOM     22  O   UNL     1      -0.999  14.733  20.226  0.00  0.00    +0.000 OA
ATOM     23  C   UNL     1       0.674  13.252  21.029  0.00  0.00    +0.000 C 
ATOM     24  C   UNL     1       1.400  12.113  20.360  0.00  0.00    +0.000 C 
ATOM     25  N   UNL     1       0.468  11.007  20.047  0.00  0.00    +0.000 N 
ATOM     26  C   UNL     1      -0.828  11.305  19.526  0.00  0.00    +0.000 C 
ATOM     27  S   UNL     1      -1.499  10.350  18.306  0.00  0.00    +0.000 S 
BRANCH  20  28
ATOM     28  C   UNL     1      -2.872  12.668  20.025  0.00  0.00    +0.000 C 
BRANCH  28  30
ATOM     29  C   UNL     1      -4.927  12.695  21.557  0.00  0.00    +0.000 C 
ATOM     30  C   UNL     1      -3.405  12.712  21.470  0.00  0.00    +0.000 C 
ENDBRANCH  28  30
ENDBRANCH  20  28
ENDBRANCH  17  25
ENDBRANCH   1  17
TORSDOF 7
ENDMDL
MODEL 2
REMARK VINA RESULT:      -7.5      0.539      1.110
REMARK  Name = 
REMARK  9 active torsions:
REMARK  status: ('A' for Active; 'I' for Inactive)
REMARK    1  A    between atoms: C_1  and  C_2
REMARK    2  A    between atoms: C_2  and  C_3
REMARK    3  A    between atoms: C_3  and  N_4
REMARK    4  A    between atoms: N_9  and  S_10
REMARK    5  A    between atoms: S_10  and  C_13
REMARK    6  A    between atoms: C_16  and  N_17
REMARK    7  A    between atoms: C_19  and  C_20
REMARK    8  A    between atoms: C_20  and  O_22
REMARK    9  A    between atoms: C_24  and  C_25
REMARK                            x       y       z     vdW  Elec       q    Type
REMARK                         _______ _______ _______ _____ _____    ______ ____
ROOT
ATOM      1  C   UNL     1       1.514   8.646  19.965  0.00  0.00    +0.000 A 
ATOM      2  C   UNL     1       1.939   7.433  20.516  0.00  0.00    +0.000 A 
ATOM      3  C   UNL     1       2.619   6.504  19.720  0.00  0.00    +0.000 A 
ATOM      4  C   UNL     1       2.910   6.797  18.378  0.00  0.00    +0.000 A 
ATOM      5  C   UNL     1       2.486   8.024  17.838  0.00  0.00    +0.000 A 
ATOM      6  C   UNL     1       1.783   8.944  18.627  0.00  0.00    +0.000 A 
ENDROOT
BRANCH   4   7
ATOM      7  N   UNL     1       3.571   5.820  17.573  0.00  0.00    +0.000 N 
ATOM      8  N   UNL     1       4.695   6.165  16.869  0.00  0.00    +0.000 NA
ATOM      9  C   UNL     1       5.169   4.996  16.387  0.00  0.00    +0.000 A 
ATOM     10  C   UNL     1       4.292   3.933  16.668  0.00  0.00    +0.000 A 
ATOM     11  C   UNL     1       3.248   4.483  17.379  0.00  0.00    +0.000 A 
ATOM     12  C   UNL     1       1.971   3.839  17.776  0.00  0.00    +0.000 C 
BRANCH   9  13
ATOM     13  C   UNL     1       6.433   4.926  15.651  0.00  0.00    +0.000 C 
ATOM     14  O   UNL     1       7.365   5.709  15.790  0.00  0.00    +0.000 OA
BRANCH  13  15
ATOM     15  O   UNL     1       6.468   3.888  14.766  0.00  0.00    +0.000 OA
ATOM     16  H   UNL     1       5.548   3.778  14.432  0.00  0.00    +0.000 HD
ENDBRANCH  13  15
ENDBRANCH   9  13
ENDBRANCH   4   7
BRANCH   1  17
ATOM     17  S   UNL     1       0.487   9.746  20.927  0.00  0.00    +0.000 S 
ATOM     18  O   UNL     1       1.277  10.216  22.047  0.00  0.00    +0.000 OA
ATOM     19  O   UNL     1      -0.759   9.055  21.139  0.00  0.00    +0.000 OA
BRANCH  17  25
ATOM     20  N   UNL     1      -1.666  12.523  19.908  0.00  0.00    +0.000 N 
ATOM     21  C   UNL     1      -0.908  13.634  20.246  0.00  0.00    +0.000 C 
ATOM     22  O   UNL     1      -1.309  14.791  20.115  0.00  0.00    +0.000 OA
ATOM     23  C   UNL     1       0.436  13.362  20.857  0.00  0.00    +0.000 C 
ATOM     24  C   UNL     1       1.168  12.243  20.164  0.00  0.00    +0.000 C 
ATOM     25  N   UNL     1       0.257  11.108  19.890  0.00  0.00    +0.000 N 
ATOM     26  C   UNL     1      -1.066  11.367  19.418  0.00  0.00    +0.000 C 
ATOM     27  S   UNL     1      -1.755  10.387  18.228  0.00  0.00    +0.000 S 
BRANCH  20  28
ATOM     28  C   UNL     1      -3.128  12.671  19.992  0.00  0.00    +0.000 C 
BRANCH  28  30
ATOM     29  C   UNL     1      -5.127  12.714  21.597  0.00  0.00    +0.000 C 
ATOM     30  C   UNL     1      -3.609  12.676  21.456  0.00  0.00    +0.000 C 
ENDBRANCH  28  30
ENDBRANCH  20  28
ENDBRANCH  17  25
ENDBRANCH   1  17
TORSDOF 7
ENDMDL
MODEL 3
REMARK VINA RESULT:      -7.4      1.759      2.469
REMARK  Name = 
REMARK  9 active torsions:
REMARK  status: ('A' for Active; 'I' for Inactive)
REMARK    1  A    between atoms: C_1  and  C_2
REMARK    2  A    between atoms: C_2  and  C_3
REMARK    3  A    between atoms: C_3  and  N_4
REMARK    4  A    between atoms: N_9  and  S_10
REMARK    5  A    between atoms: S_10  and  C_13
REMARK    6  A    between atoms: C_16  and  N_17
REMARK    7  A    between atoms: C_19  and  C_20
REMARK    8  A    between atoms: C_20  and  O_22
REMARK    9  A    between atoms: C_24  and  C_25
REMARK                            x       y       z     vdW  Elec       q    Type
REMARK                         _______ _______ _______ _____ _____    ______ ____
ROOT
ATOM      1  C   UNL     1       1.395   9.746  19.297  0.00  0.00    +0.000 A 
ATOM      2  C   UNL     1       1.869   9.640  17.986  0.00  0.00    +0.000 A 
ATOM      3  C   UNL     1       2.501   8.464  17.565  0.00  0.00    +0.000 A 
ATOM      4  C   UNL     1       2.629   7.375  18.442  0.00  0.00    +0.000 A 
ATOM      5  C   UNL     1       2.140   7.490  19.754  0.00  0.00    +0.000 A 
ATOM      6  C   UNL     1       1.530   8.676  20.185  0.00  0.00    +0.000 A 
ENDROOT
BRANCH   4   7
ATOM      7  N   UNL     1       3.311   6.198  18.004  0.00  0.00    +0.000 N 
ATOM      8  N   UNL     1       4.647   6.254  17.708  0.00  0.00    +0.000 NA
ATOM      9  C   UNL     1       5.012   4.968  17.524  0.00  0.00    +0.000 A 
ATOM     10  C   UNL     1       3.901   4.108  17.574  0.00  0.00    +0.000 A 
ATOM     11  C   UNL     1       2.812   4.914  17.827  0.00  0.00    +0.000 A 
ATOM     12  C   UNL     1       1.374   4.542  17.809  0.00  0.00    +0.000 C 
BRANCH   9  13
ATOM     13  C   UNL     1       6.407   4.593  17.284  0.00  0.00    +0.000 C 
ATOM     14  O   UNL     1       6.967   4.649  16.195  0.00  0.00    +0.000 OA
BRANCH  13  15
ATOM     15  O   UNL     1       7.033   4.151  18.412  0.00  0.00    +0.000 OA
ATOM     16  H   UNL     1       7.651   3.439  18.126  0.00  0.00    +0.000 HD
ENDBRANCH  13  15
ENDBRANCH   9  13
ENDBRANCH   4   7
BRANCH   1  17
ATOM     17  S   UNL     1       0.759  11.308  19.886  0.00  0.00    +0.000 S 
ATOM     18  O   UNL     1       0.649  12.196  18.747  0.00  0.00    +0.000 OA
ATOM     19  O   UNL     1       1.562  11.667  21.028  0.00  0.00    +0.000 OA
BRANCH  17  25
ATOM     20  N   UNL     1      -2.111  12.180  21.981  0.00  0.00    +0.000 N 
ATOM     21  C   UNL     1      -3.080  12.511  21.046  0.00  0.00    +0.000 C 
ATOM     22  O   UNL     1      -4.199  12.924  21.349  0.00  0.00    +0.000 OA
ATOM     23  C   UNL     1      -2.676  12.403  19.604  0.00  0.00    +0.000 C 
ATOM     24  C   UNL     1      -1.875  11.160  19.320  0.00  0.00    +0.000 C 
ATOM     25  N   UNL     1      -0.857  10.939  20.372  0.00  0.00    +0.000 N 
ATOM     26  C   UNL     1      -1.203  11.153  21.742  0.00  0.00    +0.000 C 
ATOM     27  S   UNL     1      -0.640  10.105  22.939  0.00  0.00    +0.000 S 
BRANCH  20  28
ATOM     28  C   UNL     1      -2.166  12.892  23.267  0.00  0.00    +0.000 C 
BRANCH  28  30
ATOM     29  C   UNL     1      -1.485  15.309  22.747  0.00  0.00    +0.000 C 
ATOM     30  C   UNL     1      -1.072  13.974  23.358  0.00  0.00    +0.000 C 
ENDBRANCH  28  30
ENDBRANCH  20  28
ENDBRANCH  17  25
ENDBRANCH   1  17
TORSDOF 7
ENDMDL
MODEL 4
REMARK VINA RESULT:      -7.4      1.908      2.787
REMARK  Name = 
REMARK  9 active torsions:
REMARK  status: ('A' for Active; 'I' for Inactive)
REMARK    1  A    between atoms: C_1  and  C_2
REMARK    2  A    between atoms: C_2  and  C_3
REMARK    3  A    between atoms: C_3  and  N_4
REMARK    4  A    between atoms: N_9  and  S_10
REMARK    5  A    between atoms: S_10  and  C_13
REMARK    6  A    between atoms: C_16  and  N_17
REMARK    7  A    between atoms: C_19  and  C_20
REMARK    8  A    between atoms: C_20  and  O_22
REMARK    9  A    between atoms: C_24  and  C_25
REMARK                            x       y       z     vdW  Elec       q    Type
REMARK                         _______ _______ _______ _____ _____    ______ ____
ROOT
ATOM      1  C   UNL     1       0.972   9.657  19.156  0.00  0.00    +0.000 A 
ATOM      2  C   UNL     1       1.260   8.619  20.048  0.00  0.00    +0.000 A 
ATOM      3  C   UNL     1       2.111   7.578  19.657  0.00  0.00    +0.000 A 
ATOM      4  C   UNL     1       2.707   7.588  18.386  0.00  0.00    +0.000 A 
ATOM      5  C   UNL     1       2.418   8.642  17.503  0.00  0.00    +0.000 A 
ATOM      6  C   UNL     1       1.546   9.671  17.882  0.00  0.00    +0.000 A 
ENDROOT
BRANCH   4   7
ATOM      7  N   UNL     1       3.542   6.498  17.994  0.00  0.00    +0.000 N 
ATOM      8  N   UNL     1       4.848   6.729  17.647  0.00  0.00    +0.000 NA
ATOM      9  C   UNL     1       5.392   5.500  17.525  0.00  0.00    +0.000 A 
ATOM     10  C   UNL     1       4.420   4.493  17.663  0.00  0.00    +0.000 A 
ATOM     11  C   UNL     1       3.232   5.147  17.908  0.00  0.00    +0.000 A 
ATOM     12  C   UNL     1       1.865   4.570  17.962  0.00  0.00    +0.000 C 
BRANCH   9  13
ATOM     13  C   UNL     1       6.820   5.317  17.257  0.00  0.00    +0.000 C 
ATOM     14  O   UNL     1       7.476   5.995  16.474  0.00  0.00    +0.000 OA
BRANCH  13  15
ATOM     15  O   UNL     1       7.359   4.286  17.970  0.00  0.00    +0.000 OA
ATOM     16  H   UNL     1       8.148   4.652  18.434  0.00  0.00    +0.000 HD
ENDBRANCH  13  15
ENDBRANCH   9  13
ENDBRANCH   4   7
BRANCH   1  17
ATOM     17  S   UNL     1      -0.255  10.881  19.586  0.00  0.00    +0.000 S 
ATOM     18  O   UNL     1      -1.487  10.181  19.888  0.00  0.00    +0.000 OA
ATOM     19  O   UNL     1      -0.209  11.882  18.549  0.00  0.00    +0.000 OA
BRANCH  17  25
ATOM     20  N   UNL     1       0.035  13.797  21.776  0.00  0.00    +0.000 N 
ATOM     21  C   UNL     1      -0.708  13.419  22.884  0.00  0.00    +0.000 C 
ATOM     22  O   UNL     1      -0.912  14.160  23.847  0.00  0.00    +0.000 OA
ATOM     23  C   UNL     1      -1.328  12.052  22.835  0.00  0.00    +0.000 C 
ATOM     24  C   UNL     1      -0.390  11.014  22.277  0.00  0.00    +0.000 C 
ATOM     25  N   UNL     1       0.315  11.530  21.082  0.00  0.00    +0.000 N 
ATOM     26  C   UNL     1       0.805  12.872  21.079  0.00  0.00    +0.000 C 
ATOM     27  S   UNL     1       2.304  13.232  20.391  0.00  0.00    +0.000 S 
BRANCH  20  28
ATOM     28  C   UNL     1       0.049  15.232  21.451  0.00  0.00    +0.000 C 
BRANCH  28  30
ATOM     29  C   UNL     1      -0.322  15.683  18.954  0.00  0.00    +0.000 C 
ATOM     30  C   UNL     1      -0.960  15.565  20.334  0.00  0.00    +0.000 C 
ENDBRANCH  28  30
ENDBRANCH  20  28
ENDBRANCH  17  25
ENDBRANCH   1  17
TORSDOF 7
ENDMDL
MODEL 5
REMARK VINA RESULT:      -7.2      0.679      1.049
REMARK  Name = 
REMARK  9 active torsions:
REMARK  status: ('A' for Active; 'I' for Inactive)
REMARK    1  A    between atoms: C_1  and  C_2
REMARK    2  A    between atoms: C_2  and  C_3
REMARK    3  A    between atoms: C_3  and  N_4
REMARK    4  A    between atoms: N_9  and  S_10
REMARK    5  A    between atoms: S_10  and  C_13
REMARK    6  A    between atoms: C_16  and  N_17
REMARK    7  A    between atoms: C_19  and  C_20
REMARK    8  A    between atoms: C_20  and  O_22
REMARK    9  A    between atoms: C_24  and  C_25
REMARK                            x       y       z     vdW  Elec       q    Type
REMARK                         _______ _______ _______ _____ _____    ______ ____
ROOT
ATOM      1  C   UNL     1       1.468   8.317  20.061  0.00  0.00    +0.000 A 
ATOM      2  C   UNL     1       1.930   8.676  18.791  0.00  0.00    +0.000 A 
ATOM      3  C   UNL     1       2.723   7.783  18.059  0.00  0.00    +0.000 A 
ATOM      4  C   UNL     1       3.026   6.514  18.577  0.00  0.00    +0.000 A 
ATOM      5  C   UNL     1       2.547   6.162  19.850  0.00  0.00    +0.000 A 
ATOM      6  C   UNL     1       1.775   7.064  20.596  0.00  0.00    +0.000 A 
ENDROOT
BRANCH   4   7
ATOM      7  N   UNL     1       3.867   5.633  17.830  0.00  0.00    +0.000 N 
ATOM      8  N   UNL     1       5.125   6.037  17.468  0.00  0.00    +0.000 NA
ATOM      9  C   UNL     1       5.707   4.929  16.962  0.00  0.00    +0.000 A 
ATOM     10  C   UNL     1       4.795   3.862  16.881  0.00  0.00    +0.000 A 
ATOM     11  C   UNL     1       3.607   4.342  17.389  0.00  0.00    +0.000 A 
ATOM     12  C   UNL     1       2.276   3.685  17.379  0.00  0.00    +0.000 C 
BRANCH   9  13
ATOM     13  C   UNL     1       7.112   4.921  16.548  0.00  0.00    +0.000 C 
ATOM     14  O   UNL     1       8.012   4.345  17.147  0.00  0.00    +0.000 OA
BRANCH  13  15
ATOM     15  O   UNL     1       7.329   5.647  15.413  0.00  0.00    +0.000 OA
ATOM     16  H   UNL     1       8.215   6.063  15.515  0.00  0.00    +0.000 HD
ENDBRANCH  13  15
ENDBRANCH   9  13
ENDBRANCH   4   7
BRANCH   1  17
ATOM     17  S   UNL     1       0.617   9.523  21.068  0.00  0.00    +0.000 S 
ATOM     18  O   UNL     1       1.543   9.976  22.086  0.00  0.00    +0.000 OA
ATOM     19  O   UNL     1      -0.646   8.929  21.429  0.00  0.00    +0.000 OA
BRANCH  17  25
ATOM     20  N   UNL     1      -1.615  12.169  19.887  0.00  0.00    +0.000 N 
ATOM     21  C   UNL     1      -0.937  13.323  20.251  0.00  0.00    +0.000 C 
ATOM     22  O   UNL     1      -1.389  14.455  20.081  0.00  0.00    +0.000 OA
ATOM     23  C   UNL     1       0.382  13.129  20.942  0.00  0.00    +0.000 C 
ATOM     24  C   UNL     1       1.210  12.042  20.308  0.00  0.00    +0.000 C 
ATOM     25  N   UNL     1       0.377  10.858  20.000  0.00  0.00    +0.000 N 
ATOM     26  C   UNL     1      -0.929  11.041  19.449  0.00  0.00    +0.000 C 
ATOM     27  S   UNL     1      -1.496  10.013  18.237  0.00  0.00    +0.000 S 
BRANCH  20  28
ATOM     28  C   UNL     1      -3.085  12.242  19.885  0.00  0.00    +0.000 C 
BRANCH  28  30
ATOM     29  C   UNL     1      -5.154  11.823  18.429  0.00  0.00    +0.000 C 
ATOM     30  C   UNL     1      -3.652  12.090  18.460  0.00  0.00    +0.000 C 
ENDBRANCH  28  30
ENDBRANCH  20  28
ENDBRANCH  17  25
ENDBRANCH   1  17
TORSDOF 7
ENDMDL
MODEL 6
REMARK VINA RESULT:      -7.2      1.177      1.232
REMARK  Name = 
REMARK  9 active torsions:
REMARK  status: ('A' for Active; 'I' for Inactive)
REMARK    1  A    between atoms: C_1  and  C_2
REMARK    2  A    between atoms: C_2  and  C_3
REMARK    3  A    between atoms: C_3  and  N_4
REMARK    4  A    between atoms: N_9  and  S_10
REMARK    5  A    between atoms: S_10  and  C_13
REMARK    6  A    between atoms: C_16  and  N_17
REMARK    7  A    between atoms: C_19  and  C_20
REMARK    8  A    between atoms: C_20  and  O_22
REMARK    9  A    between atoms: C_24  and  C_25
REMARK                            x       y       z     vdW  Elec       q    Type
REMARK                         _______ _______ _______ _____ _____    ______ ____
ROOT
ATOM      1  C   UNL     1       1.363   8.869  19.709  0.00  0.00    +0.000 A 
ATOM      2  C   UNL     1       1.749   9.055  18.378  0.00  0.00    +0.000 A 
ATOM      3  C   UNL     1       2.530   8.087  17.735  0.00  0.00    +0.000 A 
ATOM      4  C   UNL     1       2.897   6.911  18.408  0.00  0.00    +0.000 A 
ATOM      5  C   UNL     1       2.496   6.731  19.742  0.00  0.00    +0.000 A 
ATOM      6  C   UNL     1       1.736   7.711  20.396  0.00  0.00    +0.000 A 
ENDROOT
BRANCH   4   7
ATOM      7  N   UNL     1       3.726   5.954  17.746  0.00  0.00    +0.000 N 
ATOM      8  N   UNL     1       4.973   6.317  17.310  0.00  0.00    +0.000 NA
ATOM      9  C   UNL     1       5.549   5.161  16.919  0.00  0.00    +0.000 A 
ATOM     10  C   UNL     1       4.641   4.088  16.982  0.00  0.00    +0.000 A 
ATOM     11  C   UNL     1       3.463   4.620  17.460  0.00  0.00    +0.000 A 
ATOM     12  C   UNL     1       2.135   3.963  17.556  0.00  0.00    +0.000 C 
BRANCH   9  13
ATOM     13  C   UNL     1       6.944   5.110  16.476  0.00  0.00    +0.000 C 
ATOM     14  O   UNL     1       7.380   5.675  15.479  0.00  0.00    +0.000 OA
BRANCH  13  15
ATOM     15  O   UNL     1       7.726   4.344  17.290  0.00  0.00    +0.000 OA
ATOM     16  H   UNL     1       7.334   4.407  18.191  0.00  0.00    +0.000 HD
ENDBRANCH  13  15
ENDBRANCH   9  13
ENDBRANCH   4   7
BRANCH   1  17
ATOM     17  S   UNL     1       0.529  10.184  20.583  0.00  0.00    +0.000 S 
ATOM     18  O   UNL     1       1.369  10.573  21.698  0.00  0.00    +0.000 OA
ATOM     19  O   UNL     1      -0.823   9.733  20.799  0.00  0.00    +0.000 OA
BRANCH  17  25
ATOM     20  N   UNL     1      -0.473  13.624  19.846  0.00  0.00    +0.000 N 
ATOM     21  C   UNL     1       0.744  14.285  19.773  0.00  0.00    +0.000 C 
ATOM     22  O   UNL     1       0.844  15.500  19.596  0.00  0.00    +0.000 OA
ATOM     23  C   UNL     1       1.970  13.448  19.991  0.00  0.00    +0.000 C 
ATOM     24  C   UNL     1       1.892  12.118  19.288  0.00  0.00    +0.000 C 
ATOM     25  N   UNL     1       0.558  11.504  19.470  0.00  0.00    +0.000 N 
ATOM     26  C   UNL     1      -0.611  12.321  19.379  0.00  0.00    +0.000 C 
ATOM     27  S   UNL     1      -1.998  11.745  18.608  0.00  0.00    +0.000 S 
BRANCH  20  28
ATOM     28  C   UNL     1      -1.619  14.406  20.337  0.00  0.00    +0.000 C 
BRANCH  28  30
ATOM     29  C   UNL     1      -1.761  13.205  22.598  0.00  0.00    +0.000 C 
ATOM     30  C   UNL     1      -1.594  14.536  21.872  0.00  0.00    +0.000 C 
ENDBRANCH  28  30
ENDBRANCH  20  28
ENDBRANCH  17  25
ENDBRANCH   1  17
TORSDOF 7
ENDMDL
MODEL 7
REMARK VINA RESULT:      -7.2      1.751      2.421
REMARK  Name = 
REMARK  9 active torsions:
REMARK  status: ('A' for Active; 'I' for Inactive)
REMARK    1  A    between atoms: C_1  and  C_2
REMARK    2  A    between atoms: C_2  and  C_3
REMARK    3  A    between atoms: C_3  and  N_4
REMARK    4  A    between atoms: N_9  and  S_10
REMARK    5  A    between atoms: S_10  and  C_13
REMARK    6  A    between atoms: C_16  and  N_17
REMARK    7  A    between atoms: C_19  and  C_20
REMARK    8  A    between atoms: C_20  and  O_22
REMARK    9  A    between atoms: C_24  and  C_25
REMARK                            x       y       z     vdW  Elec       q    Type
REMARK                         _______ _______ _______ _____ _____    ______ ____
ROOT
ATOM      1  C   UNL     1       1.424   9.680  19.283  0.00  0.00    +0.000 A 
ATOM      2  C   UNL     1       1.928   9.571  17.983  0.00  0.00    +0.000 A 
ATOM      3  C   UNL     1       2.578   8.397  17.583  0.00  0.00    +0.000 A 
ATOM      4  C   UNL     1       2.696   7.314  18.467  0.00  0.00    +0.000 A 
ATOM      5  C   UNL     1       2.177   7.432  19.768  0.00  0.00    +0.000 A 
ATOM      6  C   UNL     1       1.549   8.616  20.179  0.00  0.00    +0.000 A 
ENDROOT
BRANCH   4   7
ATOM      7  N   UNL     1       3.396   6.140  18.051  0.00  0.00    +0.000 N 
ATOM      8  N   UNL     1       4.745   6.197  17.822  0.00  0.00    +0.000 NA
ATOM      9  C   UNL     1       5.117   4.912  17.642  0.00  0.00    +0.000 A 
ATOM     10  C   UNL     1       4.002   4.054  17.627  0.00  0.00    +0.000 A 
ATOM     11  C   UNL     1       2.904   4.859  17.835  0.00  0.00    +0.000 A 
ATOM     12  C   UNL     1       1.468   4.491  17.742  0.00  0.00    +0.000 C 
BRANCH   9  13
ATOM     13  C   UNL     1       6.521   4.536  17.467  0.00  0.00    +0.000 C 
ATOM     14  O   UNL     1       7.335   4.435  18.378  0.00  0.00    +0.000 OA
BRANCH  13  15
ATOM     15  O   UNL     1       6.847   4.319  16.160  0.00  0.00    +0.000 OA
ATOM     16  H   UNL     1       7.451   5.052  15.899  0.00  0.00    +0.000 HD
ENDBRANCH  13  15
ENDBRANCH   9  13
ENDBRANCH   4   7
BRANCH   1  17
ATOM     17  S   UNL     1       0.763  11.239  19.850  0.00  0.00    +0.000 S 
ATOM     18  O   UNL     1       0.791  12.161  18.732  0.00  0.00    +0.000 OA
ATOM     19  O   UNL     1       1.450  11.547  21.079  0.00  0.00    +0.000 OA
BRANCH  17  25
ATOM     20  N   UNL     1      -2.517  12.508  20.854  0.00  0.00    +0.000 N 
ATOM     21  C   UNL     1      -3.280  12.314  19.713  0.00  0.00    +0.000 C 
ATOM     22  O   UNL     1      -4.455  12.671  19.616  0.00  0.00    +0.000 OA
ATOM     23  C   UNL     1      -2.578  11.691  18.541  0.00  0.00    +0.000 C 
ATOM     24  C   UNL     1      -1.683  10.549  18.946  0.00  0.00    +0.000 C 
ATOM     25  N   UNL     1      -0.902  10.896  20.155  0.00  0.00    +0.000 N 
ATOM     26  C   UNL     1      -1.537  11.594  21.227  0.00  0.00    +0.000 C 
ATOM     27  S   UNL     1      -1.196  11.190  22.831  0.00  0.00    +0.000 S 
BRANCH  20  28
ATOM     28  C   UNL     1      -2.873  13.662  21.696  0.00  0.00    +0.000 C 
BRANCH  28  30
ATOM     29  C   UNL     1      -3.342  16.019  20.801  0.00  0.00    +0.000 C 
ATOM     30  C   UNL     1      -2.285  14.971  21.133  0.00  0.00    +0.000 C 
ENDBRANCH  28  30
ENDBRANCH  20  28
ENDBRANCH  17  25
ENDBRANCH   1  17
TORSDOF 7
ENDMDL
MODEL 8
REMARK VINA RESULT:      -7.1      1.706      2.309
REMARK  Name = 
REMARK  9 active torsions:
REMARK  status: ('A' for Active; 'I' for Inactive)
REMARK    1  A    between atoms: C_1  and  C_2
REMARK    2  A    between atoms: C_2  and  C_3
REMARK    3  A    between atoms: C_3  and  N_4
REMARK    4  A    between atoms: N_9  and  S_10
REMARK    5  A    between atoms: S_10  and  C_13
REMARK    6  A    between atoms: C_16  and  N_17
REMARK    7  A    between atoms: C_19  and  C_20
REMARK    8  A    between atoms: C_20  and  O_22
REMARK    9  A    between atoms: C_24  and  C_25
REMARK                            x       y       z     vdW  Elec       q    Type
REMARK                         _______ _______ _______ _____ _____    ______ ____
ROOT
ATOM      1  C   UNL     1       1.420   9.618  19.387  0.00  0.00    +0.000 A 
ATOM      2  C   UNL     1       1.862   9.528  18.063  0.00  0.00    +0.000 A 
ATOM      3  C   UNL     1       2.486   8.357  17.614  0.00  0.00    +0.000 A 
ATOM      4  C   UNL     1       2.637   7.258  18.474  0.00  0.00    +0.000 A 
ATOM      5  C   UNL     1       2.179   7.358  19.799  0.00  0.00    +0.000 A 
ATOM      6  C   UNL     1       1.579   8.538  20.259  0.00  0.00    +0.000 A 
ENDROOT
BRANCH   4   7
ATOM      7  N   UNL     1       3.309   6.088  18.007  0.00  0.00    +0.000 N 
ATOM      8  N   UNL     1       4.641   6.147  17.692  0.00  0.00    +0.000 NA
ATOM      9  C   UNL     1       5.001   4.863  17.481  0.00  0.00    +0.000 A 
ATOM     10  C   UNL     1       3.888   4.004  17.533  0.00  0.00    +0.000 A 
ATOM     11  C   UNL     1       2.805   4.808  17.816  0.00  0.00    +0.000 A 
ATOM     12  C   UNL     1       1.367   4.439  17.813  0.00  0.00    +0.000 C 
BRANCH   9  13
ATOM     13  C   UNL     1       6.391   4.490  17.213  0.00  0.00    +0.000 C 
ATOM     14  O   UNL     1       7.355   4.882  17.860  0.00  0.00    +0.000 OA
BRANCH  13  15
ATOM     15  O   UNL     1       6.513   3.655  16.141  0.00  0.00    +0.000 OA
ATOM     16  H   UNL     1       6.068   2.813  16.393  0.00  0.00    +0.000 HD
ENDBRANCH  13  15
ENDBRANCH   9  13
ENDBRANCH   4   7
BRANCH   1  17
ATOM     17  S   UNL     1       0.796  11.172  20.009  0.00  0.00    +0.000 S 
ATOM     18  O   UNL     1       0.871  12.138  18.932  0.00  0.00    +0.000 OA
ATOM     19  O   UNL     1       1.471  11.406  21.261  0.00  0.00    +0.000 OA
BRANCH  17  25
ATOM     20  N   UNL     1      -2.447  12.476  21.088  0.00  0.00    +0.000 N 
ATOM     21  C   UNL     1      -3.204  12.404  19.928  0.00  0.00    +0.000 C 
ATOM     22  O   UNL     1      -4.364  12.810  19.851  0.00  0.00    +0.000 OA
ATOM     23  C   UNL     1      -2.512  11.852  18.715  0.00  0.00    +0.000 C 
ATOM     24  C   UNL     1      -1.663  10.648  19.033  0.00  0.00    +0.000 C 
ATOM     25  N   UNL     1      -0.883  10.867  20.272  0.00  0.00    +0.000 N 
ATOM     26  C   UNL     1      -1.504  11.499  21.393  0.00  0.00    +0.000 C 
ATOM     27  S   UNL     1      -1.195  10.954  22.960  0.00  0.00    +0.000 S 
BRANCH  20  28
ATOM     28  C   UNL     1      -2.769  13.570  22.018  0.00  0.00    +0.000 C 
BRANCH  28  30
ATOM     29  C   UNL     1      -3.659  13.705  24.419  0.00  0.00    +0.000 C 
ATOM     30  C   UNL     1      -3.872  13.156  23.012  0.00  0.00    +0.000 C 
ENDBRANCH  28  30
ENDBRANCH  20  28
ENDBRANCH  17  25
ENDBRANCH   1  17
TORSDOF 7
ENDMDL
MODEL 9
REMARK VINA RESULT:      -7.1      2.557      3.528
REMARK  Name = 
REMARK  9 active torsions:
REMARK  status: ('A' for Active; 'I' for Inactive)
REMARK    1  A    between atoms: C_1  and  C_2
REMARK    2  A    between atoms: C_2  and  C_3
REMARK    3  A    between atoms: C_3  and  N_4
REMARK    4  A    between atoms: N_9  and  S_10
REMARK    5  A    between atoms: S_10  and  C_13
REMARK    6  A    between atoms: C_16  and  N_17
REMARK    7  A    between atoms: C_19  and  C_20
REMARK    8  A    between atoms: C_20  and  O_22
REMARK    9  A    between atoms: C_24  and  C_25
REMARK                            x       y       z     vdW  Elec       q    Type
REMARK                         _______ _______ _______ _____ _____    ______ ____
ROOT
ATOM      1  C   UNL     1       1.442   9.830  19.423  0.00  0.00    +0.000 A 
ATOM      2  C   UNL     1       1.510   8.816  20.383  0.00  0.00    +0.000 A 
ATOM      3  C   UNL     1       1.934   7.533  20.014  0.00  0.00    +0.000 A 
ATOM      4  C   UNL     1       2.329   7.268  18.693  0.00  0.00    +0.000 A 
ATOM      5  C   UNL     1       2.265   8.299  17.740  0.00  0.00    +0.000 A 
ATOM      6  C   UNL     1       1.816   9.577  18.101  0.00  0.00    +0.000 A 
ENDROOT
BRANCH   4   7
ATOM      7  N   UNL     1       2.722   5.944  18.330  0.00  0.00    +0.000 N 
ATOM      8  N   UNL     1       1.986   4.872  18.760  0.00  0.00    +0.000 NA
ATOM      9  C   UNL     1       2.499   3.815  18.096  0.00  0.00    +0.000 A 
ATOM     10  C   UNL     1       3.633   4.181  17.348  0.00  0.00    +0.000 A 
ATOM     11  C   UNL     1       3.797   5.535  17.551  0.00  0.00    +0.000 A 
ATOM     12  C   UNL     1       4.936   6.391  17.134  0.00  0.00    +0.000 C 
BRANCH   9  13
ATOM     13  C   UNL     1       1.910   2.479  18.206  0.00  0.00    +0.000 C 
ATOM     14  O   UNL     1       0.716   2.254  18.369  0.00  0.00    +0.000 OA
BRANCH  13  15
ATOM     15  O   UNL     1       2.843   1.486  18.124  0.00  0.00    +0.000 OA
ATOM     16  H   UNL     1       3.570   1.836  17.559  0.00  0.00    +0.000 HD
ENDBRANCH  13  15
ENDBRANCH   9  13
ENDBRANCH   4   7
BRANCH   1  17
ATOM     17  S   UNL     1       0.726  11.410  19.851  0.00  0.00    +0.000 S 
ATOM     18  O   UNL     1       0.736  12.233  18.660  0.00  0.00    +0.000 OA
ATOM     19  O   UNL     1       1.392  11.843  21.054  0.00  0.00    +0.000 OA
BRANCH  17  25
ATOM     20  N   UNL     1      -2.604  12.652  20.715  0.00  0.00    +0.000 N 
ATOM     21  C   UNL     1      -3.348  12.333  19.589  0.00  0.00    +0.000 C 
ATOM     22  O   UNL     1      -4.533  12.640  19.452  0.00  0.00    +0.000 OA
ATOM     23  C   UNL     1      -2.614  11.633  18.483  0.00  0.00    +0.000 C 
ATOM     24  C   UNL     1      -1.686  10.561  18.994  0.00  0.00    +0.000 C 
ATOM     25  N   UNL     1      -0.930  11.039  20.173  0.00  0.00    +0.000 N 
ATOM     26  C   UNL     1      -1.599  11.808  21.175  0.00  0.00    +0.000 C 
ATOM     27  S   UNL     1      -1.261  11.559  22.810  0.00  0.00    +0.000 S 
BRANCH  20  28
ATOM     28  C   UNL     1      -3.006  13.863  21.448  0.00  0.00    +0.000 C 
BRANCH  28  30
ATOM     29  C   UNL     1      -3.141  16.330  20.760  0.00  0.00    +0.000 C 
ATOM     30  C   UNL     1      -2.249  15.106  20.938  0.00  0.00    +0.000 C 
ENDBRANCH  28  30
ENDBRANCH  20  28
ENDBRANCH  17  25
ENDBRANCH   1  17
TORSDOF 7
ENDMDL
