MODEL 1
REMARK VINA RESULT:      -7.8      0.000      0.000
REMARK  Name = 
REMARK  8 active torsions:
REMARK  status: ('A' for Active; 'I' for Inactive)
REMARK    1  A    between atoms: C_1  and  C_2
REMARK    2  A    between atoms: C_2  and  O_3
REMARK    3  A    between atoms: O_3  and  C_4
REMARK    4  A    between atoms: C_4  and  C_6
REMARK    5  A    between atoms: C_13  and  C_14
REMARK    6  A    between atoms: C_17  and  O_18
REMARK    7  A    between atoms: O_18  and  C_19
REMARK    8  A    between atoms: C_24  and  N_25
REMARK                            x       y       z     vdW  Elec       q    Type
REMARK                         _______ _______ _______ _____ _____    ______ ____
ROOT
ATOM      1  C   UNL     1       5.779   4.608  15.472  0.00  0.00    +0.000 A 
ATOM      2  C   UNL     1       5.434   3.590  16.382  0.00  0.00    +0.000 A 
ATOM      3  N   UNL     1       4.676   4.019  17.391  0.00  0.00    +0.000 NA
ATOM      4  N   UNL     1       4.481   5.346  17.124  0.00  0.00    +0.000 N 
ATOM      5  C   UNL     1       3.660   6.157  17.959  0.00  0.00    +0.000 A 
ATOM      6  C   UNL     1       3.129   5.632  19.126  0.00  0.00    +0.000 A 
ATOM      7  C   UNL     1       2.323   6.452  19.914  0.00  0.00    +0.000 A 
ATOM      8  C   UNL     1       2.067   7.759  19.507  0.00  0.00    +0.000 A 
ATOM      9  N   UNL     1       2.604   8.231  18.356  0.00  0.00    +0.000 NA
ATOM     10  N   UNL     1       3.408   7.432  17.584  0.00  0.00    +0.000 NA
ATOM     11  C   UNL     1       5.165   5.739  15.972  0.00  0.00    +0.000 A 
ENDROOT
BRANCH   8  12
ATOM     12  C   UNL     1       1.214   8.694  20.256  0.00  0.00    +0.000 A 
ATOM     13  C   UNL     1       0.928   8.512  21.619  0.00  0.00    +0.000 A 
ATOM     14  C   UNL     1       0.102   9.401  22.311  0.00  0.00    +0.000 A 
ATOM     15  C   UNL     1      -0.436  10.515  21.669  0.00  0.00    +0.000 A 
ATOM     16  C   UNL     1      -0.169  10.717  20.316  0.00  0.00    +0.000 A 
ATOM     17  C   UNL     1       0.649   9.818  19.623  0.00  0.00    +0.000 A 
BRANCH  15  18
ATOM     18  O   UNL     1      -1.237  11.304  22.444  0.00  0.00    +0.000 OA
ATOM     19  C   UNL     1      -1.987  12.290  21.744  0.00  0.00    +0.000 C 
ENDBRANCH  15  18
ENDBRANCH   8  12
BRANCH  11  20
ATOM     20  N   UNL     1       5.179   7.004  15.492  0.00  0.00    +0.000 N 
ATOM     21  H   UNL     1       5.396   7.221  14.516  0.00  0.00    +0.000 HD
ATOM     22  H   UNL     1       4.926   7.805  16.073  0.00  0.00    +0.000 HD
ENDBRANCH  11  20
BRANCH   1  23
ATOM     23  C   UNL     1       6.553   4.521  14.254  0.00  0.00    +0.000 C 
ATOM     24  O   UNL     1       7.266   5.427  13.836  0.00  0.00    +0.000 OA
BRANCH  23  25
ATOM     25  O   UNL     1       6.324   3.353  13.590  0.00  0.00    +0.000 OA
BRANCH  25  27
ATOM     26  C   UNL     1       4.751   3.349  11.800  0.00  0.00    +0.000 C 
ATOM     27  C   UNL     1       6.219   3.482  12.167  0.00  0.00    +0.000 C 
ENDBRANCH  25  27
ENDBRANCH  23  25
ENDBRANCH   1  23
TORSDOF 6
ENDMDL
MODEL 2
REMARK VINA RESULT:      -7.8      0.472      1.070
REMARK  Name = 
REMARK  8 active torsions:
REMARK  status: ('A' for Active; 'I' for Inactive)
REMARK    1  A    between atoms: C_1  and  C_2
REMARK    2  A    between atoms: C_2  and  O_3
REMARK    3  A    between atoms: O_3  and  C_4
REMARK    4  A    between atoms: C_4  and  C_6
REMARK    5  A    between atoms: C_13  and  C_14
REMARK    6  A    between atoms: C_17  and  O_18
REMARK    7  A    between atoms: O_18  and  C_19
REMARK    8  A    between atoms: C_24  and  N_25
REMARK                            x       y       z     vdW  Elec       q    Type
REMARK                         _______ _______ _______ _____ _____    ______ ____
ROOT
ATOM      1  C   UNL     1       5.872   4.633  15.572  0.00  0.00    +0.000 A 
ATOM      2  C   UNL     1       5.528   3.677  16.548  0.00  0.00    +0.000 A 
ATOM      3  N   UNL     1       4.729   4.159  17.501  0.00  0.00    +0.000 NA
ATOM      4  N   UNL     1       4.507   5.456  17.128  0.00  0.00    +0.000 N 
ATOM      5  C   UNL     1       3.641   6.304  17.876  0.00  0.00    +0.000 A 
ATOM      6  C   UNL     1       3.090   5.854  19.065  0.00  0.00    +0.000 A 
ATOM      7  C   UNL     1       2.240   6.708  19.766  0.00  0.00    +0.000 A 
ATOM      8  C   UNL     1       1.962   7.973  19.254  0.00  0.00    +0.000 A 
ATOM      9  N   UNL     1       2.519   8.371  18.086  0.00  0.00    +0.000 NA
ATOM     10  N   UNL     1       3.367   7.540  17.399  0.00  0.00    +0.000 NA
ATOM     11  C   UNL     1       5.214   5.781  15.969  0.00  0.00    +0.000 A 
ENDROOT
BRANCH   8  12
ATOM     12  C   UNL     1       1.063   8.937  19.906  0.00  0.00    +0.000 A 
ATOM     13  C   UNL     1       0.506  10.023  19.211  0.00  0.00    +0.000 A 
ATOM     14  C   UNL     1      -0.332  10.939  19.849  0.00  0.00    +0.000 A 
ATOM     15  C   UNL     1      -0.665  10.779  21.193  0.00  0.00    +0.000 A 
ATOM     16  C   UNL     1      -0.124   9.711  21.906  0.00  0.00    +0.000 A 
ATOM     17  C   UNL     1       0.726   8.801  21.266  0.00  0.00    +0.000 A 
BRANCH  15  18
ATOM     18  O   UNL     1      -1.482  11.743  21.710  0.00  0.00    +0.000 OA
ATOM     19  C   UNL     1      -1.251  12.074  23.075  0.00  0.00    +0.000 C 
ENDBRANCH  15  18
ENDBRANCH   8  12
BRANCH  11  20
ATOM     20  N   UNL     1       5.208   7.006  15.394  0.00  0.00    +0.000 N 
ATOM     21  H   UNL     1       5.194   7.871  15.939  0.00  0.00    +0.000 HD
ATOM     22  H   UNL     1       5.266   7.127  14.381  0.00  0.00    +0.000 HD
ENDBRANCH  11  20
BRANCH   1  23
ATOM     23  C   UNL     1       6.683   4.477  14.386  0.00  0.00    +0.000 C 
ATOM     24  O   UNL     1       7.526   5.290  14.028  0.00  0.00    +0.000 OA
BRANCH  23  25
ATOM     25  O   UNL     1       6.333   3.367  13.676  0.00  0.00    +0.000 OA
BRANCH  25  27
ATOM     26  C   UNL     1       4.847   3.256  11.818  0.00  0.00    +0.000 C 
ATOM     27  C   UNL     1       6.268   3.557  12.258  0.00  0.00    +0.000 C 
ENDBRANCH  25  27
ENDBRANCH  23  25
ENDBRANCH   1  23
TORSDOF 6
ENDMDL
MODEL 3
REMARK VINA RESULT:      -7.2      2.910      4.210
REMARK  Name = 
REMARK  8 active torsions:
REMARK  status: ('A' for Active; 'I' for Inactive)
REMARK    1  A    between atoms: C_1  and  C_2
REMARK    2  A    between atoms: C_2  and  O_3
REMARK    3  A    between atoms: O_3  and  C_4
REMARK    4  A    between atoms: C_4  and  C_6
REMARK    5  A    between atoms: C_13  and  C_14
REMARK    6  A    between atoms: C_17  and  O_18
REMARK    7  A    between atoms: O_18  and  C_19
REMARK    8  A    between atoms: C_24  and  N_25
REMARK                            x       y       z     vdW  Elec       q    Type
REMARK                         _______ _______ _______ _____ _____    ______ ____
ROOT
ATOM      1  C   UNL     1       4.294   5.414  18.459  0.00  0.00    +0.000 A 
ATOM      2  C   UNL     1       4.315   6.304  17.367  0.00  0.00    +0.000 A 
ATOM      3  N   UNL     1       3.480   7.334  17.509  0.00  0.00    +0.000 NA
ATOM      4  N   UNL     1       2.918   7.143  18.742  0.00  0.00    +0.000 N 
ATOM      5  C   UNL     1       1.996   8.080  19.289  0.00  0.00    +0.000 A 
ATOM      6  C   UNL     1       1.568   9.154  18.527  0.00  0.00    +0.000 A 
ATOM      7  C   UNL     1       0.672  10.056  19.099  0.00  0.00    +0.000 A 
ATOM      8  C   UNL     1       0.243   9.861  20.409  0.00  0.00    +0.000 A 
ATOM      9  N   UNL     1       0.690   8.799  21.120  0.00  0.00    +0.000 NA
ATOM     10  N   UNL     1       1.561   7.901  20.558  0.00  0.00    +0.000 NA
ATOM     11  C   UNL     1       3.377   5.964  19.333  0.00  0.00    +0.000 A 
ENDROOT
BRANCH   8  12
ATOM     12  C   UNL     1      -0.682  10.767  21.108  0.00  0.00    +0.000 A 
ATOM     13  C   UNL     1      -0.840  10.736  22.503  0.00  0.00    +0.000 A 
ATOM     14  C   UNL     1      -1.736  11.591  23.149  0.00  0.00    +0.000 A 
ATOM     15  C   UNL     1      -2.476  12.523  22.423  0.00  0.00    +0.000 A 
ATOM     16  C   UNL     1      -2.339  12.572  21.037  0.00  0.00    +0.000 A 
ATOM     17  C   UNL     1      -1.449  11.705  20.392  0.00  0.00    +0.000 A 
BRANCH  15  18
ATOM     18  O   UNL     1      -3.326  13.296  23.162  0.00  0.00    +0.000 OA
ATOM     19  C   UNL     1      -3.945  12.643  24.264  0.00  0.00    +0.000 C 
ENDBRANCH  15  18
ENDBRANCH   8  12
BRANCH  11  20
ATOM     20  N   UNL     1       2.963   5.507  20.538  0.00  0.00    +0.000 N 
ATOM     21  H   UNL     1       2.724   4.526  20.703  0.00  0.00    +0.000 HD
ATOM     22  H   UNL     1       2.914   6.114  21.357  0.00  0.00    +0.000 HD
ENDBRANCH  11  20
BRANCH   1  23
ATOM     23  C   UNL     1       5.074   4.217  18.676  0.00  0.00    +0.000 C 
ATOM     24  O   UNL     1       4.591   3.146  19.025  0.00  0.00    +0.000 OA
BRANCH  23  25
ATOM     25  O   UNL     1       6.410   4.449  18.532  0.00  0.00    +0.000 OA
BRANCH  25  27
ATOM     26  C   UNL     1       7.881   6.317  18.671  0.00  0.00    +0.000 C 
ATOM     27  C   UNL     1       6.957   5.400  19.453  0.00  0.00    +0.000 C 
ENDBRANCH  25  27
ENDBRANCH  23  25
ENDBRANCH   1  23
TORSDOF 6
ENDMDL
MODEL 4
REMARK VINA RESULT:      -7.2      1.646      2.040
REMARK  Name = 
REMARK  8 active torsions:
REMARK  status: ('A' for Active; 'I' for Inactive)
REMARK    1  A    between atoms: C_1  and  C_2
REMARK    2  A    between atoms: C_2  and  O_3
REMARK    3  A    between atoms: O_3  and  C_4
REMARK    4  A    between atoms: C_4  and  C_6
REMARK    5  A    between atoms: C_13  and  C_14
REMARK    6  A    between atoms: C_17  and  O_18
REMARK    7  A    between atoms: O_18  and  C_19
REMARK    8  A    between atoms: C_24  and  N_25
REMARK                            x       y       z     vdW  Elec       q    Type
REMARK                         _______ _______ _______ _____ _____    ______ ____
ROOT
ATOM      1  C   UNL     1       5.736   4.802  17.383  0.00  0.00    +0.000 A 
ATOM      2  C   UNL     1       5.317   4.231  18.601  0.00  0.00    +0.000 A 
ATOM      3  N   UNL     1       4.386   4.951  19.229  0.00  0.00    +0.000 NA
ATOM      4  N   UNL     1       4.154   6.005  18.389  0.00  0.00    +0.000 N 
ATOM      5  C   UNL     1       3.166   6.986  18.686  0.00  0.00    +0.000 A 
ATOM      6  C   UNL     1       2.493   6.945  19.896  0.00  0.00    +0.000 A 
ATOM      7  C   UNL     1       1.526   7.917  20.150  0.00  0.00    +0.000 A 
ATOM      8  C   UNL     1       1.257   8.885  19.188  0.00  0.00    +0.000 A 
ATOM      9  N   UNL     1       1.936   8.887  18.015  0.00  0.00    +0.000 NA
ATOM     10  N   UNL     1       2.898   7.942  17.766  0.00  0.00    +0.000 NA
ATOM     11  C   UNL     1       4.984   5.954  17.267  0.00  0.00    +0.000 A 
ENDROOT
BRANCH   8  12
ATOM     12  C   UNL     1       0.242   9.938  19.351  0.00  0.00    +0.000 A 
ATOM     13  C   UNL     1       0.102  10.657  20.549  0.00  0.00    +0.000 A 
ATOM     14  C   UNL     1      -0.877  11.642  20.692  0.00  0.00    +0.000 A 
ATOM     15  C   UNL     1      -1.724  11.959  19.632  0.00  0.00    +0.000 A 
ATOM     16  C   UNL     1      -1.607  11.258  18.433  0.00  0.00    +0.000 A 
ATOM     17  C   UNL     1      -0.632  10.264  18.297  0.00  0.00    +0.000 A 
BRANCH  15  18
ATOM     18  O   UNL     1      -2.649  12.929  19.894  0.00  0.00    +0.000 OA
ATOM     19  C   UNL     1      -2.201  13.993  20.727  0.00  0.00    +0.000 C 
ENDBRANCH  15  18
ENDBRANCH   8  12
BRANCH  11  20
ATOM     20  N   UNL     1       4.995   6.887  16.287  0.00  0.00    +0.000 N 
ATOM     21  H   UNL     1       5.260   7.861  16.456  0.00  0.00    +0.000 HD
ATOM     22  H   UNL     1       4.783   6.653  15.316  0.00  0.00    +0.000 HD
ENDBRANCH  11  20
BRANCH   1  23
ATOM     23  C   UNL     1       6.693   4.302  16.422  0.00  0.00    +0.000 C 
ATOM     24  O   UNL     1       7.907   4.356  16.582  0.00  0.00    +0.000 OA
BRANCH  23  25
ATOM     25  O   UNL     1       6.085   3.849  15.289  0.00  0.00    +0.000 OA
BRANCH  25  27
ATOM     26  C   UNL     1       5.998   3.627  12.919  0.00  0.00    +0.000 C 
ATOM     27  C   UNL     1       6.575   4.427  14.073  0.00  0.00    +0.000 C 
ENDBRANCH  25  27
ENDBRANCH  23  25
ENDBRANCH   1  23
TORSDOF 6
ENDMDL
MODEL 5
REMARK VINA RESULT:      -7.2      1.665      2.224
REMARK  Name = 
REMARK  8 active torsions:
REMARK  status: ('A' for Active; 'I' for Inactive)
REMARK    1  A    between atoms: C_1  and  C_2
REMARK    2  A    between atoms: C_2  and  O_3
REMARK    3  A    between atoms: O_3  and  C_4
REMARK    4  A    between atoms: C_4  and  C_6
REMARK    5  A    between atoms: C_13  and  C_14
REMARK    6  A    between atoms: C_17  and  O_18
REMARK    7  A    between atoms: O_18  and  C_19
REMARK    8  A    between atoms: C_24  and  N_25
REMARK                            x       y       z     vdW  Elec       q    Type
REMARK                         _______ _______ _______ _____ _____    ______ ____
ROOT
ATOM      1  C   UNL     1       5.667   4.864  17.383  0.00  0.00    +0.000 A 
ATOM      2  C   UNL     1       5.275   4.300  18.612  0.00  0.00    +0.000 A 
ATOM      3  N   UNL     1       4.356   5.021  19.254  0.00  0.00    +0.000 NA
ATOM      4  N   UNL     1       4.104   6.070  18.413  0.00  0.00    +0.000 N 
ATOM      5  C   UNL     1       3.120   7.050  18.725  0.00  0.00    +0.000 A 
ATOM      6  C   UNL     1       2.472   7.015  19.949  0.00  0.00    +0.000 A 
ATOM      7  C   UNL     1       1.508   7.986  20.216  0.00  0.00    +0.000 A 
ATOM      8  C   UNL     1       1.218   8.949  19.254  0.00  0.00    +0.000 A 
ATOM      9  N   UNL     1       1.872   8.944  18.068  0.00  0.00    +0.000 NA
ATOM     10  N   UNL     1       2.831   8.000  17.805  0.00  0.00    +0.000 NA
ATOM     11  C   UNL     1       4.911   6.013  17.274  0.00  0.00    +0.000 A 
ENDROOT
BRANCH   8  12
ATOM     12  C   UNL     1       0.204  10.000  19.431  0.00  0.00    +0.000 A 
ATOM     13  C   UNL     1      -0.638  10.405  18.383  0.00  0.00    +0.000 A 
ATOM     14  C   UNL     1      -1.584  11.417  18.564  0.00  0.00    +0.000 A 
ATOM     15  C   UNL     1      -1.737  12.030  19.806  0.00  0.00    +0.000 A 
ATOM     16  C   UNL     1      -0.912  11.647  20.862  0.00  0.00    +0.000 A 
ATOM     17  C   UNL     1       0.043  10.642  20.673  0.00  0.00    +0.000 A 
BRANCH  15  18
ATOM     18  O   UNL     1      -2.685  13.012  19.858  0.00  0.00    +0.000 OA
ATOM     19  C   UNL     1      -3.873  12.680  20.568  0.00  0.00    +0.000 C 
ENDBRANCH  15  18
ENDBRANCH   8  12
BRANCH  11  20
ATOM     20  N   UNL     1       4.900   6.941  16.289  0.00  0.00    +0.000 N 
ATOM     21  H   UNL     1       5.510   6.883  15.470  0.00  0.00    +0.000 HD
ATOM     22  H   UNL     1       4.244   7.723  16.292  0.00  0.00    +0.000 HD
ENDBRANCH  11  20
BRANCH   1  23
ATOM     23  C   UNL     1       6.606   4.360  16.405  0.00  0.00    +0.000 C 
ATOM     24  O   UNL     1       7.822   4.364  16.566  0.00  0.00    +0.000 OA
BRANCH  23  25
ATOM     25  O   UNL     1       5.983   3.967  15.259  0.00  0.00    +0.000 OA
BRANCH  25  27
ATOM     26  C   UNL     1       5.998   3.603  12.904  0.00  0.00    +0.000 C 
ATOM     27  C   UNL     1       6.645   4.361  14.050  0.00  0.00    +0.000 C 
ENDBRANCH  25  27
ENDBRANCH  23  25
ENDBRANCH   1  23
TORSDOF 6
ENDMDL
MODEL 6
REMARK VINA RESULT:      -7.1      3.098      4.325
REMARK  Name = 
REMARK  8 active torsions:
REMARK  status: ('A' for Active; 'I' for Inactive)
REMARK    1  A    between atoms: C_1  and  C_2
REMARK    2  A    between atoms: C_2  and  O_3
REMARK    3  A    between atoms: O_3  and  C_4
REMARK    4  A    between atoms: C_4  and  C_6
REMARK    5  A    between atoms: C_13  and  C_14
REMARK    6  A    between atoms: C_17  and  O_18
REMARK    7  A    between atoms: O_18  and  C_19
REMARK    8  A    between atoms: C_24  and  N_25
REMARK                            x       y       z     vdW  Elec       q    Type
REMARK                         _______ _______ _______ _____ _____    ______ ____
ROOT
ATOM      1  C   UNL     1       4.030   5.284  18.830  0.00  0.00    +0.000 A 
ATOM      2  C   UNL     1       4.167   6.143  17.723  0.00  0.00    +0.000 A 
ATOM      3  N   UNL     1       3.388   7.223  17.792  0.00  0.00    +0.000 NA
ATOM      4  N   UNL     1       2.745   7.097  18.992  0.00  0.00    +0.000 N 
ATOM      5  C   UNL     1       1.851   8.100  19.463  0.00  0.00    +0.000 A 
ATOM      6  C   UNL     1       1.533   9.178  18.653  0.00  0.00    +0.000 A 
ATOM      7  C   UNL     1       0.660  10.145  19.150  0.00  0.00    +0.000 A 
ATOM      8  C   UNL     1       0.145  10.009  20.436  0.00  0.00    +0.000 A 
ATOM      9  N   UNL     1       0.485   8.940  21.196  0.00  0.00    +0.000 NA
ATOM     10  N   UNL     1       1.332   7.979  20.707  0.00  0.00    +0.000 NA
ATOM     11  C   UNL     1       3.098   5.909  19.636  0.00  0.00    +0.000 A 
ENDROOT
BRANCH   8  12
ATOM     12  C   UNL     1      -0.764  10.984  21.059  0.00  0.00    +0.000 A 
ATOM     13  C   UNL     1      -0.923  11.069  22.451  0.00  0.00    +0.000 A 
ATOM     14  C   UNL     1      -1.803  11.989  23.025  0.00  0.00    +0.000 A 
ATOM     15  C   UNL     1      -2.526  12.873  22.225  0.00  0.00    +0.000 A 
ATOM     16  C   UNL     1      -2.387  12.807  20.840  0.00  0.00    +0.000 A 
ATOM     17  C   UNL     1      -1.513  11.875  20.268  0.00  0.00    +0.000 A 
BRANCH  15  18
ATOM     18  O   UNL     1      -3.362  13.718  22.898  0.00  0.00    +0.000 OA
ATOM     19  C   UNL     1      -2.850  15.024  23.136  0.00  0.00    +0.000 C 
ENDBRANCH  15  18
ENDBRANCH   8  12
BRANCH  11  20
ATOM     20  N   UNL     1       2.587   5.507  20.823  0.00  0.00    +0.000 N 
ATOM     21  H   UNL     1       2.723   4.562  21.191  0.00  0.00    +0.000 HD
ATOM     22  H   UNL     1       2.079   6.147  21.435  0.00  0.00    +0.000 HD
ENDBRANCH  11  20
BRANCH   1  23
ATOM     23  C   UNL     1       4.723   4.050  19.120  0.00  0.00    +0.000 C 
ATOM     24  O   UNL     1       5.929   3.896  18.968  0.00  0.00    +0.000 OA
BRANCH  23  25
ATOM     25  O   UNL     1       3.862   3.061  19.495  0.00  0.00    +0.000 OA
BRANCH  25  27
ATOM     26  C   UNL     1       1.755   2.237  18.749  0.00  0.00    +0.000 C 
ATOM     27  C   UNL     1       3.229   2.373  18.410  0.00  0.00    +0.000 C 
ENDBRANCH  25  27
ENDBRANCH  23  25
ENDBRANCH   1  23
TORSDOF 6
ENDMDL
MODEL 7
REMARK VINA RESULT:      -7.1      3.307      4.594
REMARK  Name = 
REMARK  8 active torsions:
REMARK  status: ('A' for Active; 'I' for Inactive)
REMARK    1  A    between atoms: C_1  and  C_2
REMARK    2  A    between atoms: C_2  and  O_3
REMARK    3  A    between atoms: O_3  and  C_4
REMARK    4  A    between atoms: C_4  and  C_6
REMARK    5  A    between atoms: C_13  and  C_14
REMARK    6  A    between atoms: C_17  and  O_18
REMARK    7  A    between atoms: O_18  and  C_19
REMARK    8  A    between atoms: C_24  and  N_25
REMARK                            x       y       z     vdW  Elec       q    Type
REMARK                         _______ _______ _______ _____ _____    ______ ____
ROOT
ATOM      1  C   UNL     1       3.701   4.620  19.089  0.00  0.00    +0.000 A 
ATOM      2  C   UNL     1       4.133   5.174  17.868  0.00  0.00    +0.000 A 
ATOM      3  N   UNL     1       3.631   6.387  17.631  0.00  0.00    +0.000 NA
ATOM      4  N   UNL     1       2.877   6.660  18.739  0.00  0.00    +0.000 N 
ATOM      5  C   UNL     1       2.212   7.909  18.893  0.00  0.00    +0.000 A 
ATOM      6  C   UNL     1       2.230   8.834  17.862  0.00  0.00    +0.000 A 
ATOM      7  C   UNL     1       1.575  10.050  18.050  0.00  0.00    +0.000 A 
ATOM      8  C   UNL     1       0.935  10.304  19.260  0.00  0.00    +0.000 A 
ATOM      9  N   UNL     1       0.945   9.374  20.244  0.00  0.00    +0.000 NA
ATOM     10  N   UNL     1       1.576   8.171  20.059  0.00  0.00    +0.000 NA
ATOM     11  C   UNL     1       2.881   5.588  19.634  0.00  0.00    +0.000 A 
ENDROOT
BRANCH   8  12
ATOM     12  C   UNL     1       0.236  11.563  19.565  0.00  0.00    +0.000 A 
ATOM     13  C   UNL     1      -0.589  11.701  20.693  0.00  0.00    +0.000 A 
ATOM     14  C   UNL     1      -1.258  12.897  20.958  0.00  0.00    +0.000 A 
ATOM     15  C   UNL     1      -1.098  14.000  20.121  0.00  0.00    +0.000 A 
ATOM     16  C   UNL     1      -0.287  13.888  18.993  0.00  0.00    +0.000 A 
ATOM     17  C   UNL     1       0.374  12.684  18.724  0.00  0.00    +0.000 A 
BRANCH  15  18
ATOM     18  O   UNL     1      -1.812  15.110  20.475  0.00  0.00    +0.000 OA
ATOM     19  C   UNL     1      -1.812  15.419  21.864  0.00  0.00    +0.000 C 
ENDBRANCH  15  18
ENDBRANCH   8  12
BRANCH  11  20
ATOM     20  N   UNL     1       2.191   5.568  20.798  0.00  0.00    +0.000 N 
ATOM     21  H   UNL     1       1.211   5.280  20.853  0.00  0.00    +0.000 HD
ATOM     22  H   UNL     1       2.632   5.796  21.690  0.00  0.00    +0.000 HD
ENDBRANCH  11  20
BRANCH   1  23
ATOM     23  C   UNL     1       4.052   3.355  19.692  0.00  0.00    +0.000 C 
ATOM     24  O   UNL     1       5.203   2.941  19.783  0.00  0.00    +0.000 OA
BRANCH  23  25
ATOM     25  O   UNL     1       2.948   2.647  20.064  0.00  0.00    +0.000 OA
BRANCH  25  27
ATOM     26  C   UNL     1       0.865   2.449  18.925  0.00  0.00    +0.000 C 
ATOM     27  C   UNL     1       2.296   1.946  18.998  0.00  0.00    +0.000 C 
ENDBRANCH  25  27
ENDBRANCH  23  25
ENDBRANCH   1  23
TORSDOF 6
ENDMDL
MODEL 8
REMARK VINA RESULT:      -7.1      3.186      4.539
REMARK  Name = 
REMARK  8 active torsions:
REMARK  status: ('A' for Active; 'I' for Inactive)
REMARK    1  A    between atoms: C_1  and  C_2
REMARK    2  A    between atoms: C_2  and  O_3
REMARK    3  A    between atoms: O_3  and  C_4
REMARK    4  A    between atoms: C_4  and  C_6
REMARK    5  A    between atoms: C_13  and  C_14
REMARK    6  A    between atoms: C_17  and  O_18
REMARK    7  A    between atoms: O_18  and  C_19
REMARK    8  A    between atoms: C_24  and  N_25
REMARK                            x       y       z     vdW  Elec       q    Type
REMARK                         _______ _______ _______ _____ _____    ______ ____
ROOT
ATOM      1  C   UNL     1       3.808   5.178  18.931  0.00  0.00    +0.000 A 
ATOM      2  C   UNL     1       3.989   6.005  17.805  0.00  0.00    +0.000 A 
ATOM      3  N   UNL     1       3.263   7.123  17.849  0.00  0.00    +0.000 NA
ATOM      4  N   UNL     1       2.612   7.053  19.051  0.00  0.00    +0.000 N 
ATOM      5  C   UNL     1       1.767   8.108  19.498  0.00  0.00    +0.000 A 
ATOM      6  C   UNL     1       1.503   9.183  18.664  0.00  0.00    +0.000 A 
ATOM      7  C   UNL     1       0.677  10.201  19.138  0.00  0.00    +0.000 A 
ATOM      8  C   UNL     1       0.154  10.118  20.425  0.00  0.00    +0.000 A 
ATOM      9  N   UNL     1       0.441   9.051  21.209  0.00  0.00    +0.000 NA
ATOM     10  N   UNL     1       1.241   8.040  20.742  0.00  0.00    +0.000 NA
ATOM     11  C   UNL     1       2.906   5.864  19.720  0.00  0.00    +0.000 A 
ENDROOT
BRANCH   8  12
ATOM     12  C   UNL     1      -0.708  11.149  21.024  0.00  0.00    +0.000 A 
ATOM     13  C   UNL     1      -1.556  11.954  20.246  0.00  0.00    +0.000 A 
ATOM     14  C   UNL     1      -2.355  12.939  20.829  0.00  0.00    +0.000 A 
ATOM     15  C   UNL     1      -2.354  13.128  22.209  0.00  0.00    +0.000 A 
ATOM     16  C   UNL     1      -1.520  12.344  23.004  0.00  0.00    +0.000 A 
ATOM     17  C   UNL     1      -0.711  11.365  22.415  0.00  0.00    +0.000 A 
BRANCH  15  18
ATOM     18  O   UNL     1      -3.167  14.128  22.662  0.00  0.00    +0.000 OA
ATOM     19  C   UNL     1      -4.427  13.709  23.173  0.00  0.00    +0.000 C 
ENDBRANCH  15  18
ENDBRANCH   8  12
BRANCH  11  20
ATOM     20  N   UNL     1       2.375   5.513  20.915  0.00  0.00    +0.000 N 
ATOM     21  H   UNL     1       2.339   4.544  21.239  0.00  0.00    +0.000 HD
ATOM     22  H   UNL     1       2.025   6.210  21.575  0.00  0.00    +0.000 HD
ENDBRANCH  11  20
BRANCH   1  23
ATOM     23  C   UNL     1       4.440   3.918  19.249  0.00  0.00    +0.000 C 
ATOM     24  O   UNL     1       5.652   3.735  19.205  0.00  0.00    +0.000 OA
BRANCH  23  25
ATOM     25  O   UNL     1       3.524   2.944  19.514  0.00  0.00    +0.000 OA
BRANCH  25  27
ATOM     26  C   UNL     1       1.326   2.381  18.787  0.00  0.00    +0.000 C 
ATOM     27  C   UNL     1       2.783   2.489  18.375  0.00  0.00    +0.000 C 
ENDBRANCH  25  27
ENDBRANCH  23  25
ENDBRANCH   1  23
TORSDOF 6
ENDMDL
MODEL 9
REMARK VINA RESULT:      -7.0      2.891      4.287
REMARK  Name = 
REMARK  8 active torsions:
REMARK  status: ('A' for Active; 'I' for Inactive)
REMARK    1  A    between atoms: C_1  and  C_2
REMARK    2  A    between atoms: C_2  and  O_3
REMARK    3  A    between atoms: O_3  and  C_4
REMARK    4  A    between atoms: C_4  and  C_6
REMARK    5  A    between atoms: C_13  and  C_14
REMARK    6  A    between atoms: C_17  and  O_18
REMARK    7  A    between atoms: O_18  and  C_19
REMARK    8  A    between atoms: C_24  and  N_25
REMARK                            x       y       z     vdW  Elec       q    Type
REMARK                         _______ _______ _______ _____ _____    ______ ____
ROOT
ATOM      1  C   UNL     1       4.327   5.419  18.426  0.00  0.00    +0.000 A 
ATOM      2  C   UNL     1       4.344   6.273  17.305  0.00  0.00    +0.000 A 
ATOM      3  N   UNL     1       3.508   7.306  17.416  0.00  0.00    +0.000 NA
ATOM      4  N   UNL     1       2.950   7.155  18.656  0.00  0.00    +0.000 N 
ATOM      5  C   UNL     1       2.029   8.109  19.175  0.00  0.00    +0.000 A 
ATOM      6  C   UNL     1       1.598   9.157  18.380  0.00  0.00    +0.000 A 
ATOM      7  C   UNL     1       0.702  10.077  18.924  0.00  0.00    +0.000 A 
ATOM      8  C   UNL     1       0.277   9.925  20.241  0.00  0.00    +0.000 A 
ATOM      9  N   UNL     1       0.727   8.886  20.985  0.00  0.00    +0.000 NA
ATOM     10  N   UNL     1       1.597   7.971  20.450  0.00  0.00    +0.000 NA
ATOM     11  C   UNL     1       3.412   5.996  19.284  0.00  0.00    +0.000 A 
ENDROOT
BRANCH   8  12
ATOM     12  C   UNL     1      -0.647  10.851  20.913  0.00  0.00    +0.000 A 
ATOM     13  C   UNL     1      -1.456  11.746  20.193  0.00  0.00    +0.000 A 
ATOM     14  C   UNL     1      -2.316  12.631  20.848  0.00  0.00    +0.000 A 
ATOM     15  C   UNL     1      -2.416  12.625  22.238  0.00  0.00    +0.000 A 
ATOM     16  C   UNL     1      -1.622  11.748  22.975  0.00  0.00    +0.000 A 
ATOM     17  C   UNL     1      -0.752  10.871  22.316  0.00  0.00    +0.000 A 
BRANCH  15  18
ATOM     18  O   UNL     1      -3.280  13.542  22.764  0.00  0.00    +0.000 OA
ATOM     19  C   UNL     1      -3.306  14.806  22.109  0.00  0.00    +0.000 C 
ENDBRANCH  15  18
ENDBRANCH   8  12
BRANCH  11  20
ATOM     20  N   UNL     1       3.001   5.579  20.504  0.00  0.00    +0.000 N 
ATOM     21  H   UNL     1       2.282   6.069  21.041  0.00  0.00    +0.000 HD
ATOM     22  H   UNL     1       3.359   4.722  20.929  0.00  0.00    +0.000 HD
ENDBRANCH  11  20
BRANCH   1  23
ATOM     23  C   UNL     1       5.108   4.230  18.680  0.00  0.00    +0.000 C 
ATOM     24  O   UNL     1       4.628   3.172  19.070  0.00  0.00    +0.000 OA
BRANCH  23  25
ATOM     25  O   UNL     1       6.443   4.456  18.518  0.00  0.00    +0.000 OA
BRANCH  25  27
ATOM     26  C   UNL     1       7.859   6.367  18.651  0.00  0.00    +0.000 C 
ATOM     27  C   UNL     1       7.010   5.391  19.445  0.00  0.00    +0.000 C 
ENDBRANCH  25  27
ENDBRANCH  23  25
ENDBRANCH   1  23
TORSDOF 6
ENDMDL
