MODEL 1
REMARK VINA RESULT:      -7.6      0.000      0.000
REMARK  Name = 
REMARK  3 active torsions:
REMARK  status: ('A' for Active; 'I' for Inactive)
REMARK    1  A    between atoms: C_2  and  C_14
REMARK    2  A    between atoms: N_3  and  N_4
REMARK    3  A    between atoms: C_5  and  C_7
REMARK                            x       y       z     vdW  Elec       q    Type
REMARK                         _______ _______ _______ _____ _____    ______ ____
ROOT
ATOM      1  O   UNL     1       8.077  10.226  17.739  0.00  0.00    +0.000 OA
ATOM      2  C   UNL     1       8.695   9.693  18.650  0.00  0.00    +0.000 C 
ATOM      3  N   UNL     1       8.729   8.331  18.892  0.00  0.00    +0.000 N 
ATOM      4  H   UNL     1       9.163   7.928  19.721  0.00  0.00    +0.000 HD
ENDROOT
BRANCH   2   5
ATOM      5  C   UNL     1       9.491  10.521  19.679  0.00  0.00    +0.000 C 
ATOM      6  O   UNL     1       9.139  10.415  20.851  0.00  0.00    +0.000 OA
ATOM      7  N   UNL     1      10.565  11.295  19.246  0.00  0.00    +0.000 N 
ATOM      8  C   UNL     1      11.381  11.983  20.242  0.00  0.00    +0.000 C 
ATOM      9  C   UNL     1      11.438  13.483  19.967  0.00  0.00    +0.000 C 
ATOM     10  C   UNL     1      11.896  13.758  18.538  0.00  0.00    +0.000 C 
ATOM     11  C   UNL     1      11.023  13.004  17.533  0.00  0.00    +0.000 C 
ATOM     12  C   UNL     1      10.959  11.508  17.852  0.00  0.00    +0.000 C 
ENDBRANCH   2   5
BRANCH   3  13
ATOM     13  N   UNL     1       7.942   7.486  18.093  0.00  0.00    +0.000 N 
ATOM     14  C   UNL     1       7.628   6.225  18.563  0.00  0.00    +0.000 C 
ATOM     15  O   UNL     1       8.016   5.797  19.645  0.00  0.00    +0.000 OA
ATOM     16  H   UNL     1       7.452   7.926  17.315  0.00  0.00    +0.000 HD
BRANCH  14  17
ATOM     17  C   UNL     1       6.753   5.398  17.684  0.00  0.00    +0.000 A 
ATOM     18  C   UNL     1       7.232   4.846  16.485  0.00  0.00    +0.000 A 
ATOM     19  C   UNL     1       6.388   4.082  15.677  0.00  0.00    +0.000 A 
ATOM     20  C   UNL     1       5.064   3.863  16.061  0.00  0.00    +0.000 A 
ATOM     21  C   UNL     1       4.595   4.395  17.261  0.00  0.00    +0.000 A 
ATOM     22 BR   UNL     1       2.800   4.092  17.774  0.00  0.00    +0.000 Br
ATOM     23  C   UNL     1       5.433   5.152  18.081  0.00  0.00    +0.000 A 
ENDBRANCH  14  17
ENDBRANCH   3  13
TORSDOF 3
ENDMDL
MODEL 2
REMARK VINA RESULT:      -7.4      6.755      9.408
REMARK  Name = 
REMARK  3 active torsions:
REMARK  status: ('A' for Active; 'I' for Inactive)
REMARK    1  A    between atoms: C_2  and  C_14
REMARK    2  A    between atoms: N_3  and  N_4
REMARK    3  A    between atoms: C_5  and  C_7
REMARK                            x       y       z     vdW  Elec       q    Type
REMARK                         _______ _______ _______ _____ _____    ______ ____
ROOT
ATOM      1  O   UNL     1       1.094   4.619  20.769  0.00  0.00    +0.000 OA
ATOM      2  C   UNL     1       2.158   5.017  20.318  0.00  0.00    +0.000 C 
ATOM      3  N   UNL     1       2.640   6.306  20.450  0.00  0.00    +0.000 N 
ATOM      4  H   UNL     1       3.477   6.635  19.970  0.00  0.00    +0.000 HD
ENDROOT
BRANCH   2   5
ATOM      5  C   UNL     1       3.079   4.097  19.491  0.00  0.00    +0.000 C 
ATOM      6  O   UNL     1       3.398   3.034  20.017  0.00  0.00    +0.000 OA
ATOM      7  N   UNL     1       3.460   4.487  18.210  0.00  0.00    +0.000 N 
ATOM      8  C   UNL     1       4.238   3.557  17.394  0.00  0.00    +0.000 C 
ATOM      9  C   UNL     1       5.546   4.192  16.931  0.00  0.00    +0.000 C 
ATOM     10  C   UNL     1       5.287   5.520  16.226  0.00  0.00    +0.000 C 
ATOM     11  C   UNL     1       4.457   6.452  17.111  0.00  0.00    +0.000 C 
ATOM     12  C   UNL     1       3.168   5.779  17.587  0.00  0.00    +0.000 C 
ENDBRANCH   2   5
BRANCH   3  13
ATOM     13  N   UNL     1       1.831   7.267  21.078  0.00  0.00    +0.000 N 
ATOM     14  C   UNL     1       1.455   8.391  20.368  0.00  0.00    +0.000 C 
ATOM     15  O   UNL     1       1.805   8.602  19.212  0.00  0.00    +0.000 OA
ATOM     16  H   UNL     1       1.375   6.977  21.942  0.00  0.00    +0.000 HD
BRANCH  14  17
ATOM     17  C   UNL     1       0.560   9.346  21.082  0.00  0.00    +0.000 A 
ATOM     18  C   UNL     1       0.230   9.168  22.435  0.00  0.00    +0.000 A 
ATOM     19  C   UNL     1      -0.618  10.074  23.076  0.00  0.00    +0.000 A 
ATOM     20  C   UNL     1      -1.136  11.162  22.373  0.00  0.00    +0.000 A 
ATOM     21  C   UNL     1      -0.792  11.350  21.035  0.00  0.00    +0.000 A 
ATOM     22 BR   UNL     1      -1.499  12.827  20.090  0.00  0.00    +0.000 Br
ATOM     23  C   UNL     1       0.062  10.455  20.387  0.00  0.00    +0.000 A 
ENDBRANCH  14  17
ENDBRANCH   3  13
TORSDOF 3
ENDMDL
MODEL 3
REMARK VINA RESULT:      -7.3      3.292      8.333
REMARK  Name = 
REMARK  3 active torsions:
REMARK  status: ('A' for Active; 'I' for Inactive)
REMARK    1  A    between atoms: C_2  and  C_14
REMARK    2  A    between atoms: N_3  and  N_4
REMARK    3  A    between atoms: C_5  and  C_7
REMARK                            x       y       z     vdW  Elec       q    Type
REMARK                         _______ _______ _______ _____ _____    ______ ____
ROOT
ATOM      1  O   UNL     1       7.724   7.524  16.716  0.00  0.00    +0.000 OA
ATOM      2  C   UNL     1       7.785   7.404  17.931  0.00  0.00    +0.000 C 
ATOM      3  N   UNL     1       8.289   8.359  18.795  0.00  0.00    +0.000 N 
ATOM      4  H   UNL     1       8.427   8.186  19.790  0.00  0.00    +0.000 HD
ENDROOT
BRANCH   2   5
ATOM      5  C   UNL     1       7.328   6.112  18.639  0.00  0.00    +0.000 C 
ATOM      6  O   UNL     1       8.184   5.516  19.286  0.00  0.00    +0.000 OA
ATOM      7  N   UNL     1       5.995   5.720  18.546  0.00  0.00    +0.000 N 
ATOM      8  C   UNL     1       5.549   4.559  19.313  0.00  0.00    +0.000 C 
ATOM      9  C   UNL     1       4.917   3.508  18.405  0.00  0.00    +0.000 C 
ATOM     10  C   UNL     1       3.803   4.118  17.559  0.00  0.00    +0.000 C 
ATOM     11  C   UNL     1       4.313   5.338  16.788  0.00  0.00    +0.000 C 
ATOM     12  C   UNL     1       4.970   6.360  17.718  0.00  0.00    +0.000 C 
ENDBRANCH   2   5
BRANCH   3  13
ATOM     13  N   UNL     1       8.848   9.528  18.255  0.00  0.00    +0.000 N 
ATOM     14  C   UNL     1       9.297  10.513  19.114  0.00  0.00    +0.000 C 
ATOM     15  O   UNL     1       9.219  10.424  20.335  0.00  0.00    +0.000 OA
ATOM     16  H   UNL     1       9.105   9.493  17.270  0.00  0.00    +0.000 HD
BRANCH  14  17
ATOM     17  C   UNL     1       9.919  11.707  18.474  0.00  0.00    +0.000 A 
ATOM     18  C   UNL     1      11.167  11.628  17.836  0.00  0.00    +0.000 A 
ATOM     19  C   UNL     1      11.729  12.765  17.251  0.00  0.00    +0.000 A 
ATOM     20  C   UNL     1      11.049  13.982  17.297  0.00  0.00    +0.000 A 
ATOM     21  C   UNL     1       9.800  14.055  17.912  0.00  0.00    +0.000 A 
ATOM     22 BR   UNL     1       8.886  15.709  17.968  0.00  0.00    +0.000 Br
ATOM     23  C   UNL     1       9.225  12.923  18.492  0.00  0.00    +0.000 A 
ENDBRANCH  14  17
ENDBRANCH   3  13
TORSDOF 3
ENDMDL
MODEL 4
REMARK VINA RESULT:      -7.3      7.446      8.781
REMARK  Name = 
REMARK  3 active torsions:
REMARK  status: ('A' for Active; 'I' for Inactive)
REMARK    1  A    between atoms: C_2  and  C_14
REMARK    2  A    between atoms: N_3  and  N_4
REMARK    3  A    between atoms: C_5  and  C_7
REMARK                            x       y       z     vdW  Elec       q    Type
REMARK                         _______ _______ _______ _____ _____    ______ ____
ROOT
ATOM      1  O   UNL     1      -0.687   7.946  21.457  0.00  0.00    +0.000 OA
ATOM      2  C   UNL     1       0.175   8.775  21.707  0.00  0.00    +0.000 C 
ATOM      3  N   UNL     1       1.507   8.663  21.354  0.00  0.00    +0.000 N 
ATOM      4  H   UNL     1       2.221   9.317  21.672  0.00  0.00    +0.000 HD
ENDROOT
BRANCH   2   5
ATOM      5  C   UNL     1      -0.144  10.054  22.508  0.00  0.00    +0.000 C 
ATOM      6  O   UNL     1      -0.039   9.971  23.729  0.00  0.00    +0.000 OA
ATOM      7  N   UNL     1      -0.485  11.219  21.825  0.00  0.00    +0.000 N 
ATOM      8  C   UNL     1      -0.673  12.451  22.587  0.00  0.00    +0.000 C 
ATOM      9  C   UNL     1      -2.054  13.049  22.336  0.00  0.00    +0.000 C 
ATOM     10  C   UNL     1      -2.303  13.236  20.841  0.00  0.00    +0.000 C 
ATOM     11  C   UNL     1      -2.079  11.925  20.086  0.00  0.00    +0.000 C 
ATOM     12  C   UNL     1      -0.700  11.331  20.381  0.00  0.00    +0.000 C 
ENDBRANCH   2   5
BRANCH   3  13
ATOM     13  N   UNL     1       1.940   7.483  20.727  0.00  0.00    +0.000 N 
ATOM     14  C   UNL     1       2.184   7.499  19.367  0.00  0.00    +0.000 C 
ATOM     15  O   UNL     1       2.028   8.496  18.670  0.00  0.00    +0.000 OA
ATOM     16  H   UNL     1       2.273   6.741  21.342  0.00  0.00    +0.000 HD
BRANCH  14  17
ATOM     17  C   UNL     1       2.683   6.224  18.777  0.00  0.00    +0.000 A 
ATOM     18  C   UNL     1       3.768   6.206  17.886  0.00  0.00    +0.000 A 
ATOM     19  C   UNL     1       4.209   4.998  17.341  0.00  0.00    +0.000 A 
ATOM     20  C   UNL     1       3.574   3.804  17.685  0.00  0.00    +0.000 A 
ATOM     21  C   UNL     1       2.510   3.821  18.586  0.00  0.00    +0.000 A 
ATOM     22 BR   UNL     1       1.655   2.198  19.047  0.00  0.00    +0.000 Br
ATOM     23  C   UNL     1       2.066   5.022  19.143  0.00  0.00    +0.000 A 
ENDBRANCH  14  17
ENDBRANCH   3  13
TORSDOF 3
ENDMDL
MODEL 5
REMARK VINA RESULT:      -7.3      7.411      8.788
REMARK  Name = 
REMARK  3 active torsions:
REMARK  status: ('A' for Active; 'I' for Inactive)
REMARK    1  A    between atoms: C_2  and  C_14
REMARK    2  A    between atoms: N_3  and  N_4
REMARK    3  A    between atoms: C_5  and  C_7
REMARK                            x       y       z     vdW  Elec       q    Type
REMARK                         _______ _______ _______ _____ _____    ______ ____
ROOT
ATOM      1  O   UNL     1      -0.750   7.963  21.521  0.00  0.00    +0.000 OA
ATOM      2  C   UNL     1       0.146   8.764  21.746  0.00  0.00    +0.000 C 
ATOM      3  N   UNL     1       1.483   8.553  21.465  0.00  0.00    +0.000 N 
ATOM      4  H   UNL     1       2.218   9.193  21.764  0.00  0.00    +0.000 HD
ENDROOT
BRANCH   2   5
ATOM      5  C   UNL     1      -0.135  10.119  22.427  0.00  0.00    +0.000 C 
ATOM      6  O   UNL     1      -0.062  10.136  23.653  0.00  0.00    +0.000 OA
ATOM      7  N   UNL     1      -0.409  11.234  21.639  0.00  0.00    +0.000 N 
ATOM      8  C   UNL     1      -0.560  12.533  22.288  0.00  0.00    +0.000 C 
ATOM      9  C   UNL     1      -1.907  13.165  21.951  0.00  0.00    +0.000 C 
ATOM     10  C   UNL     1      -2.114  13.234  20.440  0.00  0.00    +0.000 C 
ATOM     11  C   UNL     1      -1.930  11.855  19.804  0.00  0.00    +0.000 C 
ATOM     12  C   UNL     1      -0.585  11.231  20.185  0.00  0.00    +0.000 C 
ENDBRANCH   2   5
BRANCH   3  13
ATOM     13  N   UNL     1       1.876   7.305  20.955  0.00  0.00    +0.000 N 
ATOM     14  C   UNL     1       2.205   7.203  19.617  0.00  0.00    +0.000 C 
ATOM     15  O   UNL     1       2.158   8.153  18.842  0.00  0.00    +0.000 OA
ATOM     16  H   UNL     1       2.120   6.593  21.642  0.00  0.00    +0.000 HD
BRANCH  14  17
ATOM     17  C   UNL     1       2.655   5.859  19.154  0.00  0.00    +0.000 A 
ATOM     18  C   UNL     1       2.218   4.684  19.785  0.00  0.00    +0.000 A 
ATOM     19  C   UNL     1       2.662   3.439  19.335  0.00  0.00    +0.000 A 
ATOM     20  C   UNL     1       3.541   3.360  18.254  0.00  0.00    +0.000 A 
ATOM     21  C   UNL     1       3.958   4.527  17.615  0.00  0.00    +0.000 A 
ATOM     22 BR   UNL     1       5.148   4.411  16.150  0.00  0.00    +0.000 Br
ATOM     23  C   UNL     1       3.513   5.776  18.051  0.00  0.00    +0.000 A 
ENDBRANCH  14  17
ENDBRANCH   3  13
TORSDOF 3
ENDMDL
MODEL 6
REMARK VINA RESULT:      -7.3      3.183      8.235
REMARK  Name = 
REMARK  3 active torsions:
REMARK  status: ('A' for Active; 'I' for Inactive)
REMARK    1  A    between atoms: C_2  and  C_14
REMARK    2  A    between atoms: N_3  and  N_4
REMARK    3  A    between atoms: C_5  and  C_7
REMARK                            x       y       z     vdW  Elec       q    Type
REMARK                         _______ _______ _______ _____ _____    ______ ____
ROOT
ATOM      1  O   UNL     1       8.360   5.571  19.903  0.00  0.00    +0.000 OA
ATOM      2  C   UNL     1       7.642   5.866  18.959  0.00  0.00    +0.000 C 
ATOM      3  N   UNL     1       7.689   7.066  18.273  0.00  0.00    +0.000 N 
ATOM      4  H   UNL     1       7.005   7.323  17.563  0.00  0.00    +0.000 HD
ENDROOT
BRANCH   2   5
ATOM      5  C   UNL     1       6.545   4.907  18.450  0.00  0.00    +0.000 C 
ATOM      6  O   UNL     1       6.050   4.156  19.286  0.00  0.00    +0.000 OA
ATOM      7  N   UNL     1       6.154   4.968  17.115  0.00  0.00    +0.000 N 
ATOM      8  C   UNL     1       5.038   4.137  16.672  0.00  0.00    +0.000 C 
ATOM      9  C   UNL     1       5.447   3.240  15.507  0.00  0.00    +0.000 C 
ATOM     10  C   UNL     1       6.057   4.061  14.374  0.00  0.00    +0.000 C 
ATOM     11  C   UNL     1       7.209   4.926  14.890  0.00  0.00    +0.000 C 
ATOM     12  C   UNL     1       6.779   5.791  16.077  0.00  0.00    +0.000 C 
ENDBRANCH   2   5
BRANCH   3  13
ATOM     13  N   UNL     1       8.565   8.065  18.725  0.00  0.00    +0.000 N 
ATOM     14  C   UNL     1       8.393   9.359  18.271  0.00  0.00    +0.000 C 
ATOM     15  O   UNL     1       7.515   9.680  17.477  0.00  0.00    +0.000 OA
ATOM     16  H   UNL     1       9.135   7.833  19.537  0.00  0.00    +0.000 HD
BRANCH  14  17
ATOM     17  C   UNL     1       9.331  10.377  18.826  0.00  0.00    +0.000 A 
ATOM     18  C   UNL     1       9.449  10.586  20.209  0.00  0.00    +0.000 A 
ATOM     19  C   UNL     1      10.330  11.552  20.700  0.00  0.00    +0.000 A 
ATOM     20  C   UNL     1      11.097  12.311  19.816  0.00  0.00    +0.000 A 
ATOM     21  C   UNL     1      10.994  12.089  18.443  0.00  0.00    +0.000 A 
ATOM     22 BR   UNL     1      12.039  13.121  17.252  0.00  0.00    +0.000 Br
ATOM     23  C   UNL     1      10.124  11.119  17.942  0.00  0.00    +0.000 A 
ENDBRANCH  14  17
ENDBRANCH   3  13
TORSDOF 3
ENDMDL
MODEL 7
REMARK VINA RESULT:      -7.0      7.112      8.499
REMARK  Name = 
REMARK  3 active torsions:
REMARK  status: ('A' for Active; 'I' for Inactive)
REMARK    1  A    between atoms: C_2  and  C_14
REMARK    2  A    between atoms: N_3  and  N_4
REMARK    3  A    between atoms: C_5  and  C_7
REMARK                            x       y       z     vdW  Elec       q    Type
REMARK                         _______ _______ _______ _____ _____    ______ ____
ROOT
ATOM      1  O   UNL     1       0.993   9.387  19.648  0.00  0.00    +0.000 OA
ATOM      2  C   UNL     1       0.840   8.818  20.719  0.00  0.00    +0.000 C 
ATOM      3  N   UNL     1       1.516   7.677  21.112  0.00  0.00    +0.000 N 
ATOM      4  H   UNL     1       1.289   7.165  21.963  0.00  0.00    +0.000 HD
ENDROOT
BRANCH   2   5
ATOM      5  C   UNL     1      -0.189   9.311  21.757  0.00  0.00    +0.000 C 
ATOM      6  O   UNL     1      -0.831   8.442  22.340  0.00  0.00    +0.000 OA
ATOM      7  N   UNL     1      -0.307  10.677  22.003  0.00  0.00    +0.000 N 
ATOM      8  C   UNL     1      -1.202  11.123  23.067  0.00  0.00    +0.000 C 
ATOM      9  C   UNL     1      -2.238  12.110  22.538  0.00  0.00    +0.000 C 
ATOM     10  C   UNL     1      -1.564  13.270  21.809  0.00  0.00    +0.000 C 
ATOM     11  C   UNL     1      -0.626  12.752  20.717  0.00  0.00    +0.000 C 
ATOM     12  C   UNL     1       0.381  11.741  21.269  0.00  0.00    +0.000 C 
ENDBRANCH   2   5
BRANCH   3  13
ATOM     13  N   UNL     1       2.391   7.065  20.199  0.00  0.00    +0.000 N 
ATOM     14  C   UNL     1       2.308   5.699  20.006  0.00  0.00    +0.000 C 
ATOM     15  O   UNL     1       1.511   4.986  20.606  0.00  0.00    +0.000 OA
ATOM     16  H   UNL     1       2.883   7.687  19.559  0.00  0.00    +0.000 HD
BRANCH  14  17
ATOM     17  C   UNL     1       3.236   5.124  18.991  0.00  0.00    +0.000 A 
ATOM     18  C   UNL     1       2.773   4.269  17.978  0.00  0.00    +0.000 A 
ATOM     19  C   UNL     1       3.666   3.738  17.045  0.00  0.00    +0.000 A 
ATOM     20  C   UNL     1       5.022   4.059  17.117  0.00  0.00    +0.000 A 
ATOM     21  C   UNL     1       5.477   4.924  18.110  0.00  0.00    +0.000 A 
ATOM     22 BR   UNL     1       7.317   5.354  18.199  0.00  0.00    +0.000 Br
ATOM     23  C   UNL     1       4.592   5.468  19.043  0.00  0.00    +0.000 A 
ENDBRANCH  14  17
ENDBRANCH   3  13
TORSDOF 3
ENDMDL
MODEL 8
REMARK VINA RESULT:      -7.0      5.998      8.653
REMARK  Name = 
REMARK  3 active torsions:
REMARK  status: ('A' for Active; 'I' for Inactive)
REMARK    1  A    between atoms: C_2  and  C_14
REMARK    2  A    between atoms: N_3  and  N_4
REMARK    3  A    between atoms: C_5  and  C_7
REMARK                            x       y       z     vdW  Elec       q    Type
REMARK                         _______ _______ _______ _____ _____    ______ ____
ROOT
ATOM      1  O   UNL     1       1.413   4.938  18.590  0.00  0.00    +0.000 OA
ATOM      2  C   UNL     1       2.607   5.011  18.843  0.00  0.00    +0.000 C 
ATOM      3  N   UNL     1       3.165   5.851  19.789  0.00  0.00    +0.000 N 
ATOM      4  H   UNL     1       4.172   5.967  19.899  0.00  0.00    +0.000 HD
ENDROOT
BRANCH   2   5
ATOM      5  C   UNL     1       3.647   4.171  18.074  0.00  0.00    +0.000 C 
ATOM      6  O   UNL     1       3.645   2.964  18.300  0.00  0.00    +0.000 OA
ATOM      7  N   UNL     1       4.487   4.799  17.157  0.00  0.00    +0.000 N 
ATOM      8  C   UNL     1       5.389   3.978  16.354  0.00  0.00    +0.000 C 
ATOM      9  C   UNL     1       6.838   4.422  16.525  0.00  0.00    +0.000 C 
ATOM     10  C   UNL     1       6.988   5.915  16.239  0.00  0.00    +0.000 C 
ATOM     11  C   UNL     1       6.014   6.730  17.091  0.00  0.00    +0.000 C 
ATOM     12  C   UNL     1       4.573   6.242  16.925  0.00  0.00    +0.000 C 
ENDBRANCH   2   5
BRANCH   3  13
ATOM     13  N   UNL     1       2.328   6.752  20.467  0.00  0.00    +0.000 N 
ATOM     14  C   UNL     1       1.989   7.942  19.851  0.00  0.00    +0.000 C 
ATOM     15  O   UNL     1       2.396   8.260  18.739  0.00  0.00    +0.000 OA
ATOM     16  H   UNL     1       1.830   6.384  21.276  0.00  0.00    +0.000 HD
BRANCH  14  17
ATOM     17  C   UNL     1       1.062   8.830  20.610  0.00  0.00    +0.000 A 
ATOM     18  C   UNL     1       0.889   8.693  21.996  0.00  0.00    +0.000 A 
ATOM     19  C   UNL     1       0.008   9.534  22.679  0.00  0.00    +0.000 A 
ATOM     20  C   UNL     1      -0.701  10.515  21.985  0.00  0.00    +0.000 A 
ATOM     21  C   UNL     1      -0.512  10.663  20.612  0.00  0.00    +0.000 A 
ATOM     22 BR   UNL     1      -1.476  11.996  19.679  0.00  0.00    +0.000 Br
ATOM     23  C   UNL     1       0.372   9.834  19.920  0.00  0.00    +0.000 A 
ENDBRANCH  14  17
ENDBRANCH   3  13
TORSDOF 3
ENDMDL
MODEL 9
REMARK VINA RESULT:      -6.9      6.674      8.365
REMARK  Name = 
REMARK  3 active torsions:
REMARK  status: ('A' for Active; 'I' for Inactive)
REMARK    1  A    between atoms: C_2  and  C_14
REMARK    2  A    between atoms: N_3  and  N_4
REMARK    3  A    between atoms: C_5  and  C_7
REMARK                            x       y       z     vdW  Elec       q    Type
REMARK                         _______ _______ _______ _____ _____    ______ ____
ROOT
ATOM      1  O   UNL     1      -0.171   9.351  17.427  0.00  0.00    +0.000 OA
ATOM      2  C   UNL     1       0.475   9.978  18.254  0.00  0.00    +0.000 C 
ATOM      3  N   UNL     1       1.799   9.735  18.574  0.00  0.00    +0.000 N 
ATOM      4  H   UNL     1       2.276  10.203  19.343  0.00  0.00    +0.000 HD
ENDROOT
BRANCH   2   5
ATOM      5  C   UNL     1      -0.159  11.117  19.079  0.00  0.00    +0.000 C 
ATOM      6  O   UNL     1      -0.136  12.235  18.569  0.00  0.00    +0.000 OA
ATOM      7  N   UNL     1      -0.744  10.824  20.308  0.00  0.00    +0.000 N 
ATOM      8  C   UNL     1      -1.440  11.889  21.026  0.00  0.00    +0.000 C 
ATOM      9  C   UNL     1      -0.871  12.070  22.430  0.00  0.00    +0.000 C 
ATOM     10  C   UNL     1      -0.871  10.747  23.192  0.00  0.00    +0.000 C 
ATOM     11  C   UNL     1      -0.146   9.662  22.394  0.00  0.00    +0.000 C 
ATOM     12  C   UNL     1      -0.715   9.524  20.980  0.00  0.00    +0.000 C 
ENDBRANCH   2   5
BRANCH   3  13
ATOM     13  N   UNL     1       2.446   8.642  17.975  0.00  0.00    +0.000 N 
ATOM     14  C   UNL     1       2.602   7.478  18.702  0.00  0.00    +0.000 C 
ATOM     15  O   UNL     1       2.212   7.352  19.858  0.00  0.00    +0.000 OA
ATOM     16  H   UNL     1       2.561   8.685  16.964  0.00  0.00    +0.000 HD
BRANCH  14  17
ATOM     17  C   UNL     1       3.258   6.344  17.990  0.00  0.00    +0.000 A 
ATOM     18  C   UNL     1       4.362   6.550  17.148  0.00  0.00    +0.000 A 
ATOM     19  C   UNL     1       4.952   5.471  16.487  0.00  0.00    +0.000 A 
ATOM     20  C   UNL     1       4.445   4.183  16.664  0.00  0.00    +0.000 A 
ATOM     21  C   UNL     1       3.361   3.976  17.516  0.00  0.00    +0.000 A 
ATOM     22 BR   UNL     1       2.682   2.227  17.751  0.00  0.00    +0.000 Br
ATOM     23  C   UNL     1       2.770   5.047  18.189  0.00  0.00    +0.000 A 
ENDBRANCH  14  17
ENDBRANCH   3  13
TORSDOF 3
ENDMDL
