MODEL 1
REMARK VINA RESULT:      -8.1      0.000      0.000
REMARK  Name = 
REMARK  7 active torsions:
REMARK  status: ('A' for Active; 'I' for Inactive)
REMARK    1  A    between atoms: C_2  and  C_7
REMARK    2  A    between atoms: N_3  and  C_4
REMARK    3  A    between atoms: C_11  and  N_12
REMARK    4  A    between atoms: C_13  and  C_15
REMARK    5  A    between atoms: C_17  and  C_18
REMARK    6  A    between atoms: C_23  and  N_24
REMARK    7  A    between atoms: N_24  and  C_25
REMARK                            x       y       z     vdW  Elec       q    Type
REMARK                         _______ _______ _______ _____ _____    ______ ____
ROOT
ATOM      1  C   UNL     1       2.742   5.926  19.065  0.00  0.00    +0.000 A 
ATOM      2  N   UNL     1       2.636   4.563  18.914  0.00  0.00    +0.000 NA
ATOM      3  C   UNL     1       1.815   3.919  19.779  0.00  0.00    +0.000 A 
ATOM      4  C   UNL     1       1.143   4.657  20.750  0.00  0.00    +0.000 A 
ATOM      5  N   UNL     1       1.213   6.004  20.868  0.00  0.00    +0.000 NA
ATOM      6  C   UNL     1       2.018   6.670  20.008  0.00  0.00    +0.000 A 
ENDROOT
BRANCH   1   8
ATOM      7  N   UNL     1       4.942   5.841  18.071  0.00  0.00    +0.000 N 
ATOM      8  C   UNL     1       3.780   6.576  18.202  0.00  0.00    +0.000 C 
ATOM      9  O   UNL     1       3.558   7.656  17.658  0.00  0.00    +0.000 OA
ATOM     10  H   UNL     1       4.881   4.847  18.295  0.00  0.00    +0.000 HD
BRANCH   7  15
ATOM     11  C   UNL     1       6.620   5.658  16.209  0.00  0.00    +0.000 A 
ATOM     12  N   UNL     1       7.708   6.335  15.794  0.00  0.00    +0.000 NA
ATOM     13  O   UNL     1       7.846   7.398  16.674  0.00  0.00    +0.000 OA
ATOM     14  C   UNL     1       6.843   7.363  17.588  0.00  0.00    +0.000 A 
ATOM     15  C   UNL     1       6.047   6.274  17.355  0.00  0.00    +0.000 A 
BRANCH  11  17
ATOM     16  O   UNL     1       5.428   3.633  16.073  0.00  0.00    +0.000 OA
ATOM     17  C   UNL     1       6.094   4.496  15.501  0.00  0.00    +0.000 C 
ATOM     18  N   UNL     1       6.390   4.457  14.150  0.00  0.00    +0.000 N 
ATOM     19  H   UNL     1       6.958   5.212  13.779  0.00  0.00    +0.000 HD
BRANCH  18  20
ATOM     20  C   UNL     1       5.986   3.377  13.313  0.00  0.00    +0.000 C 
ATOM     21  C   UNL     1       5.068   3.605  12.143  0.00  0.00    +0.000 C 
ATOM     22  C   UNL     1       6.505   3.243  11.909  0.00  0.00    +0.000 C 
ENDBRANCH  18  20
ENDBRANCH  11  17
ENDBRANCH   7  15
ENDBRANCH   1   8
BRANCH   3  23
ATOM     23  C   UNL     1       1.705   2.418  19.724  0.00  0.00    +0.000 C 
ATOM     24  C   UNL     1       0.847   1.738  18.678  0.00  0.00    +0.000 C 
ATOM     25  C   UNL     1       2.339   1.641  18.596  0.00  0.00    +0.000 C 
ENDBRANCH   3  23
BRANCH   6  26
ATOM     26  N   UNL     1       2.001   8.075  20.019  0.00  0.00    +0.000 N 
ATOM     27  H   UNL     1       2.756   8.486  19.462  0.00  0.00    +0.000 HD
BRANCH  26  28
ATOM     28  C   UNL     1       1.259   8.960  20.812  0.00  0.00    +0.000 A 
ATOM     29  C   UNL     1       1.366   9.091  22.190  0.00  0.00    +0.000 A 
ATOM     30  N   UNL     1       0.576   9.874  22.965  0.00  0.00    +0.000 NA
ATOM     31  C   UNL     1      -0.365  10.564  22.316  0.00  0.00    +0.000 A 
ATOM     32  N   UNL     1      -0.572  10.554  20.990  0.00  0.00    +0.000 NA
ATOM     33  C   UNL     1       0.249   9.748  20.279  0.00  0.00    +0.000 A 
ENDBRANCH  26  28
ENDBRANCH   6  26
TORSDOF 7
ENDMDL
MODEL 2
REMARK VINA RESULT:      -8.0      0.714      1.231
REMARK  Name = 
REMARK  7 active torsions:
REMARK  status: ('A' for Active; 'I' for Inactive)
REMARK    1  A    between atoms: C_2  and  C_7
REMARK    2  A    between atoms: N_3  and  C_4
REMARK    3  A    between atoms: C_11  and  N_12
REMARK    4  A    between atoms: C_13  and  C_15
REMARK    5  A    between atoms: C_17  and  C_18
REMARK    6  A    between atoms: C_23  and  N_24
REMARK    7  A    between atoms: N_24  and  C_25
REMARK                            x       y       z     vdW  Elec       q    Type
REMARK                         _______ _______ _______ _____ _____    ______ ____
ROOT
ATOM      1  C   UNL     1       2.727   6.006  18.997  0.00  0.00    +0.000 A 
ATOM      2  N   UNL     1       2.544   4.646  18.894  0.00  0.00    +0.000 NA
ATOM      3  C   UNL     1       1.725   4.074  19.809  0.00  0.00    +0.000 A 
ATOM      4  C   UNL     1       1.130   4.875  20.780  0.00  0.00    +0.000 A 
ATOM      5  N   UNL     1       1.275   6.219  20.852  0.00  0.00    +0.000 NA
ATOM      6  C   UNL     1       2.080   6.815  19.941  0.00  0.00    +0.000 A 
ENDROOT
BRANCH   1   8
ATOM      7  N   UNL     1       4.953   5.871  18.068  0.00  0.00    +0.000 N 
ATOM      8  C   UNL     1       3.763   6.573  18.076  0.00  0.00    +0.000 C 
ATOM      9  O   UNL     1       3.517   7.561  17.386  0.00  0.00    +0.000 OA
ATOM     10  H   UNL     1       4.920   4.914  18.423  0.00  0.00    +0.000 HD
BRANCH   7  15
ATOM     11  C   UNL     1       6.546   5.623  16.140  0.00  0.00    +0.000 A 
ATOM     12  N   UNL     1       7.665   6.234  15.702  0.00  0.00    +0.000 NA
ATOM     13  O   UNL     1       7.908   7.259  16.604  0.00  0.00    +0.000 OA
ATOM     14  C   UNL     1       6.939   7.268  17.554  0.00  0.00    +0.000 A 
ATOM     15  C   UNL     1       6.059   6.246  17.322  0.00  0.00    +0.000 A 
BRANCH  11  17
ATOM     16  O   UNL     1       5.097   3.778  15.964  0.00  0.00    +0.000 OA
ATOM     17  C   UNL     1       5.914   4.522  15.423  0.00  0.00    +0.000 C 
ATOM     18  N   UNL     1       6.294   4.399  14.098  0.00  0.00    +0.000 N 
ATOM     19  H   UNL     1       6.986   5.056  13.753  0.00  0.00    +0.000 HD
BRANCH  18  20
ATOM     20  C   UNL     1       5.803   3.358  13.259  0.00  0.00    +0.000 C 
ATOM     21  C   UNL     1       5.051   3.671  11.995  0.00  0.00    +0.000 C 
ATOM     22  C   UNL     1       6.426   3.076  11.921  0.00  0.00    +0.000 C 
ENDBRANCH  18  20
ENDBRANCH  11  17
ENDBRANCH   7  15
ENDBRANCH   1   8
BRANCH   3  23
ATOM     23  C   UNL     1       1.535   2.579  19.807  0.00  0.00    +0.000 C 
ATOM     24  C   UNL     1       0.647   1.909  18.779  0.00  0.00    +0.000 C 
ATOM     25  C   UNL     1       2.132   1.729  18.712  0.00  0.00    +0.000 C 
ENDBRANCH   3  23
BRANCH   6  26
ATOM     26  N   UNL     1       2.137   8.219  19.908  0.00  0.00    +0.000 N 
ATOM     27  H   UNL     1       3.059   8.585  20.160  0.00  0.00    +0.000 HD
BRANCH  26  28
ATOM     28  C   UNL     1       1.106   9.159  19.785  0.00  0.00    +0.000 A 
ATOM     29  C   UNL     1       0.656   9.710  18.592  0.00  0.00    +0.000 A 
ATOM     30  N   UNL     1      -0.271  10.693  18.486  0.00  0.00    +0.000 NA
ATOM     31  C   UNL     1      -0.776  11.138  19.640  0.00  0.00    +0.000 A 
ATOM     32  N   UNL     1      -0.454  10.686  20.862  0.00  0.00    +0.000 NA
ATOM     33  C   UNL     1       0.480   9.708  20.895  0.00  0.00    +0.000 A 
ENDBRANCH  26  28
ENDBRANCH   6  26
TORSDOF 7
ENDMDL
MODEL 3
REMARK VINA RESULT:      -7.6      2.101      5.917
REMARK  Name = 
REMARK  7 active torsions:
REMARK  status: ('A' for Active; 'I' for Inactive)
REMARK    1  A    between atoms: C_2  and  C_7
REMARK    2  A    between atoms: N_3  and  C_4
REMARK    3  A    between atoms: C_11  and  N_12
REMARK    4  A    between atoms: C_13  and  C_15
REMARK    5  A    between atoms: C_17  and  C_18
REMARK    6  A    between atoms: C_23  and  N_24
REMARK    7  A    between atoms: N_24  and  C_25
REMARK                            x       y       z     vdW  Elec       q    Type
REMARK                         _______ _______ _______ _____ _____    ______ ____
ROOT
ATOM      1  C   UNL     1       2.510   7.451  18.945  0.00  0.00    +0.000 A 
ATOM      2  N   UNL     1       2.123   8.687  18.480  0.00  0.00    +0.000 NA
ATOM      3  C   UNL     1       1.272   9.391  19.266  0.00  0.00    +0.000 A 
ATOM      4  C   UNL     1       0.846   8.835  20.470  0.00  0.00    +0.000 A 
ATOM      5  N   UNL     1       1.263   7.639  20.947  0.00  0.00    +0.000 NA
ATOM      6  C   UNL     1       2.123   6.922  20.185  0.00  0.00    +0.000 A 
ENDROOT
BRANCH   1   8
ATOM      7  N   UNL     1       4.575   7.146  17.729  0.00  0.00    +0.000 N 
ATOM      8  C   UNL     1       3.314   6.639  17.977  0.00  0.00    +0.000 C 
ATOM      9  O   UNL     1       2.858   5.605  17.494  0.00  0.00    +0.000 OA
ATOM     10  H   UNL     1       4.944   7.805  18.416  0.00  0.00    +0.000 HD
BRANCH   7  15
ATOM     11  C   UNL     1       6.886   6.685  16.856  0.00  0.00    +0.000 A 
ATOM     12  N   UNL     1       7.431   6.032  15.811  0.00  0.00    +0.000 NA
ATOM     13  O   UNL     1       6.364   5.498  15.105  0.00  0.00    +0.000 OA
ATOM     14  C   UNL     1       5.202   5.814  15.731  0.00  0.00    +0.000 A 
ATOM     15  C   UNL     1       5.468   6.578  16.835  0.00  0.00    +0.000 A 
BRANCH  11  17
ATOM     16  O   UNL     1       8.082   6.730  18.882  0.00  0.00    +0.000 OA
ATOM     17  C   UNL     1       7.686   7.336  17.887  0.00  0.00    +0.000 C 
ATOM     18  N   UNL     1       7.970   8.668  17.645  0.00  0.00    +0.000 N 
ATOM     19  H   UNL     1       7.583   9.078  16.800  0.00  0.00    +0.000 HD
BRANCH  18  20
ATOM     20  C   UNL     1       8.709   9.468  18.563  0.00  0.00    +0.000 C 
ATOM     21  C   UNL     1       9.704  10.486  18.078  0.00  0.00    +0.000 C 
ATOM     22  C   UNL     1       8.427  10.936  18.722  0.00  0.00    +0.000 C 
ENDBRANCH  18  20
ENDBRANCH  11  17
ENDBRANCH   7  15
ENDBRANCH   1   8
BRANCH   3  23
ATOM     23  C   UNL     1       0.744  10.720  18.790  0.00  0.00    +0.000 C 
ATOM     24  C   UNL     1      -0.649  10.841  18.210  0.00  0.00    +0.000 C 
ATOM     25  C   UNL     1      -0.347  11.431  19.552  0.00  0.00    +0.000 C 
ENDBRANCH   3  23
BRANCH   6  26
ATOM     26  N   UNL     1       2.677   5.746  20.718  0.00  0.00    +0.000 N 
ATOM     27  H   UNL     1       3.473   5.928  21.336  0.00  0.00    +0.000 HD
BRANCH  26  28
ATOM     28  C   UNL     1       2.441   4.407  20.382  0.00  0.00    +0.000 A 
ATOM     29  C   UNL     1       3.419   3.461  20.106  0.00  0.00    +0.000 A 
ATOM     30  N   UNL     1       3.184   2.195  19.683  0.00  0.00    +0.000 NA
ATOM     31  C   UNL     1       1.898   1.864  19.538  0.00  0.00    +0.000 A 
ATOM     32  N   UNL     1       0.850   2.664  19.787  0.00  0.00    +0.000 NA
ATOM     33  C   UNL     1       1.157   3.914  20.202  0.00  0.00    +0.000 A 
ENDBRANCH  26  28
ENDBRANCH   6  26
TORSDOF 7
ENDMDL
MODEL 4
REMARK VINA RESULT:      -7.4      1.117      1.320
REMARK  Name = 
REMARK  7 active torsions:
REMARK  status: ('A' for Active; 'I' for Inactive)
REMARK    1  A    between atoms: C_2  and  C_7
REMARK    2  A    between atoms: N_3  and  C_4
REMARK    3  A    between atoms: C_11  and  N_12
REMARK    4  A    between atoms: C_13  and  C_15
REMARK    5  A    between atoms: C_17  and  C_18
REMARK    6  A    between atoms: C_23  and  N_24
REMARK    7  A    between atoms: N_24  and  C_25
REMARK                            x       y       z     vdW  Elec       q    Type
REMARK                         _______ _______ _______ _____ _____    ______ ____
ROOT
ATOM      1  C   UNL     1       2.767   6.489  18.957  0.00  0.00    +0.000 A 
ATOM      2  N   UNL     1       2.600   5.136  19.140  0.00  0.00    +0.000 NA
ATOM      3  C   UNL     1       1.764   4.758  20.137  0.00  0.00    +0.000 A 
ATOM      4  C   UNL     1       1.137   5.737  20.903  0.00  0.00    +0.000 A 
ATOM      5  N   UNL     1       1.267   7.069  20.692  0.00  0.00    +0.000 NA
ATOM      6  C   UNL     1       2.088   7.471  19.694  0.00  0.00    +0.000 A 
ENDROOT
BRANCH   1   8
ATOM      7  N   UNL     1       4.967   6.098  18.038  0.00  0.00    +0.000 N 
ATOM      8  C   UNL     1       3.821   6.864  17.960  0.00  0.00    +0.000 C 
ATOM      9  O   UNL     1       3.623   7.764  17.147  0.00  0.00    +0.000 OA
ATOM     10  H   UNL     1       4.884   5.200  18.519  0.00  0.00    +0.000 HD
BRANCH   7  15
ATOM     11  C   UNL     1       6.425   5.600  16.053  0.00  0.00    +0.000 A 
ATOM     12  N   UNL     1       7.599   6.041  15.558  0.00  0.00    +0.000 NA
ATOM     13  O   UNL     1       8.022   7.033  16.429  0.00  0.00    +0.000 OA
ATOM     14  C   UNL     1       7.105   7.193  17.416  0.00  0.00    +0.000 A 
ATOM     15  C   UNL     1       6.082   6.302  17.241  0.00  0.00    +0.000 A 
BRANCH  11  17
ATOM     16  O   UNL     1       4.690   4.013  15.958  0.00  0.00    +0.000 OA
ATOM     17  C   UNL     1       5.614   4.588  15.384  0.00  0.00    +0.000 C 
ATOM     18  N   UNL     1       5.959   4.348  14.066  0.00  0.00    +0.000 N 
ATOM     19  H   UNL     1       6.747   4.867  13.692  0.00  0.00    +0.000 HD
BRANCH  18  20
ATOM     20  C   UNL     1       5.296   3.368  13.273  0.00  0.00    +0.000 C 
ATOM     21  C   UNL     1       4.771   3.704  11.904  0.00  0.00    +0.000 C 
ATOM     22  C   UNL     1       5.947   2.784  12.050  0.00  0.00    +0.000 C 
ENDBRANCH  18  20
ENDBRANCH  11  17
ENDBRANCH   7  15
ENDBRANCH   1   8
BRANCH   3  23
ATOM     23  C   UNL     1       1.588   3.294  20.447  0.00  0.00    +0.000 C 
ATOM     24  C   UNL     1       0.970   2.353  19.434  0.00  0.00    +0.000 C 
ATOM     25  C   UNL     1       2.430   2.254  19.748  0.00  0.00    +0.000 C 
ENDBRANCH   3  23
BRANCH   6  26
ATOM     26  N   UNL     1       2.132   8.836  19.366  0.00  0.00    +0.000 N 
ATOM     27  H   UNL     1       3.088   9.186  19.250  0.00  0.00    +0.000 HD
BRANCH  26  28
ATOM     28  C   UNL     1       1.113   9.797  19.374  0.00  0.00    +0.000 A 
ATOM     29  C   UNL     1       0.818  10.649  20.429  0.00  0.00    +0.000 A 
ATOM     30  N   UNL     1      -0.232  11.506  20.472  0.00  0.00    +0.000 NA
ATOM     31  C   UNL     1      -1.019  11.508  19.393  0.00  0.00    +0.000 A 
ATOM     32  N   UNL     1      -0.845  10.758  18.294  0.00  0.00    +0.000 NA
ATOM     33  C   UNL     1       0.219   9.923  18.321  0.00  0.00    +0.000 A 
ENDBRANCH  26  28
ENDBRANCH   6  26
TORSDOF 7
ENDMDL
MODEL 5
REMARK VINA RESULT:      -7.4      2.142      7.548
REMARK  Name = 
REMARK  7 active torsions:
REMARK  status: ('A' for Active; 'I' for Inactive)
REMARK    1  A    between atoms: C_2  and  C_7
REMARK    2  A    between atoms: N_3  and  C_4
REMARK    3  A    between atoms: C_11  and  N_12
REMARK    4  A    between atoms: C_13  and  C_15
REMARK    5  A    between atoms: C_17  and  C_18
REMARK    6  A    between atoms: C_23  and  N_24
REMARK    7  A    between atoms: N_24  and  C_25
REMARK                            x       y       z     vdW  Elec       q    Type
REMARK                         _______ _______ _______ _____ _____    ______ ____
ROOT
ATOM      1  C   UNL     1       6.004   4.372  16.858  0.00  0.00    +0.000 A 
ATOM      2  N   UNL     1       5.651   3.583  15.787  0.00  0.00    +0.000 NA
ATOM      3  C   UNL     1       6.195   3.908  14.589  0.00  0.00    +0.000 A 
ATOM      4  C   UNL     1       7.058   4.998  14.511  0.00  0.00    +0.000 A 
ATOM      5  N   UNL     1       7.441   5.745  15.575  0.00  0.00    +0.000 NA
ATOM      6  C   UNL     1       6.919   5.432  16.784  0.00  0.00    +0.000 A 
ENDROOT
BRANCH   1   8
ATOM      7  N   UNL     1       3.911   3.839  17.940  0.00  0.00    +0.000 N 
ATOM      8  C   UNL     1       5.257   4.084  18.124  0.00  0.00    +0.000 C 
ATOM      9  O   UNL     1       5.842   4.053  19.205  0.00  0.00    +0.000 OA
ATOM     10  H   UNL     1       3.619   3.579  16.996  0.00  0.00    +0.000 HD
BRANCH   7  15
ATOM     11  C   UNL     1       2.360   4.561  19.781  0.00  0.00    +0.000 A 
ATOM     12  N   UNL     1       1.600   3.962  20.719  0.00  0.00    +0.000 NA
ATOM     13  O   UNL     1       1.773   2.600  20.527  0.00  0.00    +0.000 OA
ATOM     14  C   UNL     1       2.609   2.391  19.479  0.00  0.00    +0.000 A 
ATOM     15  C   UNL     1       3.026   3.594  18.978  0.00  0.00    +0.000 A 
BRANCH  11  17
ATOM     16  O   UNL     1       2.892   6.524  18.597  0.00  0.00    +0.000 OA
ATOM     17  C   UNL     1       2.403   6.007  19.602  0.00  0.00    +0.000 C 
ATOM     18  N   UNL     1       1.842   6.736  20.636  0.00  0.00    +0.000 N 
ATOM     19  H   UNL     1       1.479   6.213  21.426  0.00  0.00    +0.000 HD
BRANCH  18  20
ATOM     20  C   UNL     1       1.830   8.161  20.644  0.00  0.00    +0.000 C 
ATOM     21  C   UNL     1       0.548   8.926  20.465  0.00  0.00    +0.000 C 
ATOM     22  C   UNL     1       1.242   8.929  21.794  0.00  0.00    +0.000 C 
ENDBRANCH  18  20
ENDBRANCH  11  17
ENDBRANCH   7  15
ENDBRANCH   1   8
BRANCH   3  23
ATOM     23  C   UNL     1       5.798   3.138  13.357  0.00  0.00    +0.000 C 
ATOM     24  C   UNL     1       5.006   3.799  12.247  0.00  0.00    +0.000 C 
ATOM     25  C   UNL     1       6.441   3.434  12.024  0.00  0.00    +0.000 C 
ENDBRANCH   3  23
BRANCH   6  26
ATOM     26  N   UNL     1       7.404   6.100  17.921  0.00  0.00    +0.000 N 
ATOM     27  H   UNL     1       7.360   5.526  18.767  0.00  0.00    +0.000 HD
BRANCH  26  28
ATOM     28  C   UNL     1       7.736   7.449  18.098  0.00  0.00    +0.000 A 
ATOM     29  C   UNL     1       7.252   8.504  17.338  0.00  0.00    +0.000 A 
ATOM     30  N   UNL     1       7.653   9.795  17.446  0.00  0.00    +0.000 NA
ATOM     31  C   UNL     1       8.584  10.034  18.374  0.00  0.00    +0.000 A 
ATOM     32  N   UNL     1       9.126   9.120  19.194  0.00  0.00    +0.000 NA
ATOM     33  C   UNL     1       8.683   7.853  19.028  0.00  0.00    +0.000 A 
ENDBRANCH  26  28
ENDBRANCH   6  26
TORSDOF 7
ENDMDL
MODEL 6
REMARK VINA RESULT:      -7.3      2.864      7.471
REMARK  Name = 
REMARK  7 active torsions:
REMARK  status: ('A' for Active; 'I' for Inactive)
REMARK    1  A    between atoms: C_2  and  C_7
REMARK    2  A    between atoms: N_3  and  C_4
REMARK    3  A    between atoms: C_11  and  N_12
REMARK    4  A    between atoms: C_13  and  C_15
REMARK    5  A    between atoms: C_17  and  C_18
REMARK    6  A    between atoms: C_23  and  N_24
REMARK    7  A    between atoms: N_24  and  C_25
REMARK                            x       y       z     vdW  Elec       q    Type
REMARK                         _______ _______ _______ _____ _____    ______ ____
ROOT
ATOM      1  C   UNL     1       4.282   5.893  18.086  0.00  0.00    +0.000 A 
ATOM      2  N   UNL     1       5.231   6.836  17.766  0.00  0.00    +0.000 NA
ATOM      3  C   UNL     1       6.493   6.383  17.568  0.00  0.00    +0.000 A 
ATOM      4  C   UNL     1       6.752   5.022  17.700  0.00  0.00    +0.000 A 
ATOM      5  N   UNL     1       5.808   4.089  17.971  0.00  0.00    +0.000 NA
ATOM      6  C   UNL     1       4.538   4.516  18.161  0.00  0.00    +0.000 A 
ENDROOT
BRANCH   1   8
ATOM      7  N   UNL     1       2.964   7.281  19.560  0.00  0.00    +0.000 N 
ATOM      8  C   UNL     1       2.942   6.450  18.457  0.00  0.00    +0.000 C 
ATOM      9  O   UNL     1       1.944   6.183  17.790  0.00  0.00    +0.000 OA
ATOM     10  H   UNL     1       3.871   7.671  19.819  0.00  0.00    +0.000 HD
BRANCH   7  15
ATOM     11  C   UNL     1       1.262   9.121  19.743  0.00  0.00    +0.000 A 
ATOM     12  N   UNL     1       0.181   9.391  20.501  0.00  0.00    +0.000 NA
ATOM     13  O   UNL     1       0.046   8.309  21.357  0.00  0.00    +0.000 OA
ATOM     14  C   UNL     1       1.021   7.401  21.100  0.00  0.00    +0.000 A 
ATOM     15  C   UNL     1       1.831   7.868  20.101  0.00  0.00    +0.000 A 
BRANCH  11  17
ATOM     16  O   UNL     1       1.934   9.562  17.532  0.00  0.00    +0.000 OA
ATOM     17  C   UNL     1       1.708   9.993  18.662  0.00  0.00    +0.000 C 
ATOM     18  N   UNL     1       1.835  11.326  19.008  0.00  0.00    +0.000 N 
ATOM     19  H   UNL     1       1.638  11.575  19.972  0.00  0.00    +0.000 HD
BRANCH  18  20
ATOM     20  C   UNL     1       2.294  12.311  18.086  0.00  0.00    +0.000 C 
ATOM     21  C   UNL     1       1.664  13.676  18.033  0.00  0.00    +0.000 C 
ATOM     22  C   UNL     1       3.062  13.517  18.551  0.00  0.00    +0.000 C 
ENDBRANCH  18  20
ENDBRANCH  11  17
ENDBRANCH   7  15
ENDBRANCH   1   8
BRANCH   3  23
ATOM     23  C   UNL     1       7.601   7.365  17.288  0.00  0.00    +0.000 C 
ATOM     24  C   UNL     1       7.459   8.826  17.662  0.00  0.00    +0.000 C 
ATOM     25  C   UNL     1       8.411   7.953  18.418  0.00  0.00    +0.000 C 
ENDBRANCH   3  23
BRANCH   6  26
ATOM     26  N   UNL     1       3.519   3.559  18.304  0.00  0.00    +0.000 N 
ATOM     27  H   UNL     1       3.170   3.213  17.406  0.00  0.00    +0.000 HD
BRANCH  26  28
ATOM     28  C   UNL     1       2.800   3.174  19.443  0.00  0.00    +0.000 A 
ATOM     29  C   UNL     1       1.421   3.255  19.590  0.00  0.00    +0.000 A 
ATOM     30  N   UNL     1       0.739   2.977  20.728  0.00  0.00    +0.000 NA
ATOM     31  C   UNL     1       1.484   2.592  21.768  0.00  0.00    +0.000 A 
ATOM     32  N   UNL     1       2.818   2.449  21.766  0.00  0.00    +0.000 NA
ATOM     33  C   UNL     1       3.435   2.746  20.599  0.00  0.00    +0.000 A 
ENDBRANCH  26  28
ENDBRANCH   6  26
TORSDOF 7
ENDMDL
MODEL 7
REMARK VINA RESULT:      -7.3      0.896      1.140
REMARK  Name = 
REMARK  7 active torsions:
REMARK  status: ('A' for Active; 'I' for Inactive)
REMARK    1  A    between atoms: C_2  and  C_7
REMARK    2  A    between atoms: N_3  and  C_4
REMARK    3  A    between atoms: C_11  and  N_12
REMARK    4  A    between atoms: C_13  and  C_15
REMARK    5  A    between atoms: C_17  and  C_18
REMARK    6  A    between atoms: C_23  and  N_24
REMARK    7  A    between atoms: N_24  and  C_25
REMARK                            x       y       z     vdW  Elec       q    Type
REMARK                         _______ _______ _______ _____ _____    ______ ____
ROOT
ATOM      1  C   UNL     1       2.780   6.162  19.002  0.00  0.00    +0.000 A 
ATOM      2  N   UNL     1       2.757   4.801  19.201  0.00  0.00    +0.000 NA
ATOM      3  C   UNL     1       1.930   4.343  20.172  0.00  0.00    +0.000 A 
ATOM      4  C   UNL     1       1.169   5.256  20.898  0.00  0.00    +0.000 A 
ATOM      5  N   UNL     1       1.158   6.591  20.670  0.00  0.00    +0.000 NA
ATOM      6  C   UNL     1       1.968   7.070  19.697  0.00  0.00    +0.000 A 
ENDROOT
BRANCH   1   8
ATOM      7  N   UNL     1       4.992   5.907  18.067  0.00  0.00    +0.000 N 
ATOM      8  C   UNL     1       3.823   6.641  18.040  0.00  0.00    +0.000 C 
ATOM      9  O   UNL     1       3.599   7.590  17.291  0.00  0.00    +0.000 OA
ATOM     10  H   UNL     1       4.937   4.975  18.482  0.00  0.00    +0.000 HD
BRANCH   7  15
ATOM     11  C   UNL     1       6.547   5.508  16.134  0.00  0.00    +0.000 A 
ATOM     12  N   UNL     1       7.683   6.053  15.655  0.00  0.00    +0.000 NA
ATOM     13  O   UNL     1       7.979   7.107  16.505  0.00  0.00    +0.000 OA
ATOM     14  C   UNL     1       7.025   7.198  17.466  0.00  0.00    +0.000 A 
ATOM     15  C   UNL     1       6.102   6.203  17.292  0.00  0.00    +0.000 A 
BRANCH  11  17
ATOM     16  O   UNL     1       5.245   3.548  16.112  0.00  0.00    +0.000 OA
ATOM     17  C   UNL     1       5.862   4.402  15.475  0.00  0.00    +0.000 C 
ATOM     18  N   UNL     1       5.950   4.404  14.095  0.00  0.00    +0.000 N 
ATOM     19  H   UNL     1       6.495   5.146  13.667  0.00  0.00    +0.000 HD
BRANCH  18  20
ATOM     20  C   UNL     1       5.370   3.379  13.293  0.00  0.00    +0.000 C 
ATOM     21  C   UNL     1       4.822   3.682  11.925  0.00  0.00    +0.000 C 
ATOM     22  C   UNL     1       6.068   2.860  12.068  0.00  0.00    +0.000 C 
ENDBRANCH  18  20
ENDBRANCH  11  17
ENDBRANCH   7  15
ENDBRANCH   1   8
BRANCH   3  23
ATOM     23  C   UNL     1       1.907   2.873  20.498  0.00  0.00    +0.000 C 
ATOM     24  C   UNL     1       2.913   2.273  21.457  0.00  0.00    +0.000 C 
ATOM     25  C   UNL     1       1.478   2.395  21.865  0.00  0.00    +0.000 C 
ENDBRANCH   3  23
BRANCH   6  26
ATOM     26  N   UNL     1       1.872   8.428  19.349  0.00  0.00    +0.000 N 
ATOM     27  H   UNL     1       2.431   8.667  18.525  0.00  0.00    +0.000 HD
BRANCH  26  28
ATOM     28  C   UNL     1       1.311   9.500  20.054  0.00  0.00    +0.000 A 
ATOM     29  C   UNL     1       1.033   9.513  21.414  0.00  0.00    +0.000 A 
ATOM     30  N   UNL     1       0.397  10.513  22.073  0.00  0.00    +0.000 NA
ATOM     31  C   UNL     1       0.028  11.555  21.323  0.00  0.00    +0.000 A 
ATOM     32  N   UNL     1       0.248  11.690  20.006  0.00  0.00    +0.000 NA
ATOM     33  C   UNL     1       0.884  10.654  19.412  0.00  0.00    +0.000 A 
ENDBRANCH  26  28
ENDBRANCH   6  26
TORSDOF 7
ENDMDL
MODEL 8
REMARK VINA RESULT:      -7.3      1.673      3.623
REMARK  Name = 
REMARK  7 active torsions:
REMARK  status: ('A' for Active; 'I' for Inactive)
REMARK    1  A    between atoms: C_2  and  C_7
REMARK    2  A    between atoms: N_3  and  C_4
REMARK    3  A    between atoms: C_11  and  N_12
REMARK    4  A    between atoms: C_13  and  C_15
REMARK    5  A    between atoms: C_17  and  C_18
REMARK    6  A    between atoms: C_23  and  N_24
REMARK    7  A    between atoms: N_24  and  C_25
REMARK                            x       y       z     vdW  Elec       q    Type
REMARK                         _______ _______ _______ _____ _____    ______ ____
ROOT
ATOM      1  C   UNL     1       2.902   5.907  18.675  0.00  0.00    +0.000 A 
ATOM      2  N   UNL     1       2.787   4.571  18.982  0.00  0.00    +0.000 NA
ATOM      3  C   UNL     1       2.036   4.260  20.066  0.00  0.00    +0.000 A 
ATOM      4  C   UNL     1       1.440   5.287  20.793  0.00  0.00    +0.000 A 
ATOM      5  N   UNL     1       1.516   6.599  20.463  0.00  0.00    +0.000 NA
ATOM      6  C   UNL     1       2.251   6.932  19.376  0.00  0.00    +0.000 A 
ENDROOT
BRANCH   1   8
ATOM      7  N   UNL     1       4.714   5.174  17.255  0.00  0.00    +0.000 N 
ATOM      8  C   UNL     1       3.869   6.218  17.574  0.00  0.00    +0.000 C 
ATOM      9  O   UNL     1       3.853   7.314  17.016  0.00  0.00    +0.000 OA
ATOM     10  H   UNL     1       4.420   4.242  17.554  0.00  0.00    +0.000 HD
BRANCH   7  15
ATOM     11  C   UNL     1       6.914   6.017  16.380  0.00  0.00    +0.000 A 
ATOM     12  N   UNL     1       7.637   5.891  15.250  0.00  0.00    +0.000 NA
ATOM     13  O   UNL     1       6.904   5.049  14.429  0.00  0.00    +0.000 OA
ATOM     14  C   UNL     1       5.770   4.665  15.068  0.00  0.00    +0.000 A 
ATOM     15  C   UNL     1       5.713   5.259  16.299  0.00  0.00    +0.000 A 
BRANCH  11  17
ATOM     16  O   UNL     1       7.413   6.289  18.664  0.00  0.00    +0.000 OA
ATOM     17  C   UNL     1       7.376   6.779  17.535  0.00  0.00    +0.000 C 
ATOM     18  N   UNL     1       7.777   8.072  17.253  0.00  0.00    +0.000 N 
ATOM     19  H   UNL     1       7.693   8.383  16.291  0.00  0.00    +0.000 HD
BRANCH  18  20
ATOM     20  C   UNL     1       8.223   8.969  18.267  0.00  0.00    +0.000 C 
ATOM     21  C   UNL     1       9.379   9.899  18.024  0.00  0.00    +0.000 C 
ATOM     22  C   UNL     1       7.991  10.449  18.155  0.00  0.00    +0.000 C 
ENDBRANCH  18  20
ENDBRANCH  11  17
ENDBRANCH   7  15
ENDBRANCH   1   8
BRANCH   3  23
ATOM     23  C   UNL     1       1.925   2.824  20.509  0.00  0.00    +0.000 C 
ATOM     24  C   UNL     1       2.878   2.252  21.538  0.00  0.00    +0.000 C 
ATOM     25  C   UNL     1       1.443   2.483  21.899  0.00  0.00    +0.000 C 
ENDBRANCH   3  23
BRANCH   6  26
ATOM     26  N   UNL     1       2.233   8.265  18.933  0.00  0.00    +0.000 N 
ATOM     27  H   UNL     1       3.117   8.553  18.504  0.00  0.00    +0.000 HD
BRANCH  26  28
ATOM     28  C   UNL     1       1.294   9.278  19.166  0.00  0.00    +0.000 A 
ATOM     29  C   UNL     1       0.956   9.793  20.410  0.00  0.00    +0.000 A 
ATOM     30  N   UNL     1      -0.025  10.700  20.641  0.00  0.00    +0.000 NA
ATOM     31  C   UNL     1      -0.695  11.113  19.561  0.00  0.00    +0.000 A 
ATOM     32  N   UNL     1      -0.465  10.721  18.298  0.00  0.00    +0.000 NA
ATOM     33  C   UNL     1       0.525   9.812  18.142  0.00  0.00    +0.000 A 
ENDBRANCH  26  28
ENDBRANCH   6  26
TORSDOF 7
ENDMDL
MODEL 9
REMARK VINA RESULT:      -7.2      2.012      2.872
REMARK  Name = 
REMARK  7 active torsions:
REMARK  status: ('A' for Active; 'I' for Inactive)
REMARK    1  A    between atoms: C_2  and  C_7
REMARK    2  A    between atoms: N_3  and  C_4
REMARK    3  A    between atoms: C_11  and  N_12
REMARK    4  A    between atoms: C_13  and  C_15
REMARK    5  A    between atoms: C_17  and  C_18
REMARK    6  A    between atoms: C_23  and  N_24
REMARK    7  A    between atoms: N_24  and  C_25
REMARK                            x       y       z     vdW  Elec       q    Type
REMARK                         _______ _______ _______ _____ _____    ______ ____
ROOT
ATOM      1  C   UNL     1       2.737   6.787  19.023  0.00  0.00    +0.000 A 
ATOM      2  N   UNL     1       2.670   5.559  19.640  0.00  0.00    +0.000 NA
ATOM      3  C   UNL     1       1.862   5.469  20.725  0.00  0.00    +0.000 A 
ATOM      4  C   UNL     1       1.165   6.598  21.145  0.00  0.00    +0.000 A 
ATOM      5  N   UNL     1       1.196   7.793  20.510  0.00  0.00    +0.000 NA
ATOM      6  C   UNL     1       1.987   7.905  19.417  0.00  0.00    +0.000 A 
ENDROOT
BRANCH   1   8
ATOM      7  N   UNL     1       4.951   6.250  18.220  0.00  0.00    +0.000 N 
ATOM      8  C   UNL     1       3.761   6.890  17.935  0.00  0.00    +0.000 C 
ATOM      9  O   UNL     1       3.506   7.479  16.887  0.00  0.00    +0.000 OA
ATOM     10  H   UNL     1       4.924   5.544  18.958  0.00  0.00    +0.000 HD
BRANCH   7  15
ATOM     11  C   UNL     1       6.407   5.254  16.431  0.00  0.00    +0.000 A 
ATOM     12  N   UNL     1       7.556   5.576  15.804  0.00  0.00    +0.000 NA
ATOM     13  O   UNL     1       7.947   6.793  16.341  0.00  0.00    +0.000 OA
ATOM     14  C   UNL     1       7.034   7.197  17.261  0.00  0.00    +0.000 A 
ATOM     15  C   UNL     1       6.048   6.256  17.374  0.00  0.00    +0.000 A 
BRANCH  11  17
ATOM     16  O   UNL     1       5.672   3.552  14.982  0.00  0.00    +0.000 OA
ATOM     17  C   UNL     1       5.633   4.063  16.101  0.00  0.00    +0.000 C 
ATOM     18  N   UNL     1       4.875   3.557  17.143  0.00  0.00    +0.000 N 
ATOM     19  H   UNL     1       4.903   4.063  18.022  0.00  0.00    +0.000 HD
BRANCH  18  20
ATOM     20  C   UNL     1       4.031   2.420  16.988  0.00  0.00    +0.000 C 
ATOM     21  C   UNL     1       3.608   1.601  18.176  0.00  0.00    +0.000 C 
ATOM     22  C   UNL     1       2.601   2.443  17.451  0.00  0.00    +0.000 C 
ENDBRANCH  18  20
ENDBRANCH  11  17
ENDBRANCH   7  15
ENDBRANCH   1   8
BRANCH   3  23
ATOM     23  C   UNL     1       1.795   4.177  21.498  0.00  0.00    +0.000 C 
ATOM     24  C   UNL     1       1.212   2.926  20.873  0.00  0.00    +0.000 C 
ATOM     25  C   UNL     1       2.685   3.014  21.130  0.00  0.00    +0.000 C 
ENDBRANCH   3  23
BRANCH   6  26
ATOM     26  N   UNL     1       1.930   9.089  18.662  0.00  0.00    +0.000 N 
ATOM     27  H   UNL     1       2.798   9.276  18.152  0.00  0.00    +0.000 HD
BRANCH  26  28
ATOM     28  C   UNL     1       0.976  10.113  18.665  0.00  0.00    +0.000 A 
ATOM     29  C   UNL     1      -0.327  10.002  18.199  0.00  0.00    +0.000 A 
ATOM     30  N   UNL     1      -1.216  11.021  18.110  0.00  0.00    +0.000 NA
ATOM     31  C   UNL     1      -0.770  12.212  18.518  0.00  0.00    +0.000 A 
ATOM     32  N   UNL     1       0.452  12.465  19.011  0.00  0.00    +0.000 NA
ATOM     33  C   UNL     1       1.288  11.403  19.067  0.00  0.00    +0.000 A 
ENDBRANCH  26  28
ENDBRANCH   6  26
TORSDOF 7
ENDMDL
