MODEL 1
REMARK VINA RESULT:      -8.4      0.000      0.000
REMARK  Name = 
REMARK  12 active torsions:
REMARK  status: ('A' for Active; 'I' for Inactive)
REMARK    1  A    between atoms: C_1  and  C_2
REMARK    2  A    between atoms: C_2  and  C_22
REMARK    3  A    between atoms: C_3  and  C_4
REMARK    4  A    between atoms: C_4  and  C_5
REMARK    5  A    between atoms: C_7  and  C_8
REMARK    6  A    between atoms: C_8  and  O_10
REMARK    7  A    between atoms: C_15  and  C_16
REMARK    8  A    between atoms: C_16  and  C_17
REMARK    9  A    between atoms: C_16  and  C_18
REMARK   10  A    between atoms: C_16  and  O_19
REMARK   11  A    between atoms: C_20  and  O_21
REMARK   12  A    between atoms: C_22  and  O_23
REMARK                            x       y       z     vdW  Elec       q    Type
REMARK                         _______ _______ _______ _____ _____    ______ ____
ROOT
ATOM      1  C   UNL     1       5.261   4.969  15.866  0.00  0.00    +0.000 A 
ATOM      2  C   UNL     1       6.293   5.892  16.175  0.00  0.00    +0.000 A 
ATOM      3  C   UNL     1       6.644   6.168  17.513  0.00  0.00    +0.000 A 
ATOM      4  C   UNL     1       6.013   5.478  18.552  0.00  0.00    +0.000 A 
ATOM      5  C   UNL     1       5.015   4.563  18.240  0.00  0.00    +0.000 A 
ATOM      6  C   UNL     1       4.620   4.345  16.934  0.00  0.00    +0.000 A 
ATOM      7  O   UNL     1       3.559   3.474  16.831  0.00  0.00    +0.000 OA
ATOM      8  C   UNL     1       3.258   3.035  18.200  0.00  0.00    +0.000 C 
ATOM      9  C   UNL     1       4.248   3.715  19.170  0.00  0.00    +0.000 C 
ENDROOT
BRANCH   8  10
ATOM     10  C   UNL     1       1.771   3.314  18.570  0.00  0.00    +0.000 C 
ATOM     11  C   UNL     1       1.008   2.016  18.855  0.00  0.00    +0.000 C 
ATOM     12  C   UNL     1       1.659   4.225  19.801  0.00  0.00    +0.000 C 
BRANCH  10  13
ATOM     13  O   UNL     1       1.114   3.983  17.486  0.00  0.00    +0.000 OA
ATOM     14  H   UNL     1       1.802   4.216  16.834  0.00  0.00    +0.000 HD
ENDBRANCH  10  13
ENDBRANCH   8  10
BRANCH   3  15
ATOM     15  C   UNL     1       7.708   7.130  17.894  0.00  0.00    +0.000 C 
ATOM     16  O   UNL     1       7.995   8.104  17.213  0.00  0.00    +0.000 OA
BRANCH  15  17
ATOM     17  O   UNL     1       8.375   6.811  19.029  0.00  0.00    +0.000 OA
ATOM     18  H   UNL     1       9.218   7.281  19.164  0.00  0.00    +0.000 HD
ENDBRANCH  15  17
ENDBRANCH   3  15
BRANCH   9  19
ATOM     19  O   UNL     1       5.098   2.743  19.772  0.00  0.00    +0.000 OA
ATOM     20  H   UNL     1       5.949   3.171  19.973  0.00  0.00    +0.000 HD
ENDBRANCH   9  19
BRANCH   1  21
ATOM     21  C   UNL     1       4.923   4.664  14.424  0.00  0.00    +0.000 C 
BRANCH  21  24
ATOM     22  C   UNL     1       4.702   3.247  11.664  0.00  0.00    +0.000 C 
ATOM     23  C   UNL     1       5.969   3.384  12.467  0.00  0.00    +0.000 C 
ATOM     24  C   UNL     1       6.051   3.994  13.671  0.00  0.00    +0.000 C 
BRANCH  23  25
ATOM     25  C   UNL     1       7.186   2.782  11.805  0.00  0.00    +0.000 C 
BRANCH  25  26
ATOM     26  O   UNL     1       6.868   1.495  11.296  0.00  0.00    +0.000 OA
ATOM     27  H   UNL     1       7.552   0.888  11.626  0.00  0.00    +0.000 HD
ENDBRANCH  25  26
ENDBRANCH  23  25
ENDBRANCH  21  24
ENDBRANCH   1  21
TORSDOF 9
ENDMDL
MODEL 2
REMARK VINA RESULT:      -8.2      1.536      1.649
REMARK  Name = 
REMARK  12 active torsions:
REMARK  status: ('A' for Active; 'I' for Inactive)
REMARK    1  A    between atoms: C_1  and  C_2
REMARK    2  A    between atoms: C_2  and  C_22
REMARK    3  A    between atoms: C_3  and  C_4
REMARK    4  A    between atoms: C_4  and  C_5
REMARK    5  A    between atoms: C_7  and  C_8
REMARK    6  A    between atoms: C_8  and  O_10
REMARK    7  A    between atoms: C_15  and  C_16
REMARK    8  A    between atoms: C_16  and  C_17
REMARK    9  A    between atoms: C_16  and  C_18
REMARK   10  A    between atoms: C_16  and  O_19
REMARK   11  A    between atoms: C_20  and  O_21
REMARK   12  A    between atoms: C_22  and  O_23
REMARK                            x       y       z     vdW  Elec       q    Type
REMARK                         _______ _______ _______ _____ _____    ______ ____
ROOT
ATOM      1  C   UNL     1       5.409   4.235  16.615  0.00  0.00    +0.000 A 
ATOM      2  C   UNL     1       6.468   5.081  17.034  0.00  0.00    +0.000 A 
ATOM      3  C   UNL     1       6.725   5.298  18.403  0.00  0.00    +0.000 A 
ATOM      4  C   UNL     1       5.973   4.623  19.367  0.00  0.00    +0.000 A 
ATOM      5  C   UNL     1       4.948   3.782  18.948  0.00  0.00    +0.000 A 
ATOM      6  C   UNL     1       4.647   3.624  17.609  0.00  0.00    +0.000 A 
ATOM      7  O   UNL     1       3.547   2.826  17.396  0.00  0.00    +0.000 OA
ATOM      8  C   UNL     1       3.110   2.371  18.722  0.00  0.00    +0.000 C 
ATOM      9  C   UNL     1       4.058   2.959  19.788  0.00  0.00    +0.000 C 
ENDROOT
BRANCH   8  10
ATOM     10  C   UNL     1       1.618   2.733  18.983  0.00  0.00    +0.000 C 
ATOM     11  C   UNL     1       1.350   2.987  20.470  0.00  0.00    +0.000 C 
ATOM     12  C   UNL     1       1.196   3.980  18.191  0.00  0.00    +0.000 C 
BRANCH  10  13
ATOM     13  O   UNL     1       0.771   1.656  18.560  0.00  0.00    +0.000 OA
ATOM     14  H   UNL     1       0.225   1.992  17.825  0.00  0.00    +0.000 HD
ENDBRANCH  10  13
ENDBRANCH   8  10
BRANCH   3  15
ATOM     15  C   UNL     1       7.813   6.180  18.897  0.00  0.00    +0.000 C 
ATOM     16  O   UNL     1       8.089   7.249  18.371  0.00  0.00    +0.000 OA
BRANCH  15  17
ATOM     17  O   UNL     1       8.511   5.680  19.945  0.00  0.00    +0.000 OA
ATOM     18  H   UNL     1       8.392   4.726  20.107  0.00  0.00    +0.000 HD
ENDBRANCH  15  17
ENDBRANCH   3  15
BRANCH   9  19
ATOM     19  O   UNL     1       4.796   1.920  20.423  0.00  0.00    +0.000 OA
ATOM     20  H   UNL     1       4.508   1.870  21.352  0.00  0.00    +0.000 HD
ENDBRANCH   9  19
BRANCH   1  21
ATOM     21  C   UNL     1       5.170   3.991  15.142  0.00  0.00    +0.000 C 
BRANCH  21  24
ATOM     22  C   UNL     1       5.667   3.189  12.179  0.00  0.00    +0.000 C 
ATOM     23  C   UNL     1       6.518   4.148  12.969  0.00  0.00    +0.000 C 
ATOM     24  C   UNL     1       6.297   4.482  14.261  0.00  0.00    +0.000 C 
BRANCH  23  25
ATOM     25  C   UNL     1       7.666   4.741  12.188  0.00  0.00    +0.000 C 
BRANCH  25  26
ATOM     26  O   UNL     1       8.237   5.817  12.917  0.00  0.00    +0.000 OA
ATOM     27  H   UNL     1       7.558   6.510  12.969  0.00  0.00    +0.000 HD
ENDBRANCH  25  26
ENDBRANCH  23  25
ENDBRANCH  21  24
ENDBRANCH   1  21
TORSDOF 9
ENDMDL
MODEL 3
REMARK VINA RESULT:      -7.6      0.952      1.184
REMARK  Name = 
REMARK  12 active torsions:
REMARK  status: ('A' for Active; 'I' for Inactive)
REMARK    1  A    between atoms: C_1  and  C_2
REMARK    2  A    between atoms: C_2  and  C_22
REMARK    3  A    between atoms: C_3  and  C_4
REMARK    4  A    between atoms: C_4  and  C_5
REMARK    5  A    between atoms: C_7  and  C_8
REMARK    6  A    between atoms: C_8  and  O_10
REMARK    7  A    between atoms: C_15  and  C_16
REMARK    8  A    between atoms: C_16  and  C_17
REMARK    9  A    between atoms: C_16  and  C_18
REMARK   10  A    between atoms: C_16  and  O_19
REMARK   11  A    between atoms: C_20  and  O_21
REMARK   12  A    between atoms: C_22  and  O_23
REMARK                            x       y       z     vdW  Elec       q    Type
REMARK                         _______ _______ _______ _____ _____    ______ ____
ROOT
ATOM      1  C   UNL     1       5.518   5.235  16.409  0.00  0.00    +0.000 A 
ATOM      2  C   UNL     1       6.640   5.850  17.022  0.00  0.00    +0.000 A 
ATOM      3  C   UNL     1       6.917   5.655  18.391  0.00  0.00    +0.000 A 
ATOM      4  C   UNL     1       6.117   4.794  19.146  0.00  0.00    +0.000 A 
ATOM      5  C   UNL     1       5.029   4.182  18.534  0.00  0.00    +0.000 A 
ATOM      6  C   UNL     1       4.714   4.429  17.212  0.00  0.00    +0.000 A 
ATOM      7  O   UNL     1       3.553   3.806  16.810  0.00  0.00    +0.000 OA
ATOM      8  C   UNL     1       3.086   3.031  17.967  0.00  0.00    +0.000 C 
ATOM      9  C   UNL     1       4.080   3.226  19.132  0.00  0.00    +0.000 C 
ENDROOT
BRANCH   8  10
ATOM     10  C   UNL     1       1.627   3.415  18.354  0.00  0.00    +0.000 C 
ATOM     11  C   UNL     1       0.791   2.178  18.701  0.00  0.00    +0.000 C 
ATOM     12  C   UNL     1       1.599   4.375  19.553  0.00  0.00    +0.000 C 
BRANCH  10  13
ATOM     13  O   UNL     1       0.990   4.085  17.258  0.00  0.00    +0.000 OA
ATOM     14  H   UNL     1       1.236   5.027  17.317  0.00  0.00    +0.000 HD
ENDBRANCH  10  13
ENDBRANCH   8  10
BRANCH   3  15
ATOM     15  C   UNL     1       8.071   6.281  19.085  0.00  0.00    +0.000 C 
ATOM     16  O   UNL     1       8.520   7.373  18.769  0.00  0.00    +0.000 OA
BRANCH  15  17
ATOM     17  O   UNL     1       8.621   5.519  20.060  0.00  0.00    +0.000 OA
ATOM     18  H   UNL     1       9.425   5.886  20.473  0.00  0.00    +0.000 HD
ENDBRANCH  15  17
ENDBRANCH   3  15
BRANCH   9  19
ATOM     19  O   UNL     1       4.737   1.998  19.434  0.00  0.00    +0.000 OA
ATOM     20  H   UNL     1       5.680   2.101  19.217  0.00  0.00    +0.000 HD
ENDBRANCH   9  19
BRANCH   1  21
ATOM     21  C   UNL     1       5.257   5.432  14.933  0.00  0.00    +0.000 C 
BRANCH  21  24
ATOM     22  C   UNL     1       7.477   5.199  12.767  0.00  0.00    +0.000 C 
ATOM     23  C   UNL     1       6.535   4.093  13.162  0.00  0.00    +0.000 C 
ATOM     24  C   UNL     1       5.567   4.208  14.099  0.00  0.00    +0.000 C 
BRANCH  23  25
ATOM     25  C   UNL     1       6.763   2.796  12.422  0.00  0.00    +0.000 C 
BRANCH  25  26
ATOM     26  O   UNL     1       5.538   2.338  11.867  0.00  0.00    +0.000 OA
ATOM     27  H   UNL     1       5.626   2.410  10.902  0.00  0.00    +0.000 HD
ENDBRANCH  25  26
ENDBRANCH  23  25
ENDBRANCH  21  24
ENDBRANCH   1  21
TORSDOF 9
ENDMDL
MODEL 4
REMARK VINA RESULT:      -7.6      3.491      7.554
REMARK  Name = 
REMARK  12 active torsions:
REMARK  status: ('A' for Active; 'I' for Inactive)
REMARK    1  A    between atoms: C_1  and  C_2
REMARK    2  A    between atoms: C_2  and  C_22
REMARK    3  A    between atoms: C_3  and  C_4
REMARK    4  A    between atoms: C_4  and  C_5
REMARK    5  A    between atoms: C_7  and  C_8
REMARK    6  A    between atoms: C_8  and  O_10
REMARK    7  A    between atoms: C_15  and  C_16
REMARK    8  A    between atoms: C_16  and  C_17
REMARK    9  A    between atoms: C_16  and  C_18
REMARK   10  A    between atoms: C_16  and  O_19
REMARK   11  A    between atoms: C_20  and  O_21
REMARK   12  A    between atoms: C_22  and  O_23
REMARK                            x       y       z     vdW  Elec       q    Type
REMARK                         _______ _______ _______ _____ _____    ______ ____
ROOT
ATOM      1  C   UNL     1       2.678   6.510  19.212  0.00  0.00    +0.000 A 
ATOM      2  C   UNL     1       1.976   5.619  20.064  0.00  0.00    +0.000 A 
ATOM      3  C   UNL     1       2.538   4.384  20.444  0.00  0.00    +0.000 A 
ATOM      4  C   UNL     1       3.832   4.053  20.033  0.00  0.00    +0.000 A 
ATOM      5  C   UNL     1       4.521   4.939  19.213  0.00  0.00    +0.000 A 
ATOM      6  C   UNL     1       3.943   6.117  18.780  0.00  0.00    +0.000 A 
ATOM      7  O   UNL     1       4.742   6.818  17.904  0.00  0.00    +0.000 OA
ATOM      8  C   UNL     1       5.990   6.051  17.789  0.00  0.00    +0.000 C 
ATOM      9  C   UNL     1       5.893   4.803  18.692  0.00  0.00    +0.000 C 
ENDROOT
BRANCH   8  10
ATOM     10  C   UNL     1       6.300   5.694  16.305  0.00  0.00    +0.000 C 
ATOM     11  C   UNL     1       6.372   4.178  16.093  0.00  0.00    +0.000 C 
ATOM     12  C   UNL     1       5.240   6.270  15.355  0.00  0.00    +0.000 C 
BRANCH  10  13
ATOM     13  O   UNL     1       7.563   6.253  15.921  0.00  0.00    +0.000 OA
ATOM     14  H   UNL     1       8.056   6.437  16.742  0.00  0.00    +0.000 HD
ENDBRANCH  10  13
ENDBRANCH   8  10
BRANCH   3  15
ATOM     15  C   UNL     1       1.844   3.410  21.325  0.00  0.00    +0.000 C 
ATOM     16  O   UNL     1       2.356   2.946  22.333  0.00  0.00    +0.000 OA
BRANCH  15  17
ATOM     17  O   UNL     1       0.617   3.035  20.890  0.00  0.00    +0.000 OA
ATOM     18  H   UNL     1       0.149   2.398  21.462  0.00  0.00    +0.000 HD
ENDBRANCH  15  17
ENDBRANCH   3  15
BRANCH   9  19
ATOM     19  O   UNL     1       6.838   4.885  19.754  0.00  0.00    +0.000 OA
ATOM     20  H   UNL     1       6.489   5.503  20.421  0.00  0.00    +0.000 HD
ENDBRANCH   9  19
BRANCH   1  21
ATOM     21  C   UNL     1       2.071   7.844  18.842  0.00  0.00    +0.000 C 
BRANCH  21  24
ATOM     22  C   UNL     1       0.012  10.171  18.687  0.00  0.00    +0.000 C 
ATOM     23  C   UNL     1       0.551   9.576  19.961  0.00  0.00    +0.000 C 
ATOM     24  C   UNL     1       1.453   8.570  20.016  0.00  0.00    +0.000 C 
BRANCH  23  25
ATOM     25  C   UNL     1      -0.017  10.195  21.218  0.00  0.00    +0.000 C 
BRANCH  25  26
ATOM     26  O   UNL     1       0.995  10.277  22.210  0.00  0.00    +0.000 OA
ATOM     27  H   UNL     1       1.774   9.819  21.852  0.00  0.00    +0.000 HD
ENDBRANCH  25  26
ENDBRANCH  23  25
ENDBRANCH  21  24
ENDBRANCH   1  21
TORSDOF 9
ENDMDL
MODEL 5
REMARK VINA RESULT:      -7.5      3.013      3.880
REMARK  Name = 
REMARK  12 active torsions:
REMARK  status: ('A' for Active; 'I' for Inactive)
REMARK    1  A    between atoms: C_1  and  C_2
REMARK    2  A    between atoms: C_2  and  C_22
REMARK    3  A    between atoms: C_3  and  C_4
REMARK    4  A    between atoms: C_4  and  C_5
REMARK    5  A    between atoms: C_7  and  C_8
REMARK    6  A    between atoms: C_8  and  O_10
REMARK    7  A    between atoms: C_15  and  C_16
REMARK    8  A    between atoms: C_16  and  C_17
REMARK    9  A    between atoms: C_16  and  C_18
REMARK   10  A    between atoms: C_16  and  O_19
REMARK   11  A    between atoms: C_20  and  O_21
REMARK   12  A    between atoms: C_22  and  O_23
REMARK                            x       y       z     vdW  Elec       q    Type
REMARK                         _______ _______ _______ _____ _____    ______ ____
ROOT
ATOM      1  C   UNL     1       4.159   6.905  17.409  0.00  0.00    +0.000 A 
ATOM      2  C   UNL     1       3.485   8.153  17.426  0.00  0.00    +0.000 A 
ATOM      3  C   UNL     1       2.313   8.336  18.188  0.00  0.00    +0.000 A 
ATOM      4  C   UNL     1       1.838   7.296  18.991  0.00  0.00    +0.000 A 
ATOM      5  C   UNL     1       2.513   6.081  18.982  0.00  0.00    +0.000 A 
ATOM      6  C   UNL     1       3.620   5.878  18.181  0.00  0.00    +0.000 A 
ATOM      7  O   UNL     1       4.097   4.588  18.239  0.00  0.00    +0.000 OA
ATOM      8  C   UNL     1       3.252   3.885  19.214  0.00  0.00    +0.000 C 
ATOM      9  C   UNL     1       2.203   4.873  19.768  0.00  0.00    +0.000 C 
ENDROOT
BRANCH   8  10
ATOM     10  C   UNL     1       2.606   2.613  18.591  0.00  0.00    +0.000 C 
ATOM     11  C   UNL     1       3.606   1.454  18.510  0.00  0.00    +0.000 C 
ATOM     12  C   UNL     1       1.386   2.148  19.400  0.00  0.00    +0.000 C 
BRANCH  10  13
ATOM     13  O   UNL     1       2.151   2.896  17.261  0.00  0.00    +0.000 OA
ATOM     14  H   UNL     1       2.917   3.240  16.764  0.00  0.00    +0.000 HD
ENDBRANCH  10  13
ENDBRANCH   8  10
BRANCH   3  15
ATOM     15  C   UNL     1       1.563   9.616  18.235  0.00  0.00    +0.000 C 
ATOM     16  O   UNL     1       0.552   9.768  18.905  0.00  0.00    +0.000 OA
BRANCH  15  17
ATOM     17  O   UNL     1       2.059  10.588  17.431  0.00  0.00    +0.000 OA
ATOM     18  H   UNL     1       2.071  10.375  16.479  0.00  0.00    +0.000 HD
ENDBRANCH  15  17
ENDBRANCH   3  15
BRANCH   9  19
ATOM     19  O   UNL     1       2.429   5.110  21.154  0.00  0.00    +0.000 OA
ATOM     20  H   UNL     1       3.304   5.528  21.249  0.00  0.00    +0.000 HD
ENDBRANCH   9  19
BRANCH   1  21
ATOM     21  C   UNL     1       5.432   6.741  16.611  0.00  0.00    +0.000 C 
BRANCH  21  24
ATOM     22  C   UNL     1       6.731   4.018  15.852  0.00  0.00    +0.000 C 
ATOM     23  C   UNL     1       5.786   4.800  14.977  0.00  0.00    +0.000 C 
ATOM     24  C   UNL     1       5.235   5.988  15.314  0.00  0.00    +0.000 C 
BRANCH  23  25
ATOM     25  C   UNL     1       5.478   4.135  13.656  0.00  0.00    +0.000 C 
BRANCH  25  26
ATOM     26  O   UNL     1       6.459   3.148  13.375  0.00  0.00    +0.000 OA
ATOM     27  H   UNL     1       7.149   3.584  12.846  0.00  0.00    +0.000 HD
ENDBRANCH  25  26
ENDBRANCH  23  25
ENDBRANCH  21  24
ENDBRANCH   1  21
TORSDOF 9
ENDMDL
MODEL 6
REMARK VINA RESULT:      -7.5      1.025      1.025
REMARK  Name = 
REMARK  12 active torsions:
REMARK  status: ('A' for Active; 'I' for Inactive)
REMARK    1  A    between atoms: C_1  and  C_2
REMARK    2  A    between atoms: C_2  and  C_22
REMARK    3  A    between atoms: C_3  and  C_4
REMARK    4  A    between atoms: C_4  and  C_5
REMARK    5  A    between atoms: C_7  and  C_8
REMARK    6  A    between atoms: C_8  and  O_10
REMARK    7  A    between atoms: C_15  and  C_16
REMARK    8  A    between atoms: C_16  and  C_17
REMARK    9  A    between atoms: C_16  and  C_18
REMARK   10  A    between atoms: C_16  and  O_19
REMARK   11  A    between atoms: C_20  and  O_21
REMARK   12  A    between atoms: C_22  and  O_23
REMARK                            x       y       z     vdW  Elec       q    Type
REMARK                         _______ _______ _______ _____ _____    ______ ____
ROOT
ATOM      1  C   UNL     1       5.261   4.491  16.195  0.00  0.00    +0.000 A 
ATOM      2  C   UNL     1       6.296   5.428  16.444  0.00  0.00    +0.000 A 
ATOM      3  C   UNL     1       6.559   5.889  17.751  0.00  0.00    +0.000 A 
ATOM      4  C   UNL     1       5.835   5.373  18.828  0.00  0.00    +0.000 A 
ATOM      5  C   UNL     1       4.833   4.442  18.577  0.00  0.00    +0.000 A 
ATOM      6  C   UNL     1       4.526   4.043  17.291  0.00  0.00    +0.000 A 
ATOM      7  O   UNL     1       3.448   3.189  17.236  0.00  0.00    +0.000 OA
ATOM      8  C   UNL     1       3.036   2.962  18.627  0.00  0.00    +0.000 C 
ATOM      9  C   UNL     1       3.975   3.756  19.560  0.00  0.00    +0.000 C 
ENDROOT
BRANCH   8  10
ATOM     10  C   UNL     1       1.536   3.322  18.840  0.00  0.00    +0.000 C 
ATOM     11  C   UNL     1       0.673   2.067  19.010  0.00  0.00    +0.000 C 
ATOM     12  C   UNL     1       1.343   4.217  20.073  0.00  0.00    +0.000 C 
BRANCH  10  13
ATOM     13  O   UNL     1       1.041   4.047  17.707  0.00  0.00    +0.000 OA
ATOM     14  H   UNL     1       1.292   4.982  17.833  0.00  0.00    +0.000 HD
ENDBRANCH  10  13
ENDBRANCH   8  10
BRANCH   3  15
ATOM     15  C   UNL     1       7.623   6.875  18.067  0.00  0.00    +0.000 C 
ATOM     16  O   UNL     1       7.858   7.845  17.362  0.00  0.00    +0.000 OA
BRANCH  15  17
ATOM     17  O   UNL     1       8.350   6.582  19.172  0.00  0.00    +0.000 OA
ATOM     18  H   UNL     1       8.088   7.060  19.981  0.00  0.00    +0.000 HD
ENDBRANCH  15  17
ENDBRANCH   3  15
BRANCH   9  19
ATOM     19  O   UNL     1       4.750   2.865  20.358  0.00  0.00    +0.000 OA
ATOM     20  H   UNL     1       5.620   2.760  19.934  0.00  0.00    +0.000 HD
ENDBRANCH   9  19
BRANCH   1  21
ATOM     21  C   UNL     1       5.017   3.985  14.791  0.00  0.00    +0.000 C 
BRANCH  21  24
ATOM     22  C   UNL     1       5.211   3.062  11.827  0.00  0.00    +0.000 C 
ATOM     23  C   UNL     1       6.271   3.841  12.562  0.00  0.00    +0.000 C 
ATOM     24  C   UNL     1       6.179   4.229  13.854  0.00  0.00    +0.000 C 
BRANCH  23  25
ATOM     25  C   UNL     1       7.479   4.181  11.721  0.00  0.00    +0.000 C 
BRANCH  25  26
ATOM     26  O   UNL     1       8.014   5.429  12.135  0.00  0.00    +0.000 OA
ATOM     27  H   UNL     1       8.163   5.950  11.328  0.00  0.00    +0.000 HD
ENDBRANCH  25  26
ENDBRANCH  23  25
ENDBRANCH  21  24
ENDBRANCH   1  21
TORSDOF 9
ENDMDL
MODEL 7
REMARK VINA RESULT:      -7.4      3.038      5.696
REMARK  Name = 
REMARK  12 active torsions:
REMARK  status: ('A' for Active; 'I' for Inactive)
REMARK    1  A    between atoms: C_1  and  C_2
REMARK    2  A    between atoms: C_2  and  C_22
REMARK    3  A    between atoms: C_3  and  C_4
REMARK    4  A    between atoms: C_4  and  C_5
REMARK    5  A    between atoms: C_7  and  C_8
REMARK    6  A    between atoms: C_8  and  O_10
REMARK    7  A    between atoms: C_15  and  C_16
REMARK    8  A    between atoms: C_16  and  C_17
REMARK    9  A    between atoms: C_16  and  C_18
REMARK   10  A    between atoms: C_16  and  O_19
REMARK   11  A    between atoms: C_20  and  O_21
REMARK   12  A    between atoms: C_22  and  O_23
REMARK                            x       y       z     vdW  Elec       q    Type
REMARK                         _______ _______ _______ _____ _____    ______ ____
ROOT
ATOM      1  C   UNL     1       3.696   6.313  17.286  0.00  0.00    +0.000 A 
ATOM      2  C   UNL     1       4.822   6.156  16.438  0.00  0.00    +0.000 A 
ATOM      3  C   UNL     1       5.380   4.883  16.201  0.00  0.00    +0.000 A 
ATOM      4  C   UNL     1       4.780   3.748  16.754  0.00  0.00    +0.000 A 
ATOM      5  C   UNL     1       3.667   3.909  17.570  0.00  0.00    +0.000 A 
ATOM      6  C   UNL     1       3.163   5.162  17.861  0.00  0.00    +0.000 A 
ATOM      7  O   UNL     1       2.117   5.126  18.756  0.00  0.00    +0.000 OA
ATOM      8  C   UNL     1       1.874   3.706  19.042  0.00  0.00    +0.000 C 
ATOM      9  C   UNL     1       2.871   2.856  18.225  0.00  0.00    +0.000 C 
ENDROOT
BRANCH   8  10
ATOM     10  C   UNL     1       1.950   3.415  20.570  0.00  0.00    +0.000 C 
ATOM     11  C   UNL     1       3.074   2.427  20.900  0.00  0.00    +0.000 C 
ATOM     12  C   UNL     1       2.180   4.702  21.376  0.00  0.00    +0.000 C 
BRANCH  10  13
ATOM     13  O   UNL     1       0.715   2.845  21.022  0.00  0.00    +0.000 OA
ATOM     14  H   UNL     1       0.453   3.331  21.826  0.00  0.00    +0.000 HD
ENDBRANCH  10  13
ENDBRANCH   8  10
BRANCH   3  15
ATOM     15  C   UNL     1       6.563   4.661  15.331  0.00  0.00    +0.000 C 
ATOM     16  O   UNL     1       7.518   5.423  15.306  0.00  0.00    +0.000 OA
BRANCH  15  17
ATOM     17  O   UNL     1       6.473   3.575  14.527  0.00  0.00    +0.000 OA
ATOM     18  H   UNL     1       7.283   3.035  14.463  0.00  0.00    +0.000 HD
ENDBRANCH  15  17
ENDBRANCH   3  15
BRANCH   9  19
ATOM     19  O   UNL     1       2.179   2.079  17.253  0.00  0.00    +0.000 OA
ATOM     20  H   UNL     1       1.866   2.680  16.554  0.00  0.00    +0.000 HD
ENDBRANCH   9  19
BRANCH   1  21
ATOM     21  C   UNL     1       3.094   7.684  17.501  0.00  0.00    +0.000 C 
BRANCH  21  24
ATOM     22  C   UNL     1       0.977   9.823  18.288  0.00  0.00    +0.000 C 
ATOM     23  C   UNL     1       1.533   8.774  19.215  0.00  0.00    +0.000 C 
ATOM     24  C   UNL     1       2.461   7.855  18.864  0.00  0.00    +0.000 C 
BRANCH  23  25
ATOM     25  C   UNL     1       0.953   8.815  20.609  0.00  0.00    +0.000 C 
BRANCH  25  26
ATOM     26  O   UNL     1       1.839   8.176  21.516  0.00  0.00    +0.000 OA
ATOM     27  H   UNL     1       1.461   8.293  22.404  0.00  0.00    +0.000 HD
ENDBRANCH  25  26
ENDBRANCH  23  25
ENDBRANCH  21  24
ENDBRANCH   1  21
TORSDOF 9
ENDMDL
MODEL 8
REMARK VINA RESULT:      -7.3      3.340      5.638
REMARK  Name = 
REMARK  12 active torsions:
REMARK  status: ('A' for Active; 'I' for Inactive)
REMARK    1  A    between atoms: C_1  and  C_2
REMARK    2  A    between atoms: C_2  and  C_22
REMARK    3  A    between atoms: C_3  and  C_4
REMARK    4  A    between atoms: C_4  and  C_5
REMARK    5  A    between atoms: C_7  and  C_8
REMARK    6  A    between atoms: C_8  and  O_10
REMARK    7  A    between atoms: C_15  and  C_16
REMARK    8  A    between atoms: C_16  and  C_17
REMARK    9  A    between atoms: C_16  and  C_18
REMARK   10  A    between atoms: C_16  and  O_19
REMARK   11  A    between atoms: C_20  and  O_21
REMARK   12  A    between atoms: C_22  and  O_23
REMARK                            x       y       z     vdW  Elec       q    Type
REMARK                         _______ _______ _______ _____ _____    ______ ____
ROOT
ATOM      1  C   UNL     1       4.049   6.551  17.313  0.00  0.00    +0.000 A 
ATOM      2  C   UNL     1       5.056   6.331  16.337  0.00  0.00    +0.000 A 
ATOM      3  C   UNL     1       5.430   5.024  15.963  0.00  0.00    +0.000 A 
ATOM      4  C   UNL     1       4.760   3.927  16.508  0.00  0.00    +0.000 A 
ATOM      5  C   UNL     1       3.763   4.151  17.451  0.00  0.00    +0.000 A 
ATOM      6  C   UNL     1       3.445   5.428  17.872  0.00  0.00    +0.000 A 
ATOM      7  O   UNL     1       2.499   5.444  18.873  0.00  0.00    +0.000 OA
ATOM      8  C   UNL     1       2.120   4.043  19.097  0.00  0.00    +0.000 C 
ATOM      9  C   UNL     1       2.919   3.148  18.125  0.00  0.00    +0.000 C 
ENDROOT
BRANCH   8  10
ATOM     10  C   UNL     1       2.317   3.633  20.586  0.00  0.00    +0.000 C 
ATOM     11  C   UNL     1       1.083   2.916  21.143  0.00  0.00    +0.000 C 
ATOM     12  C   UNL     1       3.535   2.713  20.759  0.00  0.00    +0.000 C 
BRANCH  10  13
ATOM     13  O   UNL     1       2.549   4.799  21.388  0.00  0.00    +0.000 OA
ATOM     14  H   UNL     1       3.014   5.446  20.825  0.00  0.00    +0.000 HD
ENDBRANCH  10  13
ENDBRANCH   8  10
BRANCH   3  15
ATOM     15  C   UNL     1       6.482   4.736  14.956  0.00  0.00    +0.000 C 
ATOM     16  O   UNL     1       7.418   5.492  14.741  0.00  0.00    +0.000 OA
BRANCH  15  17
ATOM     17  O   UNL     1       6.291   3.593  14.254  0.00  0.00    +0.000 OA
ATOM     18  H   UNL     1       6.929   2.879  14.440  0.00  0.00    +0.000 HD
ENDBRANCH  15  17
ENDBRANCH   3  15
BRANCH   9  19
ATOM     19  O   UNL     1       2.042   2.527  17.189  0.00  0.00    +0.000 OA
ATOM     20  H   UNL     1       1.497   1.881  17.671  0.00  0.00    +0.000 HD
ENDBRANCH   9  19
BRANCH   1  21
ATOM     21  C   UNL     1       3.641   7.961  17.677  0.00  0.00    +0.000 C 
BRANCH  21  24
ATOM     22  C   UNL     1       2.155  10.660  18.103  0.00  0.00    +0.000 C 
ATOM     23  C   UNL     1       1.485   9.325  17.913  0.00  0.00    +0.000 C 
ATOM     24  C   UNL     1       2.142   8.156  17.738  0.00  0.00    +0.000 C 
BRANCH  23  25
ATOM     25  C   UNL     1      -0.024   9.386  17.920  0.00  0.00    +0.000 C 
BRANCH  25  26
ATOM     26  O   UNL     1      -0.452  10.692  17.564  0.00  0.00    +0.000 OA
ATOM     27  H   UNL     1      -0.318  10.778  16.605  0.00  0.00    +0.000 HD
ENDBRANCH  25  26
ENDBRANCH  23  25
ENDBRANCH  21  24
ENDBRANCH   1  21
TORSDOF 9
ENDMDL
MODEL 9
REMARK VINA RESULT:      -7.3      3.061      5.735
REMARK  Name = 
REMARK  12 active torsions:
REMARK  status: ('A' for Active; 'I' for Inactive)
REMARK    1  A    between atoms: C_1  and  C_2
REMARK    2  A    between atoms: C_2  and  C_22
REMARK    3  A    between atoms: C_3  and  C_4
REMARK    4  A    between atoms: C_4  and  C_5
REMARK    5  A    between atoms: C_7  and  C_8
REMARK    6  A    between atoms: C_8  and  O_10
REMARK    7  A    between atoms: C_15  and  C_16
REMARK    8  A    between atoms: C_16  and  C_17
REMARK    9  A    between atoms: C_16  and  C_18
REMARK   10  A    between atoms: C_16  and  O_19
REMARK   11  A    between atoms: C_20  and  O_21
REMARK   12  A    between atoms: C_22  and  O_23
REMARK                            x       y       z     vdW  Elec       q    Type
REMARK                         _______ _______ _______ _____ _____    ______ ____
ROOT
ATOM      1  C   UNL     1       3.575   6.764  17.635  0.00  0.00    +0.000 A 
ATOM      2  C   UNL     1       4.937   6.838  17.246  0.00  0.00    +0.000 A 
ATOM      3  C   UNL     1       5.703   5.669  17.057  0.00  0.00    +0.000 A 
ATOM      4  C   UNL     1       5.101   4.416  17.191  0.00  0.00    +0.000 A 
ATOM      5  C   UNL     1       3.761   4.352  17.557  0.00  0.00    +0.000 A 
ATOM      6  C   UNL     1       3.029   5.495  17.812  0.00  0.00    +0.000 A 
ATOM      7  O   UNL     1       1.750   5.228  18.248  0.00  0.00    +0.000 OA
ATOM      8  C   UNL     1       1.610   3.766  18.228  0.00  0.00    +0.000 C 
ATOM      9  C   UNL     1       2.931   3.146  17.725  0.00  0.00    +0.000 C 
ENDROOT
BRANCH   8  10
ATOM     10  C   UNL     1       1.184   3.219  19.622  0.00  0.00    +0.000 C 
ATOM     11  C   UNL     1       2.190   2.194  20.157  0.00  0.00    +0.000 C 
ATOM     12  C   UNL     1       1.047   4.351  20.652  0.00  0.00    +0.000 C 
BRANCH  10  13
ATOM     13  O   UNL     1      -0.093   2.576  19.527  0.00  0.00    +0.000 OA
ATOM     14  H   UNL     1       0.074   1.635  19.329  0.00  0.00    +0.000 HD
ENDBRANCH  10  13
ENDBRANCH   8  10
BRANCH   3  15
ATOM     15  C   UNL     1       7.133   5.689  16.660  0.00  0.00    +0.000 C 
ATOM     16  O   UNL     1       7.714   6.711  16.325  0.00  0.00    +0.000 OA
BRANCH  15  17
ATOM     17  O   UNL     1       7.729   4.472  16.644  0.00  0.00    +0.000 OA
ATOM     18  H   UNL     1       8.536   4.410  16.100  0.00  0.00    +0.000 HD
ENDBRANCH  15  17
ENDBRANCH   3  15
BRANCH   9  19
ATOM     19  O   UNL     1       2.729   2.503  16.470  0.00  0.00    +0.000 OA
ATOM     20  H   UNL     1       1.770   2.407  16.331  0.00  0.00    +0.000 HD
ENDBRANCH   9  19
BRANCH   1  21
ATOM     21  C   UNL     1       2.763   8.029  17.801  0.00  0.00    +0.000 C 
BRANCH  21  24
ATOM     22  C   UNL     1       0.887  10.326  18.739  0.00  0.00    +0.000 C 
ATOM     23  C   UNL     1       1.292   9.142  19.578  0.00  0.00    +0.000 C 
ATOM     24  C   UNL     1       2.116   8.154  19.162  0.00  0.00    +0.000 C 
BRANCH  23  25
ATOM     25  C   UNL     1       0.681   9.129  20.960  0.00  0.00    +0.000 C 
BRANCH  25  26
ATOM     26  O   UNL     1       1.617   8.609  21.892  0.00  0.00    +0.000 OA
ATOM     27  H   UNL     1       1.104   8.290  22.653  0.00  0.00    +0.000 HD
ENDBRANCH  25  26
ENDBRANCH  23  25
ENDBRANCH  21  24
ENDBRANCH   1  21
TORSDOF 9
ENDMDL
