MODEL 1
REMARK VINA RESULT:      -6.7      0.000      0.000
REMARK  Name = 
REMARK  7 active torsions:
REMARK  status: ('A' for Active; 'I' for Inactive)
REMARK    1  A    between atoms: C_1  and  O_2
REMARK    2  A    between atoms: O_2  and  C_3
REMARK    3  A    between atoms: C_7  and  O_8
REMARK    4  A    between atoms: O_8  and  C_9
REMARK    5  A    between atoms: C_10  and  C_11
REMARK    6  A    between atoms: C_12  and  C_13
REMARK    7  A    between atoms: C_17  and  O_18
REMARK                            x       y       z     vdW  Elec       q    Type
REMARK                         _______ _______ _______ _____ _____    ______ ____
ROOT
ATOM      1  C   UNL     1       2.725   6.970  18.649  0.00  0.00    +0.000 C 
ATOM      2  C   UNL     1       2.069   8.032  18.152  0.00  0.00    +0.000 C 
ENDROOT
BRANCH   2   3
ATOM      3  C   UNL     1       1.550   9.159  18.953  0.00  0.00    +0.000 A 
ATOM      4  C   UNL     1       1.104   8.899  20.258  0.00  0.00    +0.000 A 
ATOM      5  C   UNL     1       0.608   9.933  21.061  0.00  0.00    +0.000 A 
ATOM      6 BR   UNL     1      -0.008   9.518  22.808  0.00  0.00    +0.000 Br
ATOM      7  C   UNL     1       0.558  11.243  20.577  0.00  0.00    +0.000 A 
ATOM      8  C   UNL     1       1.005  11.509  19.285  0.00  0.00    +0.000 A 
ATOM      9 BR   UNL     1       0.945  13.265  18.566  0.00  0.00    +0.000 Br
ATOM     10  C   UNL     1       1.506  10.477  18.481  0.00  0.00    +0.000 A 
BRANCH   7  11
ATOM     11  O   UNL     1       0.084  12.263  21.362  0.00  0.00    +0.000 OA
ATOM     12  H   UNL     1      -0.775  12.549  21.001  0.00  0.00    +0.000 HD
ENDBRANCH   7  11
ENDBRANCH   2   3
BRANCH   1  18
ATOM     13  C   UNL     1       2.671   4.613  17.803  0.00  0.00    +0.000 A 
ATOM     14  C   UNL     1       3.286   3.510  17.192  0.00  0.00    +0.000 A 
ATOM     15  C   UNL     1       4.535   3.634  16.600  0.00  0.00    +0.000 A 
ATOM     16  C   UNL     1       5.189   4.860  16.616  0.00  0.00    +0.000 A 
ATOM     17  C   UNL     1       4.607   5.977  17.236  0.00  0.00    +0.000 A 
ATOM     18  C   UNL     1       3.338   5.865  17.859  0.00  0.00    +0.000 A 
BRANCH  13  20
ATOM     19  C   UNL     1       1.252   3.458  19.323  0.00  0.00    +0.000 C 
ATOM     20  O   UNL     1       1.428   4.524  18.391  0.00  0.00    +0.000 OA
ENDBRANCH  13  20
BRANCH  17  21
ATOM     21  O   UNL     1       5.272   7.179  17.322  0.00  0.00    +0.000 OA
ATOM     22  C   UNL     1       6.696   7.106  17.321  0.00  0.00    +0.000 C 
ENDBRANCH  17  21
ENDBRANCH   1  18
TORSDOF 5
ENDMDL
MODEL 2
REMARK VINA RESULT:      -6.7      0.178      2.066
REMARK  Name = 
REMARK  7 active torsions:
REMARK  status: ('A' for Active; 'I' for Inactive)
REMARK    1  A    between atoms: C_1  and  O_2
REMARK    2  A    between atoms: O_2  and  C_3
REMARK    3  A    between atoms: C_7  and  O_8
REMARK    4  A    between atoms: O_8  and  C_9
REMARK    5  A    between atoms: C_10  and  C_11
REMARK    6  A    between atoms: C_12  and  C_13
REMARK    7  A    between atoms: C_17  and  O_18
REMARK                            x       y       z     vdW  Elec       q    Type
REMARK                         _______ _______ _______ _____ _____    ______ ____
ROOT
ATOM      1  C   UNL     1       2.746   6.866  18.721  0.00  0.00    +0.000 C 
ATOM      2  C   UNL     1       2.064   7.932  18.266  0.00  0.00    +0.000 C 
ENDROOT
BRANCH   2   3
ATOM      3  C   UNL     1       1.541   9.025  19.110  0.00  0.00    +0.000 A 
ATOM      4  C   UNL     1       1.507  10.322  18.576  0.00  0.00    +0.000 A 
ATOM      5  C   UNL     1       1.016  11.392  19.333  0.00  0.00    +0.000 A 
ATOM      6 BR   UNL     1       1.021  13.130  18.570  0.00  0.00    +0.000 Br
ATOM      7  C   UNL     1       0.541  11.182  20.631  0.00  0.00    +0.000 A 
ATOM      8  C   UNL     1       0.565   9.896  21.164  0.00  0.00    +0.000 A 
ATOM      9 BR   UNL     1      -0.049   9.551  22.927  0.00  0.00    +0.000 Br
ATOM     10  C   UNL     1       1.052   8.822  20.407  0.00  0.00    +0.000 A 
BRANCH   7  11
ATOM     11  O   UNL     1       0.047  12.224  21.374  0.00  0.00    +0.000 OA
ATOM     12  H   UNL     1      -0.870  12.388  21.094  0.00  0.00    +0.000 HD
ENDBRANCH   7  11
ENDBRANCH   2   3
BRANCH   1  18
ATOM     13  C   UNL     1       2.724   4.530  17.816  0.00  0.00    +0.000 A 
ATOM     14  C   UNL     1       3.348   3.458  17.162  0.00  0.00    +0.000 A 
ATOM     15  C   UNL     1       4.579   3.625  16.543  0.00  0.00    +0.000 A 
ATOM     16  C   UNL     1       5.205   4.865  16.575  0.00  0.00    +0.000 A 
ATOM     17  C   UNL     1       4.614   5.953  17.238  0.00  0.00    +0.000 A 
ATOM     18  C   UNL     1       3.363   5.796  17.888  0.00  0.00    +0.000 A 
BRANCH  13  20
ATOM     19  C   UNL     1       1.146   3.080  18.847  0.00  0.00    +0.000 C 
ATOM     20  O   UNL     1       1.498   4.398  18.432  0.00  0.00    +0.000 OA
ENDBRANCH  13  20
BRANCH  17  21
ATOM     21  O   UNL     1       5.254   7.167  17.338  0.00  0.00    +0.000 OA
ATOM     22  C   UNL     1       6.679   7.123  17.347  0.00  0.00    +0.000 C 
ENDBRANCH  17  21
ENDBRANCH   1  18
TORSDOF 5
ENDMDL
MODEL 3
REMARK VINA RESULT:      -6.5      0.242      2.816
REMARK  Name = 
REMARK  7 active torsions:
REMARK  status: ('A' for Active; 'I' for Inactive)
REMARK    1  A    between atoms: C_1  and  O_2
REMARK    2  A    between atoms: O_2  and  C_3
REMARK    3  A    between atoms: C_7  and  O_8
REMARK    4  A    between atoms: O_8  and  C_9
REMARK    5  A    between atoms: C_10  and  C_11
REMARK    6  A    between atoms: C_12  and  C_13
REMARK    7  A    between atoms: C_17  and  O_18
REMARK                            x       y       z     vdW  Elec       q    Type
REMARK                         _______ _______ _______ _____ _____    ______ ____
ROOT
ATOM      1  C   UNL     1       2.902   6.952  18.739  0.00  0.00    +0.000 C 
ATOM      2  C   UNL     1       2.082   7.893  18.240  0.00  0.00    +0.000 C 
ENDROOT
BRANCH   2   3
ATOM      3  C   UNL     1       1.599   9.075  18.982  0.00  0.00    +0.000 A 
ATOM      4  C   UNL     1       1.074   8.885  20.269  0.00  0.00    +0.000 A 
ATOM      5  C   UNL     1       0.607   9.973  21.016  0.00  0.00    +0.000 A 
ATOM      6 BR   UNL     1      -0.119   9.653  22.741  0.00  0.00    +0.000 Br
ATOM      7  C   UNL     1       0.665  11.268  20.494  0.00  0.00    +0.000 A 
ATOM      8  C   UNL     1       1.191  11.464  19.219  0.00  0.00    +0.000 A 
ATOM      9 BR   UNL     1       1.280  13.197  18.448  0.00  0.00    +0.000 Br
ATOM     10  C   UNL     1       1.664  10.378  18.471  0.00  0.00    +0.000 A 
BRANCH   7  11
ATOM     11  O   UNL     1       0.221  12.340  21.224  0.00  0.00    +0.000 OA
ATOM     12  H   UNL     1       0.637  12.301  22.103  0.00  0.00    +0.000 HD
ENDBRANCH   7  11
ENDBRANCH   2   3
BRANCH   1  18
ATOM     13  C   UNL     1       4.689   5.985  17.273  0.00  0.00    +0.000 A 
ATOM     14  C   UNL     1       5.183   4.969  16.442  0.00  0.00    +0.000 A 
ATOM     15  C   UNL     1       4.519   3.755  16.336  0.00  0.00    +0.000 A 
ATOM     16  C   UNL     1       3.349   3.543  17.056  0.00  0.00    +0.000 A 
ATOM     17  C   UNL     1       2.820   4.547  17.882  0.00  0.00    +0.000 A 
ATOM     18  C   UNL     1       3.478   5.799  17.990  0.00  0.00    +0.000 A 
BRANCH  13  20
ATOM     19  C   UNL     1       6.755   7.160  17.359  0.00  0.00    +0.000 C 
ATOM     20  O   UNL     1       5.330   7.198  17.406  0.00  0.00    +0.000 OA
ENDBRANCH  13  20
BRANCH  17  21
ATOM     21  O   UNL     1       1.626   4.377  18.545  0.00  0.00    +0.000 OA
ATOM     22  C   UNL     1       1.217   3.028  18.758  0.00  0.00    +0.000 C 
ENDBRANCH  17  21
ENDBRANCH   1  18
TORSDOF 5
ENDMDL
MODEL 4
REMARK VINA RESULT:      -6.4      0.273      3.484
REMARK  Name = 
REMARK  7 active torsions:
REMARK  status: ('A' for Active; 'I' for Inactive)
REMARK    1  A    between atoms: C_1  and  O_2
REMARK    2  A    between atoms: O_2  and  C_3
REMARK    3  A    between atoms: C_7  and  O_8
REMARK    4  A    between atoms: O_8  and  C_9
REMARK    5  A    between atoms: C_10  and  C_11
REMARK    6  A    between atoms: C_12  and  C_13
REMARK    7  A    between atoms: C_17  and  O_18
REMARK                            x       y       z     vdW  Elec       q    Type
REMARK                         _______ _______ _______ _____ _____    ______ ____
ROOT
ATOM      1  C   UNL     1       2.775   6.892  18.794  0.00  0.00    +0.000 C 
ATOM      2  C   UNL     1       2.080   7.925  18.285  0.00  0.00    +0.000 C 
ENDROOT
BRANCH   2   3
ATOM      3  C   UNL     1       1.582   9.077  19.064  0.00  0.00    +0.000 A 
ATOM      4  C   UNL     1       1.683  10.357  18.499  0.00  0.00    +0.000 A 
ATOM      5  C   UNL     1       1.222  11.481  19.194  0.00  0.00    +0.000 A 
ATOM      6 BR   UNL     1       1.410  13.192  18.393  0.00  0.00    +0.000 Br
ATOM      7  C   UNL     1       0.644  11.343  20.460  0.00  0.00    +0.000 A 
ATOM      8  C   UNL     1       0.535  10.075  21.023  0.00  0.00    +0.000 A 
ATOM      9 BR   UNL     1      -0.223   9.825  22.746  0.00  0.00    +0.000 Br
ATOM     10  C   UNL     1       0.992   8.947  20.328  0.00  0.00    +0.000 A 
BRANCH   7  11
ATOM     11  O   UNL     1       0.179  12.438  21.142  0.00  0.00    +0.000 OA
ATOM     12  H   UNL     1       0.524  13.237  20.705  0.00  0.00    +0.000 HD
ENDBRANCH   7  11
ENDBRANCH   2   3
BRANCH   1  18
ATOM     13  C   UNL     1       4.578   5.980  17.314  0.00  0.00    +0.000 A 
ATOM     14  C   UNL     1       5.087   4.989  16.463  0.00  0.00    +0.000 A 
ATOM     15  C   UNL     1       4.438   3.770  16.327  0.00  0.00    +0.000 A 
ATOM     16  C   UNL     1       3.268   3.528  17.036  0.00  0.00    +0.000 A 
ATOM     17  C   UNL     1       2.724   4.507  17.882  0.00  0.00    +0.000 A 
ATOM     18  C   UNL     1       3.366   5.764  18.022  0.00  0.00    +0.000 A 
BRANCH  13  20
ATOM     19  C   UNL     1       6.624   7.193  17.335  0.00  0.00    +0.000 C 
ATOM     20  O   UNL     1       5.205   7.197  17.477  0.00  0.00    +0.000 OA
ENDBRANCH  13  20
BRANCH  17  21
ATOM     21  O   UNL     1       1.529   4.308  18.537  0.00  0.00    +0.000 OA
ATOM     22  C   UNL     1       1.213   2.957  18.861  0.00  0.00    +0.000 C 
ENDBRANCH  17  21
ENDBRANCH   1  18
TORSDOF 5
ENDMDL
MODEL 5
REMARK VINA RESULT:      -6.3      3.300      7.522
REMARK  Name = 
REMARK  7 active torsions:
REMARK  status: ('A' for Active; 'I' for Inactive)
REMARK    1  A    between atoms: C_1  and  O_2
REMARK    2  A    between atoms: O_2  and  C_3
REMARK    3  A    between atoms: C_7  and  O_8
REMARK    4  A    between atoms: O_8  and  C_9
REMARK    5  A    between atoms: C_10  and  C_11
REMARK    6  A    between atoms: C_12  and  C_13
REMARK    7  A    between atoms: C_17  and  O_18
REMARK                            x       y       z     vdW  Elec       q    Type
REMARK                         _______ _______ _______ _____ _____    ______ ____
ROOT
ATOM      1  C   UNL     1       0.848   8.519  20.129  0.00  0.00    +0.000 C 
ATOM      2  C   UNL     1       2.011   8.108  19.594  0.00  0.00    +0.000 C 
ENDROOT
BRANCH   2   3
ATOM      3  C   UNL     1       2.433   6.699  19.464  0.00  0.00    +0.000 A 
ATOM      4  C   UNL     1       3.259   6.347  18.387  0.00  0.00    +0.000 A 
ATOM      5  C   UNL     1       3.691   5.026  18.221  0.00  0.00    +0.000 A 
ATOM      6 BR   UNL     1       4.784   4.601  16.729  0.00  0.00    +0.000 Br
ATOM      7  C   UNL     1       3.313   4.037  19.135  0.00  0.00    +0.000 A 
ATOM      8  C   UNL     1       2.498   4.382  20.210  0.00  0.00    +0.000 A 
ATOM      9 BR   UNL     1       1.935   3.081  21.474  0.00  0.00    +0.000 Br
ATOM     10  C   UNL     1       2.068   5.704  20.381  0.00  0.00    +0.000 A 
BRANCH   7  11
ATOM     11  O   UNL     1       3.741   2.743  18.986  0.00  0.00    +0.000 OA
ATOM     12  H   UNL     1       3.212   2.179  19.578  0.00  0.00    +0.000 HD
ENDBRANCH   7  11
ENDBRANCH   2   3
BRANCH   1  18
ATOM     13  C   UNL     1       0.399  10.609  21.435  0.00  0.00    +0.000 A 
ATOM     14  C   UNL     1      -0.187  11.877  21.565  0.00  0.00    +0.000 A 
ATOM     15  C   UNL     1      -0.782  12.497  20.476  0.00  0.00    +0.000 A 
ATOM     16  C   UNL     1      -0.805  11.856  19.243  0.00  0.00    +0.000 A 
ATOM     17  C   UNL     1      -0.243  10.579  19.086  0.00  0.00    +0.000 A 
ATOM     18  C   UNL     1       0.356   9.924  20.192  0.00  0.00    +0.000 A 
BRANCH  13  20
ATOM     19  C   UNL     1       0.134   9.492  23.518  0.00  0.00    +0.000 C 
ATOM     20  O   UNL     1       1.005   9.971  22.496  0.00  0.00    +0.000 OA
ENDBRANCH  13  20
BRANCH  17  21
ATOM     21  O   UNL     1      -0.320   9.902  17.890  0.00  0.00    +0.000 OA
ATOM     22  C   UNL     1      -1.593   9.912  17.248  0.00  0.00    +0.000 C 
ENDBRANCH  17  21
ENDBRANCH   1  18
TORSDOF 5
ENDMDL
MODEL 6
REMARK VINA RESULT:      -6.3      1.031      2.962
REMARK  Name = 
REMARK  7 active torsions:
REMARK  status: ('A' for Active; 'I' for Inactive)
REMARK    1  A    between atoms: C_1  and  O_2
REMARK    2  A    between atoms: O_2  and  C_3
REMARK    3  A    between atoms: C_7  and  O_8
REMARK    4  A    between atoms: O_8  and  C_9
REMARK    5  A    between atoms: C_10  and  C_11
REMARK    6  A    between atoms: C_12  and  C_13
REMARK    7  A    between atoms: C_17  and  O_18
REMARK                            x       y       z     vdW  Elec       q    Type
REMARK                         _______ _______ _______ _____ _____    ______ ____
ROOT
ATOM      1  C   UNL     1       3.791   7.063  18.145  0.00  0.00    +0.000 C 
ATOM      2  C   UNL     1       2.717   7.757  17.731  0.00  0.00    +0.000 C 
ENDROOT
BRANCH   2   3
ATOM      3  C   UNL     1       2.080   8.859  18.481  0.00  0.00    +0.000 A 
ATOM      4  C   UNL     1       1.390   8.550  19.662  0.00  0.00    +0.000 A 
ATOM      5  C   UNL     1       0.773   9.557  20.412  0.00  0.00    +0.000 A 
ATOM      6 BR   UNL     1      -0.171   9.077  21.987  0.00  0.00    +0.000 Br
ATOM      7  C   UNL     1       0.843  10.891  19.999  0.00  0.00    +0.000 A 
ATOM      8  C   UNL     1       1.532  11.205  18.831  0.00  0.00    +0.000 A 
ATOM      9 BR   UNL     1       1.647  12.996  18.209  0.00  0.00    +0.000 Br
ATOM     10  C   UNL     1       2.155  10.200  18.081  0.00  0.00    +0.000 A 
BRANCH   7  11
ATOM     11  O   UNL     1       0.251  11.886  20.735  0.00  0.00    +0.000 OA
ATOM     12  H   UNL     1      -0.709  11.849  20.577  0.00  0.00    +0.000 HD
ENDBRANCH   7  11
ENDBRANCH   2   3
BRANCH   1  18
ATOM     13  C   UNL     1       5.738   6.341  16.744  0.00  0.00    +0.000 A 
ATOM     14  C   UNL     1       6.367   5.421  15.893  0.00  0.00    +0.000 A 
ATOM     15  C   UNL     1       5.822   4.162  15.682  0.00  0.00    +0.000 A 
ATOM     16  C   UNL     1       4.637   3.809  16.315  0.00  0.00    +0.000 A 
ATOM     17  C   UNL     1       3.974   4.714  17.159  0.00  0.00    +0.000 A 
ATOM     18  C   UNL     1       4.509   6.010  17.374  0.00  0.00    +0.000 A 
BRANCH  13  20
ATOM     19  C   UNL     1       7.578   7.631  17.522  0.00  0.00    +0.000 C 
ATOM     20  O   UNL     1       6.260   7.594  16.980  0.00  0.00    +0.000 OA
ENDBRANCH  13  20
BRANCH  17  21
ATOM     21  O   UNL     1       2.763   4.404  17.737  0.00  0.00    +0.000 OA
ATOM     22  C   UNL     1       2.807   3.465  18.809  0.00  0.00    +0.000 C 
ENDBRANCH  17  21
ENDBRANCH   1  18
TORSDOF 5
ENDMDL
MODEL 7
REMARK VINA RESULT:      -6.3      3.172      7.287
REMARK  Name = 
REMARK  7 active torsions:
REMARK  status: ('A' for Active; 'I' for Inactive)
REMARK    1  A    between atoms: C_1  and  O_2
REMARK    2  A    between atoms: O_2  and  C_3
REMARK    3  A    between atoms: C_7  and  O_8
REMARK    4  A    between atoms: O_8  and  C_9
REMARK    5  A    between atoms: C_10  and  C_11
REMARK    6  A    between atoms: C_12  and  C_13
REMARK    7  A    between atoms: C_17  and  O_18
REMARK                            x       y       z     vdW  Elec       q    Type
REMARK                         _______ _______ _______ _____ _____    ______ ____
ROOT
ATOM      1  C   UNL     1       0.631   8.946  19.778  0.00  0.00    +0.000 C 
ATOM      2  C   UNL     1       1.747   8.836  19.037  0.00  0.00    +0.000 C 
ENDROOT
BRANCH   2   3
ATOM      3  C   UNL     1       2.476   7.576  18.786  0.00  0.00    +0.000 A 
ATOM      4  C   UNL     1       2.231   6.484  19.631  0.00  0.00    +0.000 A 
ATOM      5  C   UNL     1       2.892   5.267  19.434  0.00  0.00    +0.000 A 
ATOM      6 BR   UNL     1       2.542   3.832  20.627  0.00  0.00    +0.000 Br
ATOM      7  C   UNL     1       3.803   5.118  18.384  0.00  0.00    +0.000 A 
ATOM      8  C   UNL     1       4.046   6.196  17.537  0.00  0.00    +0.000 A 
ATOM      9 BR   UNL     1       5.285   6.061  16.104  0.00  0.00    +0.000 Br
ATOM     10  C   UNL     1       3.382   7.414  17.729  0.00  0.00    +0.000 A 
BRANCH   7  11
ATOM     11  O   UNL     1       4.447   3.925  18.177  0.00  0.00    +0.000 OA
ATOM     12  H   UNL     1       5.172   4.078  17.546  0.00  0.00    +0.000 HD
ENDBRANCH   7  11
ENDBRANCH   2   3
BRANCH   1  18
ATOM     13  C   UNL     1      -0.181  10.800  21.253  0.00  0.00    +0.000 A 
ATOM     14  C   UNL     1      -1.039  11.879  21.515  0.00  0.00    +0.000 A 
ATOM     15  C   UNL     1      -1.867  12.383  20.522  0.00  0.00    +0.000 A 
ATOM     16  C   UNL     1      -1.853  11.812  19.256  0.00  0.00    +0.000 A 
ATOM     17  C   UNL     1      -1.018  10.720  18.968  0.00  0.00    +0.000 A 
ATOM     18  C   UNL     1      -0.177  10.182  19.975  0.00  0.00    +0.000 A 
BRANCH  13  20
ATOM     19  C   UNL     1       0.030   9.567  23.276  0.00  0.00    +0.000 C 
ATOM     20  O   UNL     1       0.659  10.284  22.216  0.00  0.00    +0.000 OA
ENDBRANCH  13  20
BRANCH  17  21
ATOM     21  O   UNL     1      -1.044  10.099  17.739  0.00  0.00    +0.000 OA
ATOM     22  C   UNL     1      -2.315  10.041  17.097  0.00  0.00    +0.000 C 
ENDBRANCH  17  21
ENDBRANCH   1  18
TORSDOF 5
ENDMDL
MODEL 8
REMARK VINA RESULT:      -6.3      1.446      1.698
REMARK  Name = 
REMARK  7 active torsions:
REMARK  status: ('A' for Active; 'I' for Inactive)
REMARK    1  A    between atoms: C_1  and  O_2
REMARK    2  A    between atoms: O_2  and  C_3
REMARK    3  A    between atoms: C_7  and  O_8
REMARK    4  A    between atoms: O_8  and  C_9
REMARK    5  A    between atoms: C_10  and  C_11
REMARK    6  A    between atoms: C_12  and  C_13
REMARK    7  A    between atoms: C_17  and  O_18
REMARK                            x       y       z     vdW  Elec       q    Type
REMARK                         _______ _______ _______ _____ _____    ______ ____
ROOT
ATOM      1  C   UNL     1       3.601   6.779  18.060  0.00  0.00    +0.000 C 
ATOM      2  C   UNL     1       2.730   7.668  17.550  0.00  0.00    +0.000 C 
ENDROOT
BRANCH   2   3
ATOM      3  C   UNL     1       1.801   8.495  18.346  0.00  0.00    +0.000 A 
ATOM      4  C   UNL     1       1.887   8.436  19.745  0.00  0.00    +0.000 A 
ATOM      5  C   UNL     1       1.033   9.203  20.545  0.00  0.00    +0.000 A 
ATOM      6 BR   UNL     1       1.176   9.061  22.433  0.00  0.00    +0.000 Br
ATOM      7  C   UNL     1       0.086  10.049  19.961  0.00  0.00    +0.000 A 
ATOM      8  C   UNL     1      -0.000  10.117  18.573  0.00  0.00    +0.000 A 
ATOM      9 BR   UNL     1      -1.278  11.234  17.721  0.00  0.00    +0.000 Br
ATOM     10  C   UNL     1       0.857   9.354  17.769  0.00  0.00    +0.000 A 
BRANCH   7  11
ATOM     11  O   UNL     1      -0.747  10.813  20.738  0.00  0.00    +0.000 OA
ATOM     12  H   UNL     1      -0.557  10.614  21.672  0.00  0.00    +0.000 HD
ENDBRANCH   7  11
ENDBRANCH   2   3
BRANCH   1  18
ATOM     13  C   UNL     1       4.299   4.667  16.908  0.00  0.00    +0.000 A 
ATOM     14  C   UNL     1       5.275   3.854  16.313  0.00  0.00    +0.000 A 
ATOM     15  C   UNL     1       6.546   4.347  16.055  0.00  0.00    +0.000 A 
ATOM     16  C   UNL     1       6.860   5.657  16.394  0.00  0.00    +0.000 A 
ATOM     17  C   UNL     1       5.910   6.489  17.008  0.00  0.00    +0.000 A 
ATOM     18  C   UNL     1       4.611   5.997  17.292  0.00  0.00    +0.000 A 
BRANCH  13  20
ATOM     19  C   UNL     1       2.937   2.952  17.836  0.00  0.00    +0.000 C 
ATOM     20  O   UNL     1       3.025   4.208  17.168  0.00  0.00    +0.000 OA
ENDBRANCH  13  20
BRANCH  17  21
ATOM     21  O   UNL     1       6.228   7.766  17.413  0.00  0.00    +0.000 OA
ATOM     22  C   UNL     1       7.616   8.036  17.595  0.00  0.00    +0.000 C 
ENDBRANCH  17  21
ENDBRANCH   1  18
TORSDOF 5
ENDMDL
MODEL 9
REMARK VINA RESULT:      -6.3      3.165      7.541
REMARK  Name = 
REMARK  7 active torsions:
REMARK  status: ('A' for Active; 'I' for Inactive)
REMARK    1  A    between atoms: C_1  and  O_2
REMARK    2  A    between atoms: O_2  and  C_3
REMARK    3  A    between atoms: C_7  and  O_8
REMARK    4  A    between atoms: O_8  and  C_9
REMARK    5  A    between atoms: C_10  and  C_11
REMARK    6  A    between atoms: C_12  and  C_13
REMARK    7  A    between atoms: C_17  and  O_18
REMARK                            x       y       z     vdW  Elec       q    Type
REMARK                         _______ _______ _______ _____ _____    ______ ____
ROOT
ATOM      1  C   UNL     1       0.740   8.961  19.866  0.00  0.00    +0.000 C 
ATOM      2  C   UNL     1       1.706   8.759  18.953  0.00  0.00    +0.000 C 
ENDROOT
BRANCH   2   3
ATOM      3  C   UNL     1       2.441   7.493  18.764  0.00  0.00    +0.000 A 
ATOM      4  C   UNL     1       3.371   7.412  17.717  0.00  0.00    +0.000 A 
ATOM      5  C   UNL     1       4.097   6.236  17.497  0.00  0.00    +0.000 A 
ATOM      6 BR   UNL     1       5.321   6.174  16.047  0.00  0.00    +0.000 Br
ATOM      7  C   UNL     1       3.913   5.125  18.325  0.00  0.00    +0.000 A 
ATOM      8  C   UNL     1       2.997   5.201  19.371  0.00  0.00    +0.000 A 
ATOM      9 BR   UNL     1       2.689   3.720  20.519  0.00  0.00    +0.000 Br
ATOM     10  C   UNL     1       2.272   6.378  19.596  0.00  0.00    +0.000 A 
BRANCH   7  11
ATOM     11  O   UNL     1       4.629   3.972  18.124  0.00  0.00    +0.000 OA
ATOM     12  H   UNL     1       5.363   4.174  17.517  0.00  0.00    +0.000 HD
ENDBRANCH   7  11
ENDBRANCH   2   3
BRANCH   1  18
ATOM     13  C   UNL     1      -0.133  10.825  21.293  0.00  0.00    +0.000 A 
ATOM     14  C   UNL     1      -1.005  11.902  21.514  0.00  0.00    +0.000 A 
ATOM     15  C   UNL     1      -1.799  12.392  20.487  0.00  0.00    +0.000 A 
ATOM     16  C   UNL     1      -1.737  11.809  19.227  0.00  0.00    +0.000 A 
ATOM     17  C   UNL     1      -0.887  10.718  18.980  0.00  0.00    +0.000 A 
ATOM     18  C   UNL     1      -0.080  10.195  20.022  0.00  0.00    +0.000 A 
BRANCH  13  20
ATOM     19  C   UNL     1       0.017   9.571  23.308  0.00  0.00    +0.000 C 
ATOM     20  O   UNL     1       0.675  10.322  22.290  0.00  0.00    +0.000 OA
ENDBRANCH  13  20
BRANCH  17  21
ATOM     21  O   UNL     1      -0.867  10.086  17.757  0.00  0.00    +0.000 OA
ATOM     22  C   UNL     1      -2.129   9.930  17.114  0.00  0.00    +0.000 C 
ENDBRANCH  17  21
ENDBRANCH   1  18
TORSDOF 5
ENDMDL
