MODEL 1
REMARK VINA RESULT:      -8.0      0.000      0.000
REMARK  Name = 
REMARK  6 active torsions:
REMARK  status: ('A' for Active; 'I' for Inactive)
REMARK    1  A    between atoms: C_2  and  C_3
REMARK    2  A    between atoms: C_3  and  N_4
REMARK    3  A    between atoms: N_18  and  N_19
REMARK    4  A    between atoms: N_19  and  C_20
REMARK    5  A    between atoms: C_20  and  N_22
REMARK    6  A    between atoms: N_22  and  C_23
REMARK                            x       y       z     vdW  Elec       q    Type
REMARK                         _______ _______ _______ _____ _____    ______ ____
ROOT
ATOM      1  O   UNL     1       1.816   9.098  17.456  0.00  0.00    +0.000 OA
ATOM      2  C   UNL     1       1.685   8.948  18.680  0.00  0.00    +0.000 C 
ATOM      3  N   UNL     1       2.125   7.807  19.357  0.00  0.00    +0.000 N 
ATOM      4  H   UNL     1       2.406   7.936  20.327  0.00  0.00    +0.000 HD
ENDROOT
BRANCH   3   5
ATOM      5  N   UNL     1       2.873   6.839  18.679  0.00  0.00    +0.000 N 
ATOM      6  H   UNL     1       2.947   6.907  17.662  0.00  0.00    +0.000 HD
BRANCH   5   7
ATOM      7  C   UNL     1       3.230   5.669  19.318  0.00  0.00    +0.000 C 
ATOM      8  S   UNL     1       2.141   4.647  20.067  0.00  0.00    +0.000 S 
BRANCH   7   9
ATOM      9  N   UNL     1       4.574   5.381  19.273  0.00  0.00    +0.000 N 
ATOM     10  H   UNL     1       5.026   5.219  20.166  0.00  0.00    +0.000 HD
BRANCH   9  11
ATOM     11  C   UNL     1       5.299   5.148  18.085  0.00  0.00    +0.000 A 
ATOM     12  C   UNL     1       6.414   5.927  17.737  0.00  0.00    +0.000 A 
ATOM     13  C   UNL     1       6.985   5.822  16.471  0.00  0.00    +0.000 A 
ATOM     14  C   UNL     1       6.473   4.901  15.565  0.00  0.00    +0.000 A 
ATOM     15 CL   UNL     1       7.098   4.840  13.965  0.00  0.00    +0.000 Cl
ATOM     16  C   UNL     1       5.441   4.041  15.944  0.00  0.00    +0.000 A 
ATOM     17  C   UNL     1       4.871   4.145  17.218  0.00  0.00    +0.000 A 
ENDBRANCH   9  11
ENDBRANCH   7   9
ENDBRANCH   5   7
ENDBRANCH   3   5
BRANCH   2  18
ATOM     18  C   UNL     1       0.926   9.936  19.583  0.00  0.00    +0.000 C 
BRANCH  18  19
ATOM     19  N   UNL     1       0.286  11.046  18.860  0.00  0.00    +0.000 N 
ATOM     20  C   UNL     1       0.948  12.298  18.872  0.00  0.00    +0.000 A 
ATOM     21  C   UNL     1       2.278  12.400  18.424  0.00  0.00    +0.000 A 
ATOM     22  C   UNL     1       2.892  13.647  18.259  0.00  0.00    +0.000 A 
ATOM     23  C   UNL     1       2.195  14.812  18.564  0.00  0.00    +0.000 A 
ATOM     24  C   UNL     1       0.884  14.735  19.030  0.00  0.00    +0.000 A 
ATOM     25  C   UNL     1       0.256  13.491  19.163  0.00  0.00    +0.000 A 
ATOM     26  S   UNL     1      -1.455  13.453  19.689  0.00  0.00    +0.000 S 
ATOM     27  C   UNL     1      -1.993  11.974  18.839  0.00  0.00    +0.000 A 
ATOM     28  C   UNL     1      -3.344  11.867  18.487  0.00  0.00    +0.000 A 
ATOM     29  C   UNL     1      -3.802  10.752  17.789  0.00  0.00    +0.000 A 
ATOM     30  C   UNL     1      -2.910   9.743  17.438  0.00  0.00    +0.000 A 
ATOM     31  C   UNL     1      -1.568   9.830  17.814  0.00  0.00    +0.000 A 
ATOM     32  C   UNL     1      -1.090  10.935  18.539  0.00  0.00    +0.000 A 
ENDBRANCH  18  19
ENDBRANCH   2  18
TORSDOF 6
ENDMDL
MODEL 2
REMARK VINA RESULT:      -8.0      6.127      8.517
REMARK  Name = 
REMARK  6 active torsions:
REMARK  status: ('A' for Active; 'I' for Inactive)
REMARK    1  A    between atoms: C_2  and  C_3
REMARK    2  A    between atoms: C_3  and  N_4
REMARK    3  A    between atoms: N_18  and  N_19
REMARK    4  A    between atoms: N_19  and  C_20
REMARK    5  A    between atoms: C_20  and  N_22
REMARK    6  A    between atoms: N_22  and  C_23
REMARK                            x       y       z     vdW  Elec       q    Type
REMARK                         _______ _______ _______ _____ _____    ______ ____
ROOT
ATOM      1  O   UNL     1       8.162  10.876  17.788  0.00  0.00    +0.000 OA
ATOM      2  C   UNL     1       8.745  10.064  18.522  0.00  0.00    +0.000 C 
ATOM      3  N   UNL     1       8.581   8.681  18.406  0.00  0.00    +0.000 N 
ATOM      4  H   UNL     1       9.375   8.107  18.681  0.00  0.00    +0.000 HD
ENDROOT
BRANCH   3   5
ATOM      5  N   UNL     1       7.848   8.153  17.338  0.00  0.00    +0.000 N 
ATOM      6  H   UNL     1       7.732   8.726  16.499  0.00  0.00    +0.000 HD
BRANCH   5   7
ATOM      7  C   UNL     1       7.053   7.042  17.527  0.00  0.00    +0.000 C 
ATOM      8  S   UNL     1       7.419   5.804  18.589  0.00  0.00    +0.000 S 
BRANCH   7   9
ATOM      9  N   UNL     1       5.897   7.032  16.783  0.00  0.00    +0.000 N 
ATOM     10  H   UNL     1       5.876   7.651  15.981  0.00  0.00    +0.000 HD
BRANCH   9  11
ATOM     11  C   UNL     1       4.833   6.124  16.975  0.00  0.00    +0.000 A 
ATOM     12  C   UNL     1       3.687   6.474  17.706  0.00  0.00    +0.000 A 
ATOM     13  C   UNL     1       2.749   5.507  18.062  0.00  0.00    +0.000 A 
ATOM     14  C   UNL     1       2.932   4.194  17.645  0.00  0.00    +0.000 A 
ATOM     15 CL   UNL     1       1.841   2.973  18.169  0.00  0.00    +0.000 Cl
ATOM     16  C   UNL     1       4.007   3.861  16.819  0.00  0.00    +0.000 A 
ATOM     17  C   UNL     1       4.946   4.834  16.459  0.00  0.00    +0.000 A 
ENDBRANCH   9  11
ENDBRANCH   7   9
ENDBRANCH   5   7
ENDBRANCH   3   5
BRANCH   2  18
ATOM     18  C   UNL     1       9.622  10.475  19.718  0.00  0.00    +0.000 C 
BRANCH  18  19
ATOM     19  N   UNL     1       9.801  11.927  19.866  0.00  0.00    +0.000 N 
ATOM     20  C   UNL     1       9.017  12.583  20.846  0.00  0.00    +0.000 A 
ATOM     21  C   UNL     1       9.056  12.158  22.186  0.00  0.00    +0.000 A 
ATOM     22  C   UNL     1       8.432  12.896  23.199  0.00  0.00    +0.000 A 
ATOM     23  C   UNL     1       7.736  14.058  22.884  0.00  0.00    +0.000 A 
ATOM     24  C   UNL     1       7.666  14.489  21.560  0.00  0.00    +0.000 A 
ATOM     25  C   UNL     1       8.318  13.771  20.550  0.00  0.00    +0.000 A 
ATOM     26  S   UNL     1       8.263  14.411  18.879  0.00  0.00    +0.000 S 
ATOM     27  C   UNL     1       9.836  13.808  18.280  0.00  0.00    +0.000 A 
ATOM     28  C   UNL     1      10.473  14.521  17.258  0.00  0.00    +0.000 A 
ATOM     29  C   UNL     1      11.719  14.113  16.786  0.00  0.00    +0.000 A 
ATOM     30  C   UNL     1      12.332  12.992  17.337  0.00  0.00    +0.000 A 
ATOM     31  C   UNL     1      11.686  12.258  18.335  0.00  0.00    +0.000 A 
ATOM     32  C   UNL     1      10.420  12.639  18.809  0.00  0.00    +0.000 A 
ENDBRANCH  18  19
ENDBRANCH   2  18
TORSDOF 6
ENDMDL
MODEL 3
REMARK VINA RESULT:      -7.9      3.302      8.864
REMARK  Name = 
REMARK  6 active torsions:
REMARK  status: ('A' for Active; 'I' for Inactive)
REMARK    1  A    between atoms: C_2  and  C_3
REMARK    2  A    between atoms: C_3  and  N_4
REMARK    3  A    between atoms: N_18  and  N_19
REMARK    4  A    between atoms: N_19  and  C_20
REMARK    5  A    between atoms: C_20  and  N_22
REMARK    6  A    between atoms: N_22  and  C_23
REMARK                            x       y       z     vdW  Elec       q    Type
REMARK                         _______ _______ _______ _____ _____    ______ ____
ROOT
ATOM      1  O   UNL     1       2.162   8.184  19.748  0.00  0.00    +0.000 OA
ATOM      2  C   UNL     1       2.098   8.066  18.515  0.00  0.00    +0.000 C 
ATOM      3  N   UNL     1       2.038   9.161  17.649  0.00  0.00    +0.000 N 
ATOM      4  H   UNL     1       2.440   9.028  16.724  0.00  0.00    +0.000 HD
ENDROOT
BRANCH   3   5
ATOM      5  N   UNL     1       2.198  10.457  18.151  0.00  0.00    +0.000 N 
ATOM      6  H   UNL     1       3.139  10.766  18.405  0.00  0.00    +0.000 HD
BRANCH   5   7
ATOM      7  C   UNL     1       1.099  11.172  18.582  0.00  0.00    +0.000 C 
ATOM      8  S   UNL     1       1.033  12.841  18.625  0.00  0.00    +0.000 S 
BRANCH   7   9
ATOM      9  N   UNL     1       0.026  10.399  18.959  0.00  0.00    +0.000 N 
ATOM     10  H   UNL     1       0.205   9.707  19.678  0.00  0.00    +0.000 HD
BRANCH   9  11
ATOM     11  C   UNL     1      -1.301  10.616  18.531  0.00  0.00    +0.000 A 
ATOM     12  C   UNL     1      -1.794  10.055  17.343  0.00  0.00    +0.000 A 
ATOM     13  C   UNL     1      -3.029  10.448  16.831  0.00  0.00    +0.000 A 
ATOM     14  C   UNL     1      -3.797  11.367  17.535  0.00  0.00    +0.000 A 
ATOM     15 CL   UNL     1      -5.272  11.941  16.861  0.00  0.00    +0.000 Cl
ATOM     16  C   UNL     1      -3.367  11.841  18.776  0.00  0.00    +0.000 A 
ATOM     17  C   UNL     1      -2.128  11.443  19.290  0.00  0.00    +0.000 A 
ENDBRANCH   9  11
ENDBRANCH   7   9
ENDBRANCH   5   7
ENDBRANCH   3   5
BRANCH   2  18
ATOM     18  C   UNL     1       1.959   6.713  17.795  0.00  0.00    +0.000 C 
BRANCH  18  19
ATOM     19  N   UNL     1       2.925   5.694  18.232  0.00  0.00    +0.000 N 
ATOM     20  C   UNL     1       4.155   5.622  17.534  0.00  0.00    +0.000 A 
ATOM     21  C   UNL     1       4.976   6.759  17.425  0.00  0.00    +0.000 A 
ATOM     22  C   UNL     1       6.269   6.671  16.897  0.00  0.00    +0.000 A 
ATOM     23  C   UNL     1       6.754   5.448  16.445  0.00  0.00    +0.000 A 
ATOM     24  C   UNL     1       5.952   4.311  16.523  0.00  0.00    +0.000 A 
ATOM     25  C   UNL     1       4.670   4.390  17.082  0.00  0.00    +0.000 A 
ATOM     26  S   UNL     1       3.712   2.885  17.231  0.00  0.00    +0.000 S 
ATOM     27  C   UNL     1       2.764   3.282  18.694  0.00  0.00    +0.000 A 
ATOM     28  C   UNL     1       2.322   2.229  19.503  0.00  0.00    +0.000 A 
ATOM     29  C   UNL     1       1.615   2.491  20.675  0.00  0.00    +0.000 A 
ATOM     30  C   UNL     1       1.350   3.807  21.042  0.00  0.00    +0.000 A 
ATOM     31  C   UNL     1       1.761   4.860  20.222  0.00  0.00    +0.000 A 
ATOM     32  C   UNL     1       2.455   4.617  19.025  0.00  0.00    +0.000 A 
ENDBRANCH  18  19
ENDBRANCH   2  18
TORSDOF 6
ENDMDL
MODEL 4
REMARK VINA RESULT:      -7.9      3.550      9.142
REMARK  Name = 
REMARK  6 active torsions:
REMARK  status: ('A' for Active; 'I' for Inactive)
REMARK    1  A    between atoms: C_2  and  C_3
REMARK    2  A    between atoms: C_3  and  N_4
REMARK    3  A    between atoms: N_18  and  N_19
REMARK    4  A    between atoms: N_19  and  C_20
REMARK    5  A    between atoms: C_20  and  N_22
REMARK    6  A    between atoms: N_22  and  C_23
REMARK                            x       y       z     vdW  Elec       q    Type
REMARK                         _______ _______ _______ _____ _____    ______ ____
ROOT
ATOM      1  O   UNL     1       2.666   7.298  17.513  0.00  0.00    +0.000 OA
ATOM      2  C   UNL     1       2.575   7.501  18.733  0.00  0.00    +0.000 C 
ATOM      3  N   UNL     1       1.797   8.527  19.277  0.00  0.00    +0.000 N 
ATOM      4  H   UNL     1       1.410   8.359  20.202  0.00  0.00    +0.000 HD
ENDROOT
BRANCH   3   5
ATOM      5  N   UNL     1       0.963   9.284  18.447  0.00  0.00    +0.000 N 
ATOM      6  H   UNL     1       0.924   9.049  17.452  0.00  0.00    +0.000 HD
BRANCH   5   7
ATOM      7  C   UNL     1       0.460  10.491  18.888  0.00  0.00    +0.000 C 
ATOM      8  S   UNL     1       0.913  11.221  20.321  0.00  0.00    +0.000 S 
BRANCH   7   9
ATOM      9  N   UNL     1      -0.444  11.080  18.035  0.00  0.00    +0.000 N 
ATOM     10  H   UNL     1      -0.057  11.522  17.209  0.00  0.00    +0.000 HD
BRANCH   9  11
ATOM     11  C   UNL     1      -1.845  10.968  18.159  0.00  0.00    +0.000 A 
ATOM     12  C   UNL     1      -2.566   9.958  17.503  0.00  0.00    +0.000 A 
ATOM     13  C   UNL     1      -3.958   9.988  17.466  0.00  0.00    +0.000 A 
ATOM     14  C   UNL     1      -4.635  11.004  18.129  0.00  0.00    +0.000 A 
ATOM     15 CL   UNL     1      -6.347  11.114  17.999  0.00  0.00    +0.000 Cl
ATOM     16  C   UNL     1      -3.931  11.945  18.882  0.00  0.00    +0.000 A 
ATOM     17  C   UNL     1      -2.533  11.911  18.921  0.00  0.00    +0.000 A 
ENDBRANCH   9  11
ENDBRANCH   7   9
ENDBRANCH   5   7
ENDBRANCH   3   5
BRANCH   2  18
ATOM     18  C   UNL     1       3.390   6.732  19.788  0.00  0.00    +0.000 C 
BRANCH  18  19
ATOM     19  N   UNL     1       3.769   5.370  19.384  0.00  0.00    +0.000 N 
ATOM     20  C   UNL     1       4.989   5.215  18.680  0.00  0.00    +0.000 A 
ATOM     21  C   UNL     1       6.192   5.689  19.235  0.00  0.00    +0.000 A 
ATOM     22  C   UNL     1       7.427   5.393  18.647  0.00  0.00    +0.000 A 
ATOM     23  C   UNL     1       7.478   4.640  17.478  0.00  0.00    +0.000 A 
ATOM     24  C   UNL     1       6.298   4.178  16.898  0.00  0.00    +0.000 A 
ATOM     25  C   UNL     1       5.064   4.444  17.503  0.00  0.00    +0.000 A 
ATOM     26  S   UNL     1       3.586   3.759  16.760  0.00  0.00    +0.000 S 
ATOM     27  C   UNL     1       2.588   3.546  18.228  0.00  0.00    +0.000 A 
ATOM     28  C   UNL     1       1.613   2.542  18.227  0.00  0.00    +0.000 A 
ATOM     29  C   UNL     1       0.839   2.311  19.362  0.00  0.00    +0.000 A 
ATOM     30  C   UNL     1       1.039   3.083  20.503  0.00  0.00    +0.000 A 
ATOM     31  C   UNL     1       1.989   4.107  20.499  0.00  0.00    +0.000 A 
ATOM     32  C   UNL     1       2.764   4.371  19.358  0.00  0.00    +0.000 A 
ENDBRANCH  18  19
ENDBRANCH   2  18
TORSDOF 6
ENDMDL
MODEL 5
REMARK VINA RESULT:      -7.9      3.928      9.084
REMARK  Name = 
REMARK  6 active torsions:
REMARK  status: ('A' for Active; 'I' for Inactive)
REMARK    1  A    between atoms: C_2  and  C_3
REMARK    2  A    between atoms: C_3  and  N_4
REMARK    3  A    between atoms: N_18  and  N_19
REMARK    4  A    between atoms: N_19  and  C_20
REMARK    5  A    between atoms: C_20  and  N_22
REMARK    6  A    between atoms: N_22  and  C_23
REMARK                            x       y       z     vdW  Elec       q    Type
REMARK                         _______ _______ _______ _____ _____    ______ ____
ROOT
ATOM      1  O   UNL     1       2.168   8.158  19.720  0.00  0.00    +0.000 OA
ATOM      2  C   UNL     1       2.054   8.072  18.488  0.00  0.00    +0.000 C 
ATOM      3  N   UNL     1       1.773   9.171  17.672  0.00  0.00    +0.000 N 
ATOM      4  H   UNL     1       2.138   9.136  16.723  0.00  0.00    +0.000 HD
ENDROOT
BRANCH   3   5
ATOM      5  N   UNL     1       1.752  10.459  18.219  0.00  0.00    +0.000 N 
ATOM      6  H   UNL     1       2.622  10.997  18.227  0.00  0.00    +0.000 HD
BRANCH   5   7
ATOM      7  C   UNL     1       0.687  10.863  18.998  0.00  0.00    +0.000 C 
ATOM      8  S   UNL     1      -0.897  10.888  18.469  0.00  0.00    +0.000 S 
BRANCH   7   9
ATOM      9  N   UNL     1       1.023  11.228  20.280  0.00  0.00    +0.000 N 
ATOM     10  H   UNL     1       2.007  11.402  20.453  0.00  0.00    +0.000 HD
BRANCH   9  11
ATOM     11  C   UNL     1       0.088  11.522  21.296  0.00  0.00    +0.000 A 
ATOM     12  C   UNL     1      -0.290  10.563  22.250  0.00  0.00    +0.000 A 
ATOM     13  C   UNL     1      -1.361  10.801  23.108  0.00  0.00    +0.000 A 
ATOM     14  C   UNL     1      -2.026  12.019  23.048  0.00  0.00    +0.000 A 
ATOM     15 CL   UNL     1      -3.417  12.281  24.025  0.00  0.00    +0.000 Cl
ATOM     16  C   UNL     1      -1.582  13.022  22.184  0.00  0.00    +0.000 A 
ATOM     17  C   UNL     1      -0.504  12.783  21.325  0.00  0.00    +0.000 A 
ENDBRANCH   9  11
ENDBRANCH   7   9
ENDBRANCH   5   7
ENDBRANCH   3   5
BRANCH   2  18
ATOM     18  C   UNL     1       2.092   6.739  17.721  0.00  0.00    +0.000 C 
BRANCH  18  19
ATOM     19  N   UNL     1       3.054   5.762  18.253  0.00  0.00    +0.000 N 
ATOM     20  C   UNL     1       4.342   5.729  17.665  0.00  0.00    +0.000 A 
ATOM     21  C   UNL     1       5.126   6.896  17.611  0.00  0.00    +0.000 A 
ATOM     22  C   UNL     1       6.462   6.851  17.198  0.00  0.00    +0.000 A 
ATOM     23  C   UNL     1       7.030   5.643  16.807  0.00  0.00    +0.000 A 
ATOM     24  C   UNL     1       6.266   4.477  16.831  0.00  0.00    +0.000 A 
ATOM     25  C   UNL     1       4.939   4.513  17.276  0.00  0.00    +0.000 A 
ATOM     26  S   UNL     1       4.028   2.974  17.363  0.00  0.00    +0.000 S 
ATOM     27  C   UNL     1       2.943   3.351  18.734  0.00  0.00    +0.000 A 
ATOM     28  C   UNL     1       2.471   2.291  19.516  0.00  0.00    +0.000 A 
ATOM     29  C   UNL     1       1.656   2.538  20.619  0.00  0.00    +0.000 A 
ATOM     30  C   UNL     1       1.312   3.847  20.943  0.00  0.00    +0.000 A 
ATOM     31  C   UNL     1       1.754   4.906  20.147  0.00  0.00    +0.000 A 
ATOM     32  C   UNL     1       2.557   4.677  19.018  0.00  0.00    +0.000 A 
ENDBRANCH  18  19
ENDBRANCH   2  18
TORSDOF 6
ENDMDL
MODEL 6
REMARK VINA RESULT:      -7.9      3.622      9.194
REMARK  Name = 
REMARK  6 active torsions:
REMARK  status: ('A' for Active; 'I' for Inactive)
REMARK    1  A    between atoms: C_2  and  C_3
REMARK    2  A    between atoms: C_3  and  N_4
REMARK    3  A    between atoms: N_18  and  N_19
REMARK    4  A    between atoms: N_19  and  C_20
REMARK    5  A    between atoms: C_20  and  N_22
REMARK    6  A    between atoms: N_22  and  C_23
REMARK                            x       y       z     vdW  Elec       q    Type
REMARK                         _______ _______ _______ _____ _____    ______ ____
ROOT
ATOM      1  O   UNL     1       1.804   6.738  17.627  0.00  0.00    +0.000 OA
ATOM      2  C   UNL     1       2.388   7.392  18.504  0.00  0.00    +0.000 C 
ATOM      3  N   UNL     1       2.129   8.744  18.743  0.00  0.00    +0.000 N 
ATOM      4  H   UNL     1       2.269   9.070  19.697  0.00  0.00    +0.000 HD
ENDROOT
BRANCH   3   5
ATOM      5  N   UNL     1       1.074   9.380  18.081  0.00  0.00    +0.000 N 
ATOM      6  H   UNL     1       1.126   9.475  17.064  0.00  0.00    +0.000 HD
BRANCH   5   7
ATOM      7  C   UNL     1       0.158  10.125  18.796  0.00  0.00    +0.000 C 
ATOM      8  S   UNL     1      -0.087   9.970  20.441  0.00  0.00    +0.000 S 
BRANCH   7   9
ATOM      9  N   UNL     1      -0.540  11.043  18.047  0.00  0.00    +0.000 N 
ATOM     10  H   UNL     1       0.010  11.622  17.423  0.00  0.00    +0.000 HD
BRANCH   9  11
ATOM     11  C   UNL     1      -1.948  11.115  17.985  0.00  0.00    +0.000 A 
ATOM     12  C   UNL     1      -2.676  12.027  18.765  0.00  0.00    +0.000 A 
ATOM     13  C   UNL     1      -4.064  11.941  18.847  0.00  0.00    +0.000 A 
ATOM     14  C   UNL     1      -4.732  10.972  18.109  0.00  0.00    +0.000 A 
ATOM     15 CL   UNL     1      -6.433  10.786  18.287  0.00  0.00    +0.000 Cl
ATOM     16  C   UNL     1      -4.027  10.138  17.240  0.00  0.00    +0.000 A 
ATOM     17  C   UNL     1      -2.633  10.228  17.156  0.00  0.00    +0.000 A 
ENDBRANCH   9  11
ENDBRANCH   7   9
ENDBRANCH   5   7
ENDBRANCH   3   5
BRANCH   2  18
ATOM     18  C   UNL     1       3.545   6.834  19.353  0.00  0.00    +0.000 C 
BRANCH  18  19
ATOM     19  N   UNL     1       3.853   5.419  19.099  0.00  0.00    +0.000 N 
ATOM     20  C   UNL     1       4.765   5.129  18.055  0.00  0.00    +0.000 A 
ATOM     21  C   UNL     1       6.051   5.701  18.058  0.00  0.00    +0.000 A 
ATOM     22  C   UNL     1       7.026   5.295  17.140  0.00  0.00    +0.000 A 
ATOM     23  C   UNL     1       6.724   4.328  16.186  0.00  0.00    +0.000 A 
ATOM     24  C   UNL     1       5.451   3.762  16.150  0.00  0.00    +0.000 A 
ATOM     25  C   UNL     1       4.484   4.143  17.088  0.00  0.00    +0.000 A 
ATOM     26  S   UNL     1       2.890   3.327  17.047  0.00  0.00    +0.000 S 
ATOM     27  C   UNL     1       2.473   3.406  18.785  0.00  0.00    +0.000 A 
ATOM     28  C   UNL     1       1.627   2.421  19.308  0.00  0.00    +0.000 A 
ATOM     29  C   UNL     1       1.306   2.418  20.664  0.00  0.00    +0.000 A 
ATOM     30  C   UNL     1       1.833   3.397  21.500  0.00  0.00    +0.000 A 
ATOM     31  C   UNL     1       2.652   4.400  20.977  0.00  0.00    +0.000 A 
ATOM     32  C   UNL     1       2.970   4.436  19.609  0.00  0.00    +0.000 A 
ENDBRANCH  18  19
ENDBRANCH   2  18
TORSDOF 6
ENDMDL
MODEL 7
REMARK VINA RESULT:      -7.9      3.398      8.947
REMARK  Name = 
REMARK  6 active torsions:
REMARK  status: ('A' for Active; 'I' for Inactive)
REMARK    1  A    between atoms: C_2  and  C_3
REMARK    2  A    between atoms: C_3  and  N_4
REMARK    3  A    between atoms: N_18  and  N_19
REMARK    4  A    between atoms: N_19  and  C_20
REMARK    5  A    between atoms: C_20  and  N_22
REMARK    6  A    between atoms: N_22  and  C_23
REMARK                            x       y       z     vdW  Elec       q    Type
REMARK                         _______ _______ _______ _____ _____    ______ ____
ROOT
ATOM      1  O   UNL     1       2.198   8.037  19.799  0.00  0.00    +0.000 OA
ATOM      2  C   UNL     1       2.078   8.024  18.565  0.00  0.00    +0.000 C 
ATOM      3  N   UNL     1       1.799   9.171  17.817  0.00  0.00    +0.000 N 
ATOM      4  H   UNL     1       2.160   9.190  16.866  0.00  0.00    +0.000 HD
ENDROOT
BRANCH   3   5
ATOM      5  N   UNL     1       1.788  10.424  18.439  0.00  0.00    +0.000 N 
ATOM      6  H   UNL     1       2.683  10.840  18.708  0.00  0.00    +0.000 HD
BRANCH   5   7
ATOM      7  C   UNL     1       0.612  10.931  18.953  0.00  0.00    +0.000 C 
ATOM      8  S   UNL     1       0.213  10.899  20.575  0.00  0.00    +0.000 S 
BRANCH   7   9
ATOM      9  N   UNL     1      -0.220  11.502  18.018  0.00  0.00    +0.000 N 
ATOM     10  H   UNL     1       0.234  11.982  17.249  0.00  0.00    +0.000 HD
BRANCH   9  11
ATOM     11  C   UNL     1      -1.620  11.327  17.986  0.00  0.00    +0.000 A 
ATOM     12  C   UNL     1      -2.490  12.215  18.639  0.00  0.00    +0.000 A 
ATOM     13  C   UNL     1      -3.843  11.912  18.773  0.00  0.00    +0.000 A 
ATOM     14  C   UNL     1      -4.339  10.743  18.211  0.00  0.00    +0.000 A 
ATOM     15 CL   UNL     1      -5.983  10.305  18.464  0.00  0.00    +0.000 Cl
ATOM     16  C   UNL     1      -3.505   9.913  17.460  0.00  0.00    +0.000 A 
ATOM     17  C   UNL     1      -2.147  10.220  17.322  0.00  0.00    +0.000 A 
ENDBRANCH   9  11
ENDBRANCH   7   9
ENDBRANCH   5   7
ENDBRANCH   3   5
BRANCH   2  18
ATOM     18  C   UNL     1       2.105   6.738  17.720  0.00  0.00    +0.000 C 
BRANCH  18  19
ATOM     19  N   UNL     1       3.040   5.714  18.208  0.00  0.00    +0.000 N 
ATOM     20  C   UNL     1       4.313   5.646  17.589  0.00  0.00    +0.000 A 
ATOM     21  C   UNL     1       5.140   6.783  17.543  0.00  0.00    +0.000 A 
ATOM     22  C   UNL     1       6.464   6.697  17.098  0.00  0.00    +0.000 A 
ATOM     23  C   UNL     1       6.975   5.477  16.667  0.00  0.00    +0.000 A 
ATOM     24  C   UNL     1       6.168   4.341  16.683  0.00  0.00    +0.000 A 
ATOM     25  C   UNL     1       4.854   4.418  17.159  0.00  0.00    +0.000 A 
ATOM     26  S   UNL     1       3.887   2.913  17.234  0.00  0.00    +0.000 S 
ATOM     27  C   UNL     1       2.847   3.298  18.637  0.00  0.00    +0.000 A 
ATOM     28  C   UNL     1       2.354   2.239  19.407  0.00  0.00    +0.000 A 
ATOM     29  C   UNL     1       1.573   2.491  20.533  0.00  0.00    +0.000 A 
ATOM     30  C   UNL     1       1.287   3.804  20.895  0.00  0.00    +0.000 A 
ATOM     31  C   UNL     1       1.751   4.864  20.112  0.00  0.00    +0.000 A 
ATOM     32  C   UNL     1       2.520   4.631  18.960  0.00  0.00    +0.000 A 
ENDBRANCH  18  19
ENDBRANCH   2  18
TORSDOF 6
ENDMDL
MODEL 8
REMARK VINA RESULT:      -7.9      3.548      8.989
REMARK  Name = 
REMARK  6 active torsions:
REMARK  status: ('A' for Active; 'I' for Inactive)
REMARK    1  A    between atoms: C_2  and  C_3
REMARK    2  A    between atoms: C_3  and  N_4
REMARK    3  A    between atoms: N_18  and  N_19
REMARK    4  A    between atoms: N_19  and  C_20
REMARK    5  A    between atoms: C_20  and  N_22
REMARK    6  A    between atoms: N_22  and  C_23
REMARK                            x       y       z     vdW  Elec       q    Type
REMARK                         _______ _______ _______ _____ _____    ______ ____
ROOT
ATOM      1  O   UNL     1       1.833   7.158  17.961  0.00  0.00    +0.000 OA
ATOM      2  C   UNL     1       2.352   7.430  19.055  0.00  0.00    +0.000 C 
ATOM      3  N   UNL     1       1.851   8.416  19.909  0.00  0.00    +0.000 N 
ATOM      4  H   UNL     1       2.008   8.274  20.904  0.00  0.00    +0.000 HD
ENDROOT
BRANCH   3   5
ATOM      5  N   UNL     1       0.636   9.043  19.614  0.00  0.00    +0.000 N 
ATOM      6  H   UNL     1      -0.230   8.589  19.915  0.00  0.00    +0.000 HD
BRANCH   5   7
ATOM      7  C   UNL     1       0.591  10.063  18.686  0.00  0.00    +0.000 C 
ATOM      8  S   UNL     1       1.473  11.477  18.813  0.00  0.00    +0.000 S 
BRANCH   7   9
ATOM      9  N   UNL     1      -0.230   9.822  17.610  0.00  0.00    +0.000 N 
ATOM     10  H   UNL     1       0.140   9.206  16.895  0.00  0.00    +0.000 HD
BRANCH   9  11
ATOM     11  C   UNL     1      -1.576  10.241  17.525  0.00  0.00    +0.000 A 
ATOM     12  C   UNL     1      -2.353   9.997  16.383  0.00  0.00    +0.000 A 
ATOM     13  C   UNL     1      -3.602  10.596  16.232  0.00  0.00    +0.000 A 
ATOM     14  C   UNL     1      -4.097  11.403  17.249  0.00  0.00    +0.000 A 
ATOM     15 CL   UNL     1      -5.586  12.235  17.029  0.00  0.00    +0.000 Cl
ATOM     16  C   UNL     1      -3.382  11.556  18.438  0.00  0.00    +0.000 A 
ATOM     17  C   UNL     1      -2.130  10.950  18.589  0.00  0.00    +0.000 A 
ENDBRANCH   9  11
ENDBRANCH   7   9
ENDBRANCH   5   7
ENDBRANCH   3   5
BRANCH   2  18
ATOM     18  C   UNL     1       3.666   6.804  19.552  0.00  0.00    +0.000 C 
BRANCH  18  19
ATOM     19  N   UNL     1       3.843   5.392  19.179  0.00  0.00    +0.000 N 
ATOM     20  C   UNL     1       4.727   5.107  18.110  0.00  0.00    +0.000 A 
ATOM     21  C   UNL     1       6.060   5.555  18.155  0.00  0.00    +0.000 A 
ATOM     22  C   UNL     1       6.996   5.137  17.202  0.00  0.00    +0.000 A 
ATOM     23  C   UNL     1       6.609   4.286  16.172  0.00  0.00    +0.000 A 
ATOM     24  C   UNL     1       5.289   3.847  16.095  0.00  0.00    +0.000 A 
ATOM     25  C   UNL     1       4.358   4.235  17.066  0.00  0.00    +0.000 A 
ATOM     26  S   UNL     1       2.696   3.577  16.965  0.00  0.00    +0.000 S 
ATOM     27  C   UNL     1       2.283   3.549  18.704  0.00  0.00    +0.000 A 
ATOM     28  C   UNL     1       1.347   2.607  19.147  0.00  0.00    +0.000 A 
ATOM     29  C   UNL     1       1.023   2.520  20.500  0.00  0.00    +0.000 A 
ATOM     30  C   UNL     1       1.636   3.373  21.413  0.00  0.00    +0.000 A 
ATOM     31  C   UNL     1       2.547   4.336  20.971  0.00  0.00    +0.000 A 
ATOM     32  C   UNL     1       2.870   4.456  19.610  0.00  0.00    +0.000 A 
ENDBRANCH  18  19
ENDBRANCH   2  18
TORSDOF 6
ENDMDL
MODEL 9
REMARK VINA RESULT:      -7.8      3.391      8.747
REMARK  Name = 
REMARK  6 active torsions:
REMARK  status: ('A' for Active; 'I' for Inactive)
REMARK    1  A    between atoms: C_2  and  C_3
REMARK    2  A    between atoms: C_3  and  N_4
REMARK    3  A    between atoms: N_18  and  N_19
REMARK    4  A    between atoms: N_19  and  C_20
REMARK    5  A    between atoms: C_20  and  N_22
REMARK    6  A    between atoms: N_22  and  C_23
REMARK                            x       y       z     vdW  Elec       q    Type
REMARK                         _______ _______ _______ _____ _____    ______ ____
ROOT
ATOM      1  O   UNL     1       1.860   7.538  18.335  0.00  0.00    +0.000 OA
ATOM      2  C   UNL     1       2.418   7.302  19.417  0.00  0.00    +0.000 C 
ATOM      3  N   UNL     1       1.844   7.616  20.652  0.00  0.00    +0.000 N 
ATOM      4  H   UNL     1       2.099   7.018  21.435  0.00  0.00    +0.000 HD
ENDROOT
BRANCH   3   5
ATOM      5  N   UNL     1       0.527   8.086  20.710  0.00  0.00    +0.000 N 
ATOM      6  H   UNL     1      -0.224   7.466  20.400  0.00  0.00    +0.000 HD
BRANCH   5   7
ATOM      7  C   UNL     1       0.282   9.434  20.877  0.00  0.00    +0.000 C 
ATOM      8  S   UNL     1      -0.070  10.142  22.349  0.00  0.00    +0.000 S 
BRANCH   7   9
ATOM      9  N   UNL     1       0.373  10.178  19.724  0.00  0.00    +0.000 N 
ATOM     10  H   UNL     1       1.309  10.347  19.374  0.00  0.00    +0.000 HD
BRANCH   9  11
ATOM     11  C   UNL     1      -0.733  10.572  18.941  0.00  0.00    +0.000 A 
ATOM     12  C   UNL     1      -1.652  11.534  19.391  0.00  0.00    +0.000 A 
ATOM     13  C   UNL     1      -2.843  11.755  18.704  0.00  0.00    +0.000 A 
ATOM     14  C   UNL     1      -3.096  11.049  17.535  0.00  0.00    +0.000 A 
ATOM     15 CL   UNL     1      -4.609  11.232  16.737  0.00  0.00    +0.000 Cl
ATOM     16  C   UNL     1      -2.136  10.177  17.016  0.00  0.00    +0.000 A 
ATOM     17  C   UNL     1      -0.938   9.959  17.706  0.00  0.00    +0.000 A 
ENDBRANCH   9  11
ENDBRANCH   7   9
ENDBRANCH   5   7
ENDBRANCH   3   5
BRANCH   2  18
ATOM     18  C   UNL     1       3.848   6.746  19.535  0.00  0.00    +0.000 C 
BRANCH  18  19
ATOM     19  N   UNL     1       3.980   5.332  19.152  0.00  0.00    +0.000 N 
ATOM     20  C   UNL     1       4.828   5.031  18.058  0.00  0.00    +0.000 A 
ATOM     21  C   UNL     1       6.171   5.446  18.067  0.00  0.00    +0.000 A 
ATOM     22  C   UNL     1       7.071   5.011  17.087  0.00  0.00    +0.000 A 
ATOM     23  C   UNL     1       6.634   4.174  16.065  0.00  0.00    +0.000 A 
ATOM     24  C   UNL     1       5.303   3.766  16.023  0.00  0.00    +0.000 A 
ATOM     25  C   UNL     1       4.409   4.172  17.021  0.00  0.00    +0.000 A 
ATOM     26  S   UNL     1       2.729   3.554  16.963  0.00  0.00    +0.000 S 
ATOM     27  C   UNL     1       2.364   3.529  18.714  0.00  0.00    +0.000 A 
ATOM     28  C   UNL     1       1.418   2.607  19.180  0.00  0.00    +0.000 A 
ATOM     29  C   UNL     1       1.130   2.522  20.540  0.00  0.00    +0.000 A 
ATOM     30  C   UNL     1       1.788   3.357  21.439  0.00  0.00    +0.000 A 
ATOM     31  C   UNL     1       2.709   4.300  20.976  0.00  0.00    +0.000 A 
ATOM     32  C   UNL     1       2.998   4.417  19.606  0.00  0.00    +0.000 A 
ENDBRANCH  18  19
ENDBRANCH   2  18
TORSDOF 6
ENDMDL
