MODEL 1
REMARK VINA RESULT:      -6.8      0.000      0.000
REMARK  Name = 
REMARK  1 active torsions:
REMARK  status: ('A' for Active; 'I' for Inactive)
REMARK    1  A    between atoms: O_1  and  C_2
REMARK                            x       y       z     vdW  Elec       q    Type
REMARK                         _______ _______ _______ _____ _____    ______ ____
ROOT
ATOM      1  C   UNL     1       5.100   5.927  16.042  0.00  0.00    +0.000 A 
ATOM      2  C   UNL     1       5.653   4.771  15.502  0.00  0.00    +0.000 A 
ATOM      3  C   UNL     1       5.308   3.539  16.040  0.00  0.00    +0.000 A 
ATOM      4  C   UNL     1       4.421   3.471  17.115  0.00  0.00    +0.000 A 
ATOM      5  C   UNL     1       3.853   4.630  17.682  0.00  0.00    +0.000 A 
ATOM      6  C   UNL     1       4.190   5.882  17.114  0.00  0.00    +0.000 A 
ATOM      7  C   UNL     1       3.651   7.182  17.662  0.00  0.00    +0.000 C 
ATOM      8  C   UNL     1       2.430   7.012  18.552  0.00  0.00    +0.000 C 
ATOM      9  C   UNL     1       2.673   5.894  19.552  0.00  0.00    +0.000 C 
ATOM     10  C   UNL     1       2.849   4.528  18.847  0.00  0.00    +0.000 C 
ATOM     11  C   UNL     1       1.488   4.014  18.319  0.00  0.00    +0.000 C 
ATOM     12  C   UNL     1       1.489   2.531  18.631  0.00  0.00    +0.000 C 
ATOM     13  N   UNL     1       2.165   2.451  19.919  0.00  0.00    +0.000 NA
ATOM     14  C   UNL     1       3.232   3.461  19.911  0.00  0.00    +0.000 C 
ATOM     15  H   UNL     1       2.549   1.520  20.074  0.00  0.00    +0.000 HD
ENDROOT
BRANCH   1  16
ATOM     16  O   UNL     1       5.446   7.147  15.525  0.00  0.00    +0.000 OA
ATOM     17  H   UNL     1       5.112   7.840  16.115  0.00  0.00    +0.000 HD
ENDBRANCH   1  16
TORSDOF 1
ENDMDL
MODEL 2
REMARK VINA RESULT:      -6.8      1.148      3.174
REMARK  Name = 
REMARK  1 active torsions:
REMARK  status: ('A' for Active; 'I' for Inactive)
REMARK    1  A    between atoms: O_1  and  C_2
REMARK                            x       y       z     vdW  Elec       q    Type
REMARK                         _______ _______ _______ _____ _____    ______ ____
ROOT
ATOM      1  C   UNL     1       3.958   6.273  17.227  0.00  0.00    +0.000 A 
ATOM      2  C   UNL     1       3.454   7.393  17.879  0.00  0.00    +0.000 A 
ATOM      3  C   UNL     1       2.584   7.223  18.947  0.00  0.00    +0.000 A 
ATOM      4  C   UNL     1       2.220   5.938  19.351  0.00  0.00    +0.000 A 
ATOM      5  C   UNL     1       2.713   4.788  18.701  0.00  0.00    +0.000 A 
ATOM      6  C   UNL     1       3.618   4.968  17.628  0.00  0.00    +0.000 A 
ATOM      7  C   UNL     1       4.187   3.801  16.854  0.00  0.00    +0.000 C 
ATOM      8  C   UNL     1       4.056   2.468  17.574  0.00  0.00    +0.000 C 
ATOM      9  C   UNL     1       2.644   2.311  18.114  0.00  0.00    +0.000 C 
ATOM     10  C   UNL     1       2.323   3.378  19.187  0.00  0.00    +0.000 C 
ATOM     11  C   UNL     1       3.066   3.058  20.506  0.00  0.00    +0.000 C 
ATOM     12  C   UNL     1       2.055   3.349  21.598  0.00  0.00    +0.000 C 
ATOM     13  N   UNL     1       0.791   2.911  21.021  0.00  0.00    +0.000 NA
ATOM     14  C   UNL     1       0.828   3.248  19.592  0.00  0.00    +0.000 C 
ATOM     15  H   UNL     1       0.002   3.366  21.480  0.00  0.00    +0.000 HD
ENDROOT
BRANCH   1  16
ATOM     16  O   UNL     1       4.806   6.434  16.164  0.00  0.00    +0.000 OA
ATOM     17  H   UNL     1       5.005   7.378  16.065  0.00  0.00    +0.000 HD
ENDBRANCH   1  16
TORSDOF 1
ENDMDL
MODEL 3
REMARK VINA RESULT:      -6.7      1.973      3.053
REMARK  Name = 
REMARK  1 active torsions:
REMARK  status: ('A' for Active; 'I' for Inactive)
REMARK    1  A    between atoms: O_1  and  C_2
REMARK                            x       y       z     vdW  Elec       q    Type
REMARK                         _______ _______ _______ _____ _____    ______ ____
ROOT
ATOM      1  C   UNL     1       2.668   7.003  18.814  0.00  0.00    +0.000 A 
ATOM      2  C   UNL     1       3.569   7.194  17.773  0.00  0.00    +0.000 A 
ATOM      3  C   UNL     1       4.332   6.122  17.330  0.00  0.00    +0.000 A 
ATOM      4  C   UNL     1       4.194   4.872  17.933  0.00  0.00    +0.000 A 
ATOM      5  C   UNL     1       3.291   4.655  18.995  0.00  0.00    +0.000 A 
ATOM      6  C   UNL     1       2.499   5.746  19.426  0.00  0.00    +0.000 A 
ATOM      7  C   UNL     1       1.519   5.623  20.568  0.00  0.00    +0.000 C 
ATOM      8  C   UNL     1       1.152   4.186  20.907  0.00  0.00    +0.000 C 
ATOM      9  C   UNL     1       2.411   3.339  20.989  0.00  0.00    +0.000 C 
ATOM     10  C   UNL     1       3.132   3.257  19.622  0.00  0.00    +0.000 C 
ATOM     11  C   UNL     1       2.349   2.338  18.654  0.00  0.00    +0.000 C 
ATOM     12  C   UNL     1       3.416   1.529  17.944  0.00  0.00    +0.000 C 
ATOM     13  N   UNL     1       4.411   1.287  18.981  0.00  0.00    +0.000 NA
ATOM     14  C   UNL     1       4.475   2.499  19.809  0.00  0.00    +0.000 C 
ATOM     15  H   UNL     1       5.322   1.079  18.573  0.00  0.00    +0.000 HD
ENDROOT
BRANCH   1  16
ATOM     16  O   UNL     1       1.922   8.059  19.266  0.00  0.00    +0.000 OA
ATOM     17  H   UNL     1       1.292   8.312  18.573  0.00  0.00    +0.000 HD
ENDBRANCH   1  16
TORSDOF 1
ENDMDL
MODEL 4
REMARK VINA RESULT:      -6.7      2.748      4.262
REMARK  Name = 
REMARK  1 active torsions:
REMARK  status: ('A' for Active; 'I' for Inactive)
REMARK    1  A    between atoms: O_1  and  C_2
REMARK                            x       y       z     vdW  Elec       q    Type
REMARK                         _______ _______ _______ _____ _____    ______ ____
ROOT
ATOM      1  C   UNL     1       2.055   3.620  18.651  0.00  0.00    +0.000 A 
ATOM      2  C   UNL     1       2.378   2.268  18.583  0.00  0.00    +0.000 A 
ATOM      3  C   UNL     1       3.574   1.886  17.990  0.00  0.00    +0.000 A 
ATOM      4  C   UNL     1       4.433   2.853  17.467  0.00  0.00    +0.000 A 
ATOM      5  C   UNL     1       4.124   4.228  17.519  0.00  0.00    +0.000 A 
ATOM      6  C   UNL     1       2.914   4.613  18.145  0.00  0.00    +0.000 A 
ATOM      7  C   UNL     1       2.482   6.058  18.234  0.00  0.00    +0.000 C 
ATOM      8  C   UNL     1       3.611   7.049  17.999  0.00  0.00    +0.000 C 
ATOM      9  C   UNL     1       4.404   6.644  16.767  0.00  0.00    +0.000 C 
ATOM     10  C   UNL     1       5.104   5.279  16.964  0.00  0.00    +0.000 C 
ATOM     11  C   UNL     1       6.309   5.425  17.924  0.00  0.00    +0.000 C 
ATOM     12  C   UNL     1       7.400   4.572  17.306  0.00  0.00    +0.000 C 
ATOM     13  N   UNL     1       7.222   4.772  15.873  0.00  0.00    +0.000 NA
ATOM     14  C   UNL     1       5.776   4.863  15.626  0.00  0.00    +0.000 C 
ATOM     15  H   UNL     1       7.632   4.004  15.343  0.00  0.00    +0.000 HD
ENDROOT
BRANCH   1  16
ATOM     16  O   UNL     1       0.871   4.003  19.222  0.00  0.00    +0.000 OA
ATOM     17  H   UNL     1       0.595   4.846  18.828  0.00  0.00    +0.000 HD
ENDBRANCH   1  16
TORSDOF 1
ENDMDL
MODEL 5
REMARK VINA RESULT:      -6.6      2.833      4.295
REMARK  Name = 
REMARK  1 active torsions:
REMARK  status: ('A' for Active; 'I' for Inactive)
REMARK    1  A    between atoms: O_1  and  C_2
REMARK                            x       y       z     vdW  Elec       q    Type
REMARK                         _______ _______ _______ _____ _____    ______ ____
ROOT
ATOM      1  C   UNL     1       1.615   3.154  19.407  0.00  0.00    +0.000 A 
ATOM      2  C   UNL     1       2.003   1.872  19.031  0.00  0.00    +0.000 A 
ATOM      3  C   UNL     1       3.147   1.708  18.262  0.00  0.00    +0.000 A 
ATOM      4  C   UNL     1       3.890   2.823  17.871  0.00  0.00    +0.000 A 
ATOM      5  C   UNL     1       3.512   4.132  18.235  0.00  0.00    +0.000 A 
ATOM      6  C   UNL     1       2.358   4.290  19.039  0.00  0.00    +0.000 A 
ATOM      7  C   UNL     1       1.858   5.651  19.465  0.00  0.00    +0.000 C 
ATOM      8  C   UNL     1       2.898   6.753  19.334  0.00  0.00    +0.000 C 
ATOM      9  C   UNL     1       3.575   6.664  17.975  0.00  0.00    +0.000 C 
ATOM     10  C   UNL     1       4.367   5.344  17.819  0.00  0.00    +0.000 C 
ATOM     11  C   UNL     1       5.659   5.387  18.670  0.00  0.00    +0.000 C 
ATOM     12  C   UNL     1       6.722   4.761  17.789  0.00  0.00    +0.000 C 
ATOM     13  N   UNL     1       6.379   5.228  16.452  0.00  0.00    +0.000 NA
ATOM     14  C   UNL     1       4.913   5.256  16.367  0.00  0.00    +0.000 C 
ATOM     15  H   UNL     1       6.771   4.616  15.739  0.00  0.00    +0.000 HD
ENDROOT
BRANCH   1  16
ATOM     16  O   UNL     1       0.479   3.324  20.154  0.00  0.00    +0.000 OA
ATOM     17  H   UNL     1      -0.215   3.690  19.584  0.00  0.00    +0.000 HD
ENDBRANCH   1  16
TORSDOF 1
ENDMDL
MODEL 6
REMARK VINA RESULT:      -6.6      2.789      4.421
REMARK  Name = 
REMARK  1 active torsions:
REMARK  status: ('A' for Active; 'I' for Inactive)
REMARK    1  A    between atoms: O_1  and  C_2
REMARK                            x       y       z     vdW  Elec       q    Type
REMARK                         _______ _______ _______ _____ _____    ______ ____
ROOT
ATOM      1  C   UNL     1       2.362   4.339  19.965  0.00  0.00    +0.000 A 
ATOM      2  C   UNL     1       2.775   3.123  20.501  0.00  0.00    +0.000 A 
ATOM      3  C   UNL     1       3.981   2.574  20.088  0.00  0.00    +0.000 A 
ATOM      4  C   UNL     1       4.761   3.238  19.141  0.00  0.00    +0.000 A 
ATOM      5  C   UNL     1       4.360   4.468  18.579  0.00  0.00    +0.000 A 
ATOM      6  C   UNL     1       3.141   5.034  19.022  0.00  0.00    +0.000 A 
ATOM      7  C   UNL     1       2.614   6.337  18.468  0.00  0.00    +0.000 C 
ATOM      8  C   UNL     1       3.668   7.169  17.752  0.00  0.00    +0.000 C 
ATOM      9  C   UNL     1       4.460   6.287  16.800  0.00  0.00    +0.000 C 
ATOM     10  C   UNL     1       5.255   5.199  17.560  0.00  0.00    +0.000 C 
ATOM     11  C   UNL     1       6.468   5.828  18.288  0.00  0.00    +0.000 C 
ATOM     12  C   UNL     1       7.600   4.844  18.070  0.00  0.00    +0.000 C 
ATOM     13  N   UNL     1       7.379   4.359  16.714  0.00  0.00    +0.000 NA
ATOM     14  C   UNL     1       5.926   4.254  16.525  0.00  0.00    +0.000 C 
ATOM     15  H   UNL     1       7.829   3.456  16.569  0.00  0.00    +0.000 HD
ENDROOT
BRANCH   1  16
ATOM     16  O   UNL     1       1.167   4.880  20.358  0.00  0.00    +0.000 OA
ATOM     17  H   UNL     1       1.185   5.008  21.319  0.00  0.00    +0.000 HD
ENDBRANCH   1  16
TORSDOF 1
ENDMDL
MODEL 7
REMARK VINA RESULT:      -6.4      2.908      4.710
REMARK  Name = 
REMARK  1 active torsions:
REMARK  status: ('A' for Active; 'I' for Inactive)
REMARK    1  A    between atoms: O_1  and  C_2
REMARK                            x       y       z     vdW  Elec       q    Type
REMARK                         _______ _______ _______ _____ _____    ______ ____
ROOT
ATOM      1  C   UNL     1       2.470   6.640  19.623  0.00  0.00    +0.000 A 
ATOM      2  C   UNL     1       2.135   7.812  18.952  0.00  0.00    +0.000 A 
ATOM      3  C   UNL     1       2.854   8.175  17.821  0.00  0.00    +0.000 A 
ATOM      4  C   UNL     1       3.903   7.371  17.374  0.00  0.00    +0.000 A 
ATOM      5  C   UNL     1       4.264   6.182  18.042  0.00  0.00    +0.000 A 
ATOM      6  C   UNL     1       3.512   5.805  19.180  0.00  0.00    +0.000 A 
ATOM      7  C   UNL     1       3.832   4.562  19.977  0.00  0.00    +0.000 C 
ATOM      8  C   UNL     1       4.707   3.566  19.231  0.00  0.00    +0.000 C 
ATOM      9  C   UNL     1       5.878   4.290  18.587  0.00  0.00    +0.000 C 
ATOM     10  C   UNL     1       5.404   5.293  17.509  0.00  0.00    +0.000 C 
ATOM     11  C   UNL     1       4.930   4.540  16.243  0.00  0.00    +0.000 C 
ATOM     12  C   UNL     1       5.474   5.352  15.085  0.00  0.00    +0.000 C 
ATOM     13  N   UNL     1       6.776   5.802  15.562  0.00  0.00    +0.000 NA
ATOM     14  C   UNL     1       6.634   6.093  16.995  0.00  0.00    +0.000 C 
ATOM     15  H   UNL     1       7.086   6.629  15.054  0.00  0.00    +0.000 HD
ENDROOT
BRANCH   1  16
ATOM     16  O   UNL     1       1.774   6.283  20.747  0.00  0.00    +0.000 OA
ATOM     17  H   UNL     1       2.090   6.819  21.491  0.00  0.00    +0.000 HD
ENDBRANCH   1  16
TORSDOF 1
ENDMDL
MODEL 8
REMARK VINA RESULT:      -6.3      2.576      4.246
REMARK  Name = 
REMARK  1 active torsions:
REMARK  status: ('A' for Active; 'I' for Inactive)
REMARK    1  A    between atoms: O_1  and  C_2
REMARK                            x       y       z     vdW  Elec       q    Type
REMARK                         _______ _______ _______ _____ _____    ______ ____
ROOT
ATOM      1  C   UNL     1       2.157   6.830  19.734  0.00  0.00    +0.000 A 
ATOM      2  C   UNL     1       2.298   7.915  18.873  0.00  0.00    +0.000 A 
ATOM      3  C   UNL     1       3.204   7.835  17.825  0.00  0.00    +0.000 A 
ATOM      4  C   UNL     1       3.965   6.680  17.647  0.00  0.00    +0.000 A 
ATOM      5  C   UNL     1       3.844   5.571  18.510  0.00  0.00    +0.000 A 
ATOM      6  C   UNL     1       2.902   5.649  19.563  0.00  0.00    +0.000 A 
ATOM      7  C   UNL     1       2.712   4.524  20.553  0.00  0.00    +0.000 C 
ATOM      8  C   UNL     1       3.275   3.192  20.081  0.00  0.00    +0.000 C 
ATOM      9  C   UNL     1       4.677   3.392  19.530  0.00  0.00    +0.000 C 
ATOM     10  C   UNL     1       4.672   4.292  18.273  0.00  0.00    +0.000 C 
ATOM     11  C   UNL     1       4.101   3.520  17.059  0.00  0.00    +0.000 C 
ATOM     12  C   UNL     1       4.995   3.911  15.899  0.00  0.00    +0.000 C 
ATOM     13  N   UNL     1       6.319   4.006  16.502  0.00  0.00    +0.000 NA
ATOM     14  C   UNL     1       6.141   4.568  17.848  0.00  0.00    +0.000 C 
ATOM     15  H   UNL     1       6.934   4.595  15.943  0.00  0.00    +0.000 HD
ENDROOT
BRANCH   1  16
ATOM     16  O   UNL     1       1.275   6.906  20.778  0.00  0.00    +0.000 OA
ATOM     17  H   UNL     1       0.377   6.778  20.436  0.00  0.00    +0.000 HD
ENDBRANCH   1  16
TORSDOF 1
ENDMDL
MODEL 9
REMARK VINA RESULT:      -6.2      3.010      5.020
REMARK  Name = 
REMARK  1 active torsions:
REMARK  status: ('A' for Active; 'I' for Inactive)
REMARK    1  A    between atoms: O_1  and  C_2
REMARK                            x       y       z     vdW  Elec       q    Type
REMARK                         _______ _______ _______ _____ _____    ______ ____
ROOT
ATOM      1  C   UNL     1       3.099   4.294  17.551  0.00  0.00    +0.000 A 
ATOM      2  C   UNL     1       2.526   5.031  18.582  0.00  0.00    +0.000 A 
ATOM      3  C   UNL     1       3.313   5.923  19.297  0.00  0.00    +0.000 A 
ATOM      4  C   UNL     1       4.664   6.068  18.982  0.00  0.00    +0.000 A 
ATOM      5  C   UNL     1       5.269   5.327  17.945  0.00  0.00    +0.000 A 
ATOM      6  C   UNL     1       4.456   4.437  17.204  0.00  0.00    +0.000 A 
ATOM      7  C   UNL     1       5.012   3.583  16.089  0.00  0.00    +0.000 C 
ATOM      8  C   UNL     1       6.356   4.063  15.563  0.00  0.00    +0.000 C 
ATOM      9  C   UNL     1       7.286   4.364  16.727  0.00  0.00    +0.000 C 
ATOM     10  C   UNL     1       6.756   5.530  17.594  0.00  0.00    +0.000 C 
ATOM     11  C   UNL     1       6.937   6.877  16.855  0.00  0.00    +0.000 C 
ATOM     12  C   UNL     1       7.405   7.844  17.925  0.00  0.00    +0.000 C 
ATOM     13  N   UNL     1       8.273   7.030  18.767  0.00  0.00    +0.000 NA
ATOM     14  C   UNL     1       7.675   5.690  18.836  0.00  0.00    +0.000 C 
ATOM     15  H   UNL     1       8.364   7.435  19.698  0.00  0.00    +0.000 HD
ENDROOT
BRANCH   1  16
ATOM     16  O   UNL     1       2.333   3.401  16.850  0.00  0.00    +0.000 OA
ATOM     17  H   UNL     1       2.879   2.633  16.624  0.00  0.00    +0.000 HD
ENDBRANCH   1  16
TORSDOF 1
ENDMDL
