MODEL 1
REMARK VINA RESULT:      -8.4      0.000      0.000
REMARK  Name = 
REMARK  11 active torsions:
REMARK  status: ('A' for Active; 'I' for Inactive)
REMARK    1  A    between atoms: C_1  and  C_2
REMARK    2  A    between atoms: C_2  and  C_3
REMARK    3  A    between atoms: C_5  and  S_6
REMARK    4  A    between atoms: S_6  and  N_9
REMARK    5  A    between atoms: C_11  and  C_12
REMARK    6  A    between atoms: C_23  and  N_24
REMARK    7  A    between atoms: C_25  and  O_27
REMARK    8  A    between atoms: O_27  and  C_28
REMARK    9  A    between atoms: C_28  and  C_29
REMARK   10  A    between atoms: C_29  and  C_30
REMARK   11  A    between atoms: C_29  and  C_31
REMARK                            x       y       z     vdW  Elec       q    Type
REMARK                         _______ _______ _______ _____ _____    ______ ____
ROOT
ATOM      1  C   UNL     1       2.227   7.624  19.092  0.00  0.00    +0.000 A 
ATOM      2  C   UNL     1       2.466   6.383  18.454  0.00  0.00    +0.000 A 
ATOM      3  C   UNL     1       2.303   5.174  19.130  0.00  0.00    +0.000 A 
ATOM      4  C   UNL     1       1.979   5.181  20.479  0.00  0.00    +0.000 A 
ATOM      5  C   UNL     1       1.758   6.401  21.123  0.00  0.00    +0.000 A 
ATOM      6  C   UNL     1       1.837   7.637  20.447  0.00  0.00    +0.000 A 
ENDROOT
BRANCH   6   7
ATOM      7  N   UNL     1       1.524   8.841  21.134  0.00  0.00    +0.000 N 
ATOM      8  C   UNL     1       0.307   9.099  21.738  0.00  0.00    +0.000 C 
ATOM      9  O   UNL     1      -0.668   8.356  21.735  0.00  0.00    +0.000 OA
ATOM     10  H   UNL     1       2.132   9.642  21.046  0.00  0.00    +0.000 HD
BRANCH   8  11
ATOM     11  O   UNL     1       0.255  10.364  22.241  0.00  0.00    +0.000 OA
BRANCH  11  12
ATOM     12  C   UNL     1      -0.965  10.649  22.964  0.00  0.00    +0.000 C 
BRANCH  12  13
ATOM     13  C   UNL     1      -1.743  11.907  22.526  0.00  0.00    +0.000 C 
ATOM     14  C   UNL     1      -2.942  12.178  23.429  0.00  0.00    +0.000 C 
ATOM     15  C   UNL     1      -0.802  13.117  22.515  0.00  0.00    +0.000 C 
ENDBRANCH  12  13
ENDBRANCH  11  12
ENDBRANCH   8  11
ENDBRANCH   6   7
BRANCH   3  16
ATOM     16  S   UNL     1       2.560   3.651  18.242  0.00  0.00    +0.000 S 
ATOM     17  O   UNL     1       2.738   2.623  19.239  0.00  0.00    +0.000 OA
ATOM     18  O   UNL     1       1.499   3.552  17.251  0.00  0.00    +0.000 OA
BRANCH  16  19
ATOM     19  N   UNL     1       3.975   3.930  17.416  0.00  0.00    +0.000 N 
ATOM     20  C   UNL     1       3.963   4.215  15.965  0.00  0.00    +0.000 C 
ATOM     21  C   UNL     1       5.375   4.824  15.798  0.00  0.00    +0.000 C 
ATOM     22  N   UNL     1       6.118   4.278  16.912  0.00  0.00    +0.000 N 
ATOM     23  C   UNL     1       5.273   3.943  17.938  0.00  0.00    +0.000 C 
ATOM     24  O   UNL     1       5.619   3.757  19.088  0.00  0.00    +0.000 OA
ATOM     25  H   UNL     1       7.081   4.506  17.118  0.00  0.00    +0.000 HD
BRANCH  21  26
ATOM     26  C   UNL     1       6.064   4.601  14.480  0.00  0.00    +0.000 A 
ATOM     27  C   UNL     1       7.256   5.287  14.189  0.00  0.00    +0.000 A 
ATOM     28  C   UNL     1       7.920   5.082  12.979  0.00  0.00    +0.000 A 
ATOM     29  C   UNL     1       7.405   4.189  12.043  0.00  0.00    +0.000 A 
ATOM     30  C   UNL     1       6.227   3.496  12.318  0.00  0.00    +0.000 A 
ATOM     31  C   UNL     1       5.561   3.699  13.528  0.00  0.00    +0.000 A 
ENDBRANCH  21  26
ENDBRANCH  16  19
ENDBRANCH   3  16
BRANCH   1  33
ATOM     32  C   UNL     1       0.910   9.374  17.880  0.00  0.00    +0.000 C 
ATOM     33  C   UNL     1       2.302   8.831  18.185  0.00  0.00    +0.000 C 
ENDBRANCH   1  33
TORSDOF 8
ENDMDL
MODEL 2
REMARK VINA RESULT:      -8.4      0.283      1.070
REMARK  Name = 
REMARK  11 active torsions:
REMARK  status: ('A' for Active; 'I' for Inactive)
REMARK    1  A    between atoms: C_1  and  C_2
REMARK    2  A    between atoms: C_2  and  C_3
REMARK    3  A    between atoms: C_5  and  S_6
REMARK    4  A    between atoms: S_6  and  N_9
REMARK    5  A    between atoms: C_11  and  C_12
REMARK    6  A    between atoms: C_23  and  N_24
REMARK    7  A    between atoms: C_25  and  O_27
REMARK    8  A    between atoms: O_27  and  C_28
REMARK    9  A    between atoms: C_28  and  C_29
REMARK   10  A    between atoms: C_29  and  C_30
REMARK   11  A    between atoms: C_29  and  C_31
REMARK                            x       y       z     vdW  Elec       q    Type
REMARK                         _______ _______ _______ _____ _____    ______ ____
ROOT
ATOM      1  C   UNL     1       2.242   7.565  19.104  0.00  0.00    +0.000 A 
ATOM      2  C   UNL     1       2.480   6.340  18.434  0.00  0.00    +0.000 A 
ATOM      3  C   UNL     1       2.376   5.117  19.095  0.00  0.00    +0.000 A 
ATOM      4  C   UNL     1       2.114   5.093  20.457  0.00  0.00    +0.000 A 
ATOM      5  C   UNL     1       1.895   6.298  21.132  0.00  0.00    +0.000 A 
ATOM      6  C   UNL     1       1.915   7.545  20.476  0.00  0.00    +0.000 A 
ENDROOT
BRANCH   6   7
ATOM      7  N   UNL     1       1.607   8.731  21.198  0.00  0.00    +0.000 N 
ATOM      8  C   UNL     1       0.352   9.036  21.692  0.00  0.00    +0.000 C 
ATOM      9  O   UNL     1      -0.660   8.361  21.549  0.00  0.00    +0.000 OA
ATOM     10  H   UNL     1       2.268   9.493  21.217  0.00  0.00    +0.000 HD
BRANCH   8  11
ATOM     11  O   UNL     1       0.326  10.274  22.261  0.00  0.00    +0.000 OA
BRANCH  11  12
ATOM     12  C   UNL     1      -0.907  10.563  22.960  0.00  0.00    +0.000 C 
BRANCH  12  13
ATOM     13  C   UNL     1      -1.535  11.948  22.698  0.00  0.00    +0.000 C 
ATOM     14  C   UNL     1      -1.923  12.130  21.235  0.00  0.00    +0.000 C 
ATOM     15  C   UNL     1      -2.759  12.137  23.601  0.00  0.00    +0.000 C 
ENDBRANCH  12  13
ENDBRANCH  11  12
ENDBRANCH   8  11
ENDBRANCH   6   7
BRANCH   3  16
ATOM     16  S   UNL     1       2.625   3.616  18.169  0.00  0.00    +0.000 S 
ATOM     17  O   UNL     1       2.793   2.561  19.140  0.00  0.00    +0.000 OA
ATOM     18  O   UNL     1       1.568   3.549  17.172  0.00  0.00    +0.000 OA
BRANCH  16  19
ATOM     19  N   UNL     1       4.046   3.906  17.355  0.00  0.00    +0.000 N 
ATOM     20  C   UNL     1       4.045   4.181  15.902  0.00  0.00    +0.000 C 
ATOM     21  C   UNL     1       5.451   4.806  15.745  0.00  0.00    +0.000 C 
ATOM     22  N   UNL     1       6.189   4.277  16.870  0.00  0.00    +0.000 N 
ATOM     23  C   UNL     1       5.338   3.939  17.890  0.00  0.00    +0.000 C 
ATOM     24  O   UNL     1       5.674   3.765  19.046  0.00  0.00    +0.000 OA
ATOM     25  H   UNL     1       7.148   4.519  17.085  0.00  0.00    +0.000 HD
BRANCH  21  26
ATOM     26  C   UNL     1       6.156   4.582  14.436  0.00  0.00    +0.000 A 
ATOM     27  C   UNL     1       5.676   3.611  13.540  0.00  0.00    +0.000 A 
ATOM     28  C   UNL     1       6.306   3.399  12.313  0.00  0.00    +0.000 A 
ATOM     29  C   UNL     1       7.422   4.154  11.962  0.00  0.00    +0.000 A 
ATOM     30  C   UNL     1       7.907   5.125  12.836  0.00  0.00    +0.000 A 
ATOM     31  C   UNL     1       7.279   5.340  14.064  0.00  0.00    +0.000 A 
ENDBRANCH  21  26
ENDBRANCH  16  19
ENDBRANCH   3  16
BRANCH   1  33
ATOM     32  C   UNL     1       0.829   9.185  17.822  0.00  0.00    +0.000 C 
ATOM     33  C   UNL     1       2.248   8.788  18.216  0.00  0.00    +0.000 C 
ENDBRANCH   1  33
TORSDOF 8
ENDMDL
MODEL 3
REMARK VINA RESULT:      -8.2      3.053      9.392
REMARK  Name = 
REMARK  11 active torsions:
REMARK  status: ('A' for Active; 'I' for Inactive)
REMARK    1  A    between atoms: C_1  and  C_2
REMARK    2  A    between atoms: C_2  and  C_3
REMARK    3  A    between atoms: C_5  and  S_6
REMARK    4  A    between atoms: S_6  and  N_9
REMARK    5  A    between atoms: C_11  and  C_12
REMARK    6  A    between atoms: C_23  and  N_24
REMARK    7  A    between atoms: C_25  and  O_27
REMARK    8  A    between atoms: O_27  and  C_28
REMARK    9  A    between atoms: C_28  and  C_29
REMARK   10  A    between atoms: C_29  and  C_30
REMARK   11  A    between atoms: C_29  and  C_31
REMARK                            x       y       z     vdW  Elec       q    Type
REMARK                         _______ _______ _______ _____ _____    ______ ____
ROOT
ATOM      1  C   UNL     1       2.326   5.862  20.239  0.00  0.00    +0.000 A 
ATOM      2  C   UNL     1       1.642   6.894  20.927  0.00  0.00    +0.000 A 
ATOM      3  C   UNL     1       1.443   8.147  20.348  0.00  0.00    +0.000 A 
ATOM      4  C   UNL     1       1.994   8.424  19.105  0.00  0.00    +0.000 A 
ATOM      5  C   UNL     1       2.686   7.417  18.425  0.00  0.00    +0.000 A 
ATOM      6  C   UNL     1       2.835   6.117  18.950  0.00  0.00    +0.000 A 
ENDROOT
BRANCH   6   7
ATOM      7  N   UNL     1       3.480   5.112  18.178  0.00  0.00    +0.000 N 
ATOM      8  C   UNL     1       2.815   4.192  17.387  0.00  0.00    +0.000 C 
ATOM      9  O   UNL     1       1.600   4.091  17.269  0.00  0.00    +0.000 OA
ATOM     10  H   UNL     1       4.458   4.915  18.327  0.00  0.00    +0.000 HD
BRANCH   8  11
ATOM     11  O   UNL     1       3.677   3.292  16.834  0.00  0.00    +0.000 OA
BRANCH  11  12
ATOM     12  C   UNL     1       4.985   3.842  16.555  0.00  0.00    +0.000 C 
BRANCH  12  13
ATOM     13  C   UNL     1       5.156   4.551  15.196  0.00  0.00    +0.000 C 
ATOM     14  C   UNL     1       5.420   6.044  15.361  0.00  0.00    +0.000 C 
ATOM     15  C   UNL     1       6.296   3.892  14.411  0.00  0.00    +0.000 C 
ENDBRANCH  12  13
ENDBRANCH  11  12
ENDBRANCH   8  11
ENDBRANCH   6   7
BRANCH   3  16
ATOM     16  S   UNL     1       0.517   9.373  21.249  0.00  0.00    +0.000 S 
ATOM     17  O   UNL     1      -0.771   8.786  21.530  0.00  0.00    +0.000 OA
ATOM     18  O   UNL     1       1.371   9.845  22.329  0.00  0.00    +0.000 OA
BRANCH  16  19
ATOM     19  N   UNL     1       0.378  10.619  20.157  0.00  0.00    +0.000 N 
ATOM     20  C   UNL     1       1.211  11.834  20.283  0.00  0.00    +0.000 C 
ATOM     21  C   UNL     1       1.049  12.422  18.861  0.00  0.00    +0.000 C 
ATOM     22  N   UNL     1      -0.202  11.861  18.399  0.00  0.00    +0.000 N 
ATOM     23  C   UNL     1      -0.471  10.683  19.048  0.00  0.00    +0.000 C 
ATOM     24  O   UNL     1      -1.267   9.847  18.665  0.00  0.00    +0.000 OA
ATOM     25  H   UNL     1      -0.590  12.019  17.479  0.00  0.00    +0.000 HD
BRANCH  21  26
ATOM     26  C   UNL     1       1.092  13.918  18.731  0.00  0.00    +0.000 A 
ATOM     27  C   UNL     1       2.314  14.562  18.467  0.00  0.00    +0.000 A 
ATOM     28  C   UNL     1       2.374  15.949  18.326  0.00  0.00    +0.000 A 
ATOM     29  C   UNL     1       1.216  16.713  18.444  0.00  0.00    +0.000 A 
ATOM     30  C   UNL     1      -0.005  16.090  18.699  0.00  0.00    +0.000 A 
ATOM     31  C   UNL     1      -0.067  14.703  18.840  0.00  0.00    +0.000 A 
ENDBRANCH  21  26
ENDBRANCH  16  19
ENDBRANCH   3  16
BRANCH   1  33
ATOM     32  C   UNL     1       1.038   3.757  20.659  0.00  0.00    +0.000 C 
ATOM     33  C   UNL     1       2.327   4.523  20.940  0.00  0.00    +0.000 C 
ENDBRANCH   1  33
TORSDOF 8
ENDMDL
MODEL 4
REMARK VINA RESULT:      -8.1      3.167      9.537
REMARK  Name = 
REMARK  11 active torsions:
REMARK  status: ('A' for Active; 'I' for Inactive)
REMARK    1  A    between atoms: C_1  and  C_2
REMARK    2  A    between atoms: C_2  and  C_3
REMARK    3  A    between atoms: C_5  and  S_6
REMARK    4  A    between atoms: S_6  and  N_9
REMARK    5  A    between atoms: C_11  and  C_12
REMARK    6  A    between atoms: C_23  and  N_24
REMARK    7  A    between atoms: C_25  and  O_27
REMARK    8  A    between atoms: O_27  and  C_28
REMARK    9  A    between atoms: C_28  and  C_29
REMARK   10  A    between atoms: C_29  and  C_30
REMARK   11  A    between atoms: C_29  and  C_31
REMARK                            x       y       z     vdW  Elec       q    Type
REMARK                         _______ _______ _______ _____ _____    ______ ____
ROOT
ATOM      1  C   UNL     1       2.289   6.041  20.113  0.00  0.00    +0.000 A 
ATOM      2  C   UNL     1       1.600   7.083  20.781  0.00  0.00    +0.000 A 
ATOM      3  C   UNL     1       1.435   8.338  20.196  0.00  0.00    +0.000 A 
ATOM      4  C   UNL     1       2.026   8.606  18.969  0.00  0.00    +0.000 A 
ATOM      5  C   UNL     1       2.724   7.590  18.311  0.00  0.00    +0.000 A 
ATOM      6  C   UNL     1       2.840   6.288  18.839  0.00  0.00    +0.000 A 
ENDROOT
BRANCH   6   7
ATOM      7  N   UNL     1       3.493   5.274  18.086  0.00  0.00    +0.000 N 
ATOM      8  C   UNL     1       4.779   4.830  18.331  0.00  0.00    +0.000 C 
ATOM      9  O   UNL     1       5.537   5.264  19.190  0.00  0.00    +0.000 OA
ATOM     10  H   UNL     1       3.095   4.963  17.212  0.00  0.00    +0.000 HD
BRANCH   8  11
ATOM     11  O   UNL     1       5.180   3.919  17.401  0.00  0.00    +0.000 OA
BRANCH  11  12
ATOM     12  C   UNL     1       4.761   4.245  16.055  0.00  0.00    +0.000 C 
BRANCH  12  13
ATOM     13  C   UNL     1       5.854   4.782  15.108  0.00  0.00    +0.000 C 
ATOM     14  C   UNL     1       7.231   4.774  15.765  0.00  0.00    +0.000 C 
ATOM     15  C   UNL     1       5.874   3.951  13.820  0.00  0.00    +0.000 C 
ENDBRANCH  12  13
ENDBRANCH  11  12
ENDBRANCH   8  11
ENDBRANCH   6   7
BRANCH   3  16
ATOM     16  S   UNL     1       0.500   9.577  21.070  0.00  0.00    +0.000 S 
ATOM     17  O   UNL     1      -0.814   9.019  21.287  0.00  0.00    +0.000 OA
ATOM     18  O   UNL     1       1.316  10.016  22.191  0.00  0.00    +0.000 OA
BRANCH  16  19
ATOM     19  N   UNL     1       0.439  10.837  19.986  0.00  0.00    +0.000 N 
ATOM     20  C   UNL     1       1.284  12.036  20.171  0.00  0.00    +0.000 C 
ATOM     21  C   UNL     1       1.206  12.642  18.749  0.00  0.00    +0.000 C 
ATOM     22  N   UNL     1      -0.027  12.108  18.216  0.00  0.00    +0.000 N 
ATOM     23  C   UNL     1      -0.350  10.928  18.835  0.00  0.00    +0.000 C 
ATOM     24  O   UNL     1      -1.139  10.110  18.402  0.00  0.00    +0.000 OA
ATOM     25  H   UNL     1      -0.364  12.283  17.279  0.00  0.00    +0.000 HD
BRANCH  21  26
ATOM     26  C   UNL     1       1.282  14.139  18.639  0.00  0.00    +0.000 A 
ATOM     27  C   UNL     1       2.502  14.755  18.311  0.00  0.00    +0.000 A 
ATOM     28  C   UNL     1       2.590  16.143  18.188  0.00  0.00    +0.000 A 
ATOM     29  C   UNL     1       1.462  16.934  18.388  0.00  0.00    +0.000 A 
ATOM     30  C   UNL     1       0.243  16.338  18.708  0.00  0.00    +0.000 A 
ATOM     31  C   UNL     1       0.152  14.951  18.831  0.00  0.00    +0.000 A 
ENDBRANCH  21  26
ENDBRANCH  16  19
ENDBRANCH   3  16
BRANCH   1  33
ATOM     32  C   UNL     1       1.012   3.909  20.412  0.00  0.00    +0.000 C 
ATOM     33  C   UNL     1       2.251   4.702  20.813  0.00  0.00    +0.000 C 
ENDBRANCH   1  33
TORSDOF 8
ENDMDL
MODEL 5
REMARK VINA RESULT:      -8.1      1.297      1.802
REMARK  Name = 
REMARK  11 active torsions:
REMARK  status: ('A' for Active; 'I' for Inactive)
REMARK    1  A    between atoms: C_1  and  C_2
REMARK    2  A    between atoms: C_2  and  C_3
REMARK    3  A    between atoms: C_5  and  S_6
REMARK    4  A    between atoms: S_6  and  N_9
REMARK    5  A    between atoms: C_11  and  C_12
REMARK    6  A    between atoms: C_23  and  N_24
REMARK    7  A    between atoms: C_25  and  O_27
REMARK    8  A    between atoms: O_27  and  C_28
REMARK    9  A    between atoms: C_28  and  C_29
REMARK   10  A    between atoms: C_29  and  C_30
REMARK   11  A    between atoms: C_29  and  C_31
REMARK                            x       y       z     vdW  Elec       q    Type
REMARK                         _______ _______ _______ _____ _____    ______ ____
ROOT
ATOM      1  C   UNL     1       2.329   7.607  19.048  0.00  0.00    +0.000 A 
ATOM      2  C   UNL     1       2.882   6.350  18.702  0.00  0.00    +0.000 A 
ATOM      3  C   UNL     1       2.663   5.218  19.485  0.00  0.00    +0.000 A 
ATOM      4  C   UNL     1       1.957   5.333  20.675  0.00  0.00    +0.000 A 
ATOM      5  C   UNL     1       1.423   6.573  21.035  0.00  0.00    +0.000 A 
ATOM      6  C   UNL     1       1.559   7.719  20.224  0.00  0.00    +0.000 A 
ENDROOT
BRANCH   6   7
ATOM      7  N   UNL     1       0.926   8.934  20.602  0.00  0.00    +0.000 N 
ATOM      8  C   UNL     1       1.200   9.625  21.768  0.00  0.00    +0.000 C 
ATOM      9  O   UNL     1       1.985   9.275  22.642  0.00  0.00    +0.000 OA
ATOM     10  H   UNL     1       0.104   9.247  20.106  0.00  0.00    +0.000 HD
BRANCH   8  11
ATOM     11  O   UNL     1       0.382  10.704  21.915  0.00  0.00    +0.000 OA
BRANCH  11  12
ATOM     12  C   UNL     1       0.797  11.853  21.141  0.00  0.00    +0.000 C 
BRANCH  12  13
ATOM     13  C   UNL     1      -0.275  12.493  20.235  0.00  0.00    +0.000 C 
ATOM     14  C   UNL     1       0.303  12.940  18.896  0.00  0.00    +0.000 C 
ATOM     15  C   UNL     1      -1.423  11.501  20.014  0.00  0.00    +0.000 C 
ENDBRANCH  12  13
ENDBRANCH  11  12
ENDBRANCH   8  11
ENDBRANCH   6   7
BRANCH   3  16
ATOM     16  S   UNL     1       3.337   3.658  18.950  0.00  0.00    +0.000 S 
ATOM     17  O   UNL     1       3.892   3.030  20.125  0.00  0.00    +0.000 OA
ATOM     18  O   UNL     1       2.306   2.994  18.168  0.00  0.00    +0.000 OA
BRANCH  16  19
ATOM     19  N   UNL     1       4.538   4.110  17.893  0.00  0.00    +0.000 N 
ATOM     20  C   UNL     1       4.314   4.072  16.432  0.00  0.00    +0.000 C 
ATOM     21  C   UNL     1       5.481   4.971  15.958  0.00  0.00    +0.000 C 
ATOM     22  N   UNL     1       6.444   4.878  17.032  0.00  0.00    +0.000 N 
ATOM     23  C   UNL     1       5.822   4.561  18.212  0.00  0.00    +0.000 C 
ATOM     24  O   UNL     1       6.310   4.713  19.315  0.00  0.00    +0.000 OA
ATOM     25  H   UNL     1       7.321   5.382  17.054  0.00  0.00    +0.000 HD
BRANCH  21  26
ATOM     26  C   UNL     1       6.081   4.661  14.615  0.00  0.00    +0.000 A 
ATOM     27  C   UNL     1       5.436   3.759  13.752  0.00  0.00    +0.000 A 
ATOM     28  C   UNL     1       5.968   3.469  12.494  0.00  0.00    +0.000 A 
ATOM     29  C   UNL     1       7.150   4.077  12.081  0.00  0.00    +0.000 A 
ATOM     30  C   UNL     1       7.800   4.979  12.922  0.00  0.00    +0.000 A 
ATOM     31  C   UNL     1       7.269   5.270  14.180  0.00  0.00    +0.000 A 
ENDBRANCH  21  26
ENDBRANCH  16  19
ENDBRANCH   3  16
BRANCH   1  33
ATOM     32  C   UNL     1       1.202   9.314  17.604  0.00  0.00    +0.000 C 
ATOM     33  C   UNL     1       2.533   8.697  18.020  0.00  0.00    +0.000 C 
ENDBRANCH   1  33
TORSDOF 8
ENDMDL
MODEL 6
REMARK VINA RESULT:      -8.1      3.080      9.718
REMARK  Name = 
REMARK  11 active torsions:
REMARK  status: ('A' for Active; 'I' for Inactive)
REMARK    1  A    between atoms: C_1  and  C_2
REMARK    2  A    between atoms: C_2  and  C_3
REMARK    3  A    between atoms: C_5  and  S_6
REMARK    4  A    between atoms: S_6  and  N_9
REMARK    5  A    between atoms: C_11  and  C_12
REMARK    6  A    between atoms: C_23  and  N_24
REMARK    7  A    between atoms: C_25  and  O_27
REMARK    8  A    between atoms: O_27  and  C_28
REMARK    9  A    between atoms: C_28  and  C_29
REMARK   10  A    between atoms: C_29  and  C_30
REMARK   11  A    between atoms: C_29  and  C_31
REMARK                            x       y       z     vdW  Elec       q    Type
REMARK                         _______ _______ _______ _____ _____    ______ ____
ROOT
ATOM      1  C   UNL     1       2.290   5.926  19.959  0.00  0.00    +0.000 A 
ATOM      2  C   UNL     1       1.680   6.959  20.710  0.00  0.00    +0.000 A 
ATOM      3  C   UNL     1       1.465   8.225  20.167  0.00  0.00    +0.000 A 
ATOM      4  C   UNL     1       1.930   8.511  18.891  0.00  0.00    +0.000 A 
ATOM      5  C   UNL     1       2.550   7.503  18.148  0.00  0.00    +0.000 A 
ATOM      6  C   UNL     1       2.710   6.191  18.640  0.00  0.00    +0.000 A 
ENDROOT
BRANCH   6   7
ATOM      7  N   UNL     1       3.277   5.187  17.808  0.00  0.00    +0.000 N 
ATOM      8  C   UNL     1       4.634   5.031  17.590  0.00  0.00    +0.000 C 
ATOM      9  O   UNL     1       5.520   5.744  18.043  0.00  0.00    +0.000 OA
ATOM     10  H   UNL     1       2.683   4.654  17.190  0.00  0.00    +0.000 HD
BRANCH   8  11
ATOM     11  O   UNL     1       4.884   4.048  16.680  0.00  0.00    +0.000 OA
BRANCH  11  12
ATOM     12  C   UNL     1       5.037   4.539  15.328  0.00  0.00    +0.000 C 
BRANCH  12  13
ATOM     13  C   UNL     1       6.216   3.961  14.518  0.00  0.00    +0.000 C 
ATOM     14  C   UNL     1       5.812   3.618  13.088  0.00  0.00    +0.000 C 
ATOM     15  C   UNL     1       7.378   4.961  14.516  0.00  0.00    +0.000 C 
ENDBRANCH  12  13
ENDBRANCH  11  12
ENDBRANCH   8  11
ENDBRANCH   6   7
BRANCH   3  16
ATOM     16  S   UNL     1       0.632   9.453  21.151  0.00  0.00    +0.000 S 
ATOM     17  O   UNL     1      -0.642   8.884  21.522  0.00  0.00    +0.000 OA
ATOM     18  O   UNL     1       1.574   9.896  22.168  0.00  0.00    +0.000 OA
BRANCH  16  19
ATOM     19  N   UNL     1       0.432  10.716  20.088  0.00  0.00    +0.000 N 
ATOM     20  C   UNL     1       1.255  11.939  20.202  0.00  0.00    +0.000 C 
ATOM     21  C   UNL     1       1.025  12.550  18.798  0.00  0.00    +0.000 C 
ATOM     22  N   UNL     1      -0.237  11.981  18.380  0.00  0.00    +0.000 N 
ATOM     23  C   UNL     1      -0.464  10.789  19.017  0.00  0.00    +0.000 C 
ATOM     24  O   UNL     1      -1.266   9.950  18.654  0.00  0.00    +0.000 OA
ATOM     25  H   UNL     1      -0.665  12.151  17.480  0.00  0.00    +0.000 HD
BRANCH  21  26
ATOM     26  C   UNL     1       1.046  14.049  18.693  0.00  0.00    +0.000 A 
ATOM     27  C   UNL     1      -0.155  14.773  18.782  0.00  0.00    +0.000 A 
ATOM     28  C   UNL     1      -0.156  16.167  18.703  0.00  0.00    +0.000 A 
ATOM     29  C   UNL     1       1.042  16.856  18.537  0.00  0.00    +0.000 A 
ATOM     30  C   UNL     1       2.243  16.154  18.453  0.00  0.00    +0.000 A 
ATOM     31  C   UNL     1       2.246  14.761  18.532  0.00  0.00    +0.000 A 
ENDBRANCH  21  26
ENDBRANCH  16  19
ENDBRANCH   3  16
BRANCH   1  33
ATOM     32  C   UNL     1       0.987   3.846  20.454  0.00  0.00    +0.000 C 
ATOM     33  C   UNL     1       2.315   4.575  20.637  0.00  0.00    +0.000 C 
ENDBRANCH   1  33
TORSDOF 8
ENDMDL
MODEL 7
REMARK VINA RESULT:      -8.0      1.206      1.511
REMARK  Name = 
REMARK  11 active torsions:
REMARK  status: ('A' for Active; 'I' for Inactive)
REMARK    1  A    between atoms: C_1  and  C_2
REMARK    2  A    between atoms: C_2  and  C_3
REMARK    3  A    between atoms: C_5  and  S_6
REMARK    4  A    between atoms: S_6  and  N_9
REMARK    5  A    between atoms: C_11  and  C_12
REMARK    6  A    between atoms: C_23  and  N_24
REMARK    7  A    between atoms: C_25  and  O_27
REMARK    8  A    between atoms: O_27  and  C_28
REMARK    9  A    between atoms: C_28  and  C_29
REMARK   10  A    between atoms: C_29  and  C_30
REMARK   11  A    between atoms: C_29  and  C_31
REMARK                            x       y       z     vdW  Elec       q    Type
REMARK                         _______ _______ _______ _____ _____    ______ ____
ROOT
ATOM      1  C   UNL     1       2.448   6.863  19.307  0.00  0.00    +0.000 A 
ATOM      2  C   UNL     1       3.254   5.754  18.953  0.00  0.00    +0.000 A 
ATOM      3  C   UNL     1       3.179   4.548  19.648  0.00  0.00    +0.000 A 
ATOM      4  C   UNL     1       2.359   4.449  20.763  0.00  0.00    +0.000 A 
ATOM      5  C   UNL     1       1.572   5.544  21.132  0.00  0.00    +0.000 A 
ATOM      6  C   UNL     1       1.567   6.750  20.401  0.00  0.00    +0.000 A 
ENDROOT
BRANCH   6   7
ATOM      7  N   UNL     1       0.686   7.802  20.777  0.00  0.00    +0.000 N 
ATOM      8  C   UNL     1       0.981   8.761  21.728  0.00  0.00    +0.000 C 
ATOM      9  O   UNL     1       2.006   8.819  22.396  0.00  0.00    +0.000 OA
ATOM     10  H   UNL     1      -0.279   7.776  20.484  0.00  0.00    +0.000 HD
BRANCH   8  11
ATOM     11  O   UNL     1      -0.079   9.588  21.950  0.00  0.00    +0.000 OA
BRANCH  11  12
ATOM     12  C   UNL     1      -0.291  10.551  20.891  0.00  0.00    +0.000 C 
BRANCH  12  13
ATOM     13  C   UNL     1      -0.708  11.970  21.329  0.00  0.00    +0.000 C 
ATOM     14  C   UNL     1      -1.820  12.534  20.450  0.00  0.00    +0.000 C 
ATOM     15  C   UNL     1      -1.152  11.947  22.797  0.00  0.00    +0.000 C 
ENDBRANCH  12  13
ENDBRANCH  11  12
ENDBRANCH   8  11
ENDBRANCH   6   7
BRANCH   3  16
ATOM     16  S   UNL     1       4.177   3.177  19.103  0.00  0.00    +0.000 S 
ATOM     17  O   UNL     1       4.967   2.769  20.241  0.00  0.00    +0.000 OA
ATOM     18  O   UNL     1       3.286   2.238  18.439  0.00  0.00    +0.000 OA
BRANCH  16  19
ATOM     19  N   UNL     1       5.137   3.855  17.926  0.00  0.00    +0.000 N 
ATOM     20  C   UNL     1       4.797   3.708  16.494  0.00  0.00    +0.000 C 
ATOM     21  C   UNL     1       5.670   4.835  15.893  0.00  0.00    +0.000 C 
ATOM     22  N   UNL     1       6.721   5.012  16.870  0.00  0.00    +0.000 N 
ATOM     23  C   UNL     1       6.302   4.606  18.110  0.00  0.00    +0.000 C 
ATOM     24  O   UNL     1       6.837   4.912  19.158  0.00  0.00    +0.000 OA
ATOM     25  H   UNL     1       7.452   5.708  16.797  0.00  0.00    +0.000 HD
BRANCH  21  26
ATOM     26  C   UNL     1       6.202   4.621  14.504  0.00  0.00    +0.000 A 
ATOM     27  C   UNL     1       7.340   5.326  14.075  0.00  0.00    +0.000 A 
ATOM     28  C   UNL     1       7.860   5.129  12.795  0.00  0.00    +0.000 A 
ATOM     29  C   UNL     1       7.254   4.226  11.927  0.00  0.00    +0.000 A 
ATOM     30  C   UNL     1       6.128   3.514  12.338  0.00  0.00    +0.000 A 
ATOM     31  C   UNL     1       5.606   3.708  13.618  0.00  0.00    +0.000 A 
ENDBRANCH  21  26
ENDBRANCH  16  19
ENDBRANCH   3  16
BRANCH   1  33
ATOM     32  C   UNL     1       3.549   7.779  17.253  0.00  0.00    +0.000 C 
ATOM     33  C   UNL     1       2.539   8.042  18.365  0.00  0.00    +0.000 C 
ENDBRANCH   1  33
TORSDOF 8
ENDMDL
MODEL 8
REMARK VINA RESULT:      -8.0      1.351      1.668
REMARK  Name = 
REMARK  11 active torsions:
REMARK  status: ('A' for Active; 'I' for Inactive)
REMARK    1  A    between atoms: C_1  and  C_2
REMARK    2  A    between atoms: C_2  and  C_3
REMARK    3  A    between atoms: C_5  and  S_6
REMARK    4  A    between atoms: S_6  and  N_9
REMARK    5  A    between atoms: C_11  and  C_12
REMARK    6  A    between atoms: C_23  and  N_24
REMARK    7  A    between atoms: C_25  and  O_27
REMARK    8  A    between atoms: O_27  and  C_28
REMARK    9  A    between atoms: C_28  and  C_29
REMARK   10  A    between atoms: C_29  and  C_30
REMARK   11  A    between atoms: C_29  and  C_31
REMARK                            x       y       z     vdW  Elec       q    Type
REMARK                         _______ _______ _______ _____ _____    ______ ____
ROOT
ATOM      1  C   UNL     1       2.338   7.444  19.213  0.00  0.00    +0.000 A 
ATOM      2  C   UNL     1       2.941   6.217  18.846  0.00  0.00    +0.000 A 
ATOM      3  C   UNL     1       2.724   5.051  19.579  0.00  0.00    +0.000 A 
ATOM      4  C   UNL     1       1.967   5.103  20.741  0.00  0.00    +0.000 A 
ATOM      5  C   UNL     1       1.381   6.314  21.122  0.00  0.00    +0.000 A 
ATOM      6  C   UNL     1       1.517   7.491  20.358  0.00  0.00    +0.000 A 
ENDROOT
BRANCH   6   7
ATOM      7  N   UNL     1       0.833   8.674  20.752  0.00  0.00    +0.000 N 
ATOM      8  C   UNL     1       1.216   9.479  21.809  0.00  0.00    +0.000 C 
ATOM      9  O   UNL     1       2.158   9.273  22.564  0.00  0.00    +0.000 OA
ATOM     10  H   UNL     1      -0.083   8.872  20.377  0.00  0.00    +0.000 HD
BRANCH   8  11
ATOM     11  O   UNL     1       0.328  10.492  22.014  0.00  0.00    +0.000 OA
BRANCH  11  12
ATOM     12  C   UNL     1       0.681  11.717  21.332  0.00  0.00    +0.000 C 
BRANCH  12  13
ATOM     13  C   UNL     1       0.749  11.650  19.792  0.00  0.00    +0.000 C 
ATOM     14  C   UNL     1      -0.582  12.025  19.147  0.00  0.00    +0.000 C 
ATOM     15  C   UNL     1       1.864  12.572  19.285  0.00  0.00    +0.000 C 
ENDBRANCH  12  13
ENDBRANCH  11  12
ENDBRANCH   8  11
ENDBRANCH   6   7
BRANCH   3  16
ATOM     16  S   UNL     1       3.464   3.531  19.018  0.00  0.00    +0.000 S 
ATOM     17  O   UNL     1       4.096   2.936  20.172  0.00  0.00    +0.000 OA
ATOM     18  O   UNL     1       2.445   2.810  18.272  0.00  0.00    +0.000 OA
BRANCH  16  19
ATOM     19  N   UNL     1       4.600   4.049  17.920  0.00  0.00    +0.000 N 
ATOM     20  C   UNL     1       4.341   3.967  16.466  0.00  0.00    +0.000 C 
ATOM     21  C   UNL     1       5.425   4.940  15.944  0.00  0.00    +0.000 C 
ATOM     22  N   UNL     1       6.421   4.937  16.992  0.00  0.00    +0.000 N 
ATOM     23  C   UNL     1       5.856   4.598  18.194  0.00  0.00    +0.000 C 
ATOM     24  O   UNL     1       6.361   4.807  19.281  0.00  0.00    +0.000 OA
ATOM     25  H   UNL     1       7.259   5.504  16.980  0.00  0.00    +0.000 HD
BRANCH  21  26
ATOM     26  C   UNL     1       6.010   4.649  14.591  0.00  0.00    +0.000 A 
ATOM     27  C   UNL     1       7.230   5.236  14.215  0.00  0.00    +0.000 A 
ATOM     28  C   UNL     1       7.799   4.966  12.970  0.00  0.00    +0.000 A 
ATOM     29  C   UNL     1       7.159   4.105  12.083  0.00  0.00    +0.000 A 
ATOM     30  C   UNL     1       5.951   3.509  12.441  0.00  0.00    +0.000 A 
ATOM     31  C   UNL     1       5.380   3.778  13.687  0.00  0.00    +0.000 A 
ENDBRANCH  21  26
ENDBRANCH  16  19
ENDBRANCH   3  16
BRANCH   1  33
ATOM     32  C   UNL     1       1.256   8.924  17.507  0.00  0.00    +0.000 C 
ATOM     33  C   UNL     1       2.552   8.576  18.233  0.00  0.00    +0.000 C 
ENDBRANCH   1  33
TORSDOF 8
ENDMDL
MODEL 9
REMARK VINA RESULT:      -7.9      2.168      9.681
REMARK  Name = 
REMARK  11 active torsions:
REMARK  status: ('A' for Active; 'I' for Inactive)
REMARK    1  A    between atoms: C_1  and  C_2
REMARK    2  A    between atoms: C_2  and  C_3
REMARK    3  A    between atoms: C_5  and  S_6
REMARK    4  A    between atoms: S_6  and  N_9
REMARK    5  A    between atoms: C_11  and  C_12
REMARK    6  A    between atoms: C_23  and  N_24
REMARK    7  A    between atoms: C_25  and  O_27
REMARK    8  A    between atoms: O_27  and  C_28
REMARK    9  A    between atoms: C_28  and  C_29
REMARK   10  A    between atoms: C_29  and  C_30
REMARK   11  A    between atoms: C_29  and  C_31
REMARK                            x       y       z     vdW  Elec       q    Type
REMARK                         _______ _______ _______ _____ _____    ______ ____
ROOT
ATOM      1  C   UNL     1       5.408   4.489  18.023  0.00  0.00    +0.000 A 
ATOM      2  C   UNL     1       4.461   4.726  19.049  0.00  0.00    +0.000 A 
ATOM      3  C   UNL     1       3.120   4.377  18.895  0.00  0.00    +0.000 A 
ATOM      4  C   UNL     1       2.679   3.860  17.685  0.00  0.00    +0.000 A 
ATOM      5  C   UNL     1       3.603   3.639  16.661  0.00  0.00    +0.000 A 
ATOM      6  C   UNL     1       4.979   3.907  16.813  0.00  0.00    +0.000 A 
ENDROOT
BRANCH   6   7
ATOM      7  N   UNL     1       5.884   3.587  15.764  0.00  0.00    +0.000 N 
ATOM      8  C   UNL     1       6.255   4.464  14.761  0.00  0.00    +0.000 C 
ATOM      9  O   UNL     1       5.837   5.606  14.616  0.00  0.00    +0.000 OA
ATOM     10  H   UNL     1       6.153   2.626  15.609  0.00  0.00    +0.000 HD
BRANCH   8  11
ATOM     11  O   UNL     1       7.061   3.861  13.842  0.00  0.00    +0.000 OA
BRANCH  11  12
ATOM     12  C   UNL     1       6.521   3.879  12.501  0.00  0.00    +0.000 C 
BRANCH  12  13
ATOM     13  C   UNL     1       5.500   2.774  12.158  0.00  0.00    +0.000 C 
ATOM     14  C   UNL     1       4.268   3.335  11.455  0.00  0.00    +0.000 C 
ATOM     15  C   UNL     1       6.170   1.706  11.286  0.00  0.00    +0.000 C 
ENDBRANCH  12  13
ENDBRANCH  11  12
ENDBRANCH   8  11
ENDBRANCH   6   7
BRANCH   3  16
ATOM     16  S   UNL     1       2.000   4.647  20.255  0.00  0.00    +0.000 S 
ATOM     17  O   UNL     1       0.791   3.927  19.936  0.00  0.00    +0.000 OA
ATOM     18  O   UNL     1       2.736   4.362  21.477  0.00  0.00    +0.000 OA
BRANCH  16  19
ATOM     19  N   UNL     1       1.744   6.289  20.211  0.00  0.00    +0.000 N 
ATOM     20  C   UNL     1       1.058   6.979  21.325  0.00  0.00    +0.000 C 
ATOM     21  C   UNL     1       1.470   8.441  21.031  0.00  0.00    +0.000 C 
ATOM     22  N   UNL     1       1.763   8.437  19.615  0.00  0.00    +0.000 N 
ATOM     23  C   UNL     1       2.118   7.179  19.199  0.00  0.00    +0.000 C 
ATOM     24  O   UNL     1       2.703   6.931  18.162  0.00  0.00    +0.000 OA
ATOM     25  H   UNL     1       2.099   9.241  19.102  0.00  0.00    +0.000 HD
BRANCH  21  26
ATOM     26  C   UNL     1       0.494   9.517  21.415  0.00  0.00    +0.000 A 
ATOM     27  C   UNL     1       0.015   9.589  22.734  0.00  0.00    +0.000 A 
ATOM     28  C   UNL     1      -0.879  10.590  23.116  0.00  0.00    +0.000 A 
ATOM     29  C   UNL     1      -1.307  11.534  22.186  0.00  0.00    +0.000 A 
ATOM     30  C   UNL     1      -0.838  11.481  20.875  0.00  0.00    +0.000 A 
ATOM     31  C   UNL     1       0.057  10.481  20.491  0.00  0.00    +0.000 A 
ENDBRANCH  21  26
ENDBRANCH  16  19
ENDBRANCH   3  16
BRANCH   1  33
ATOM     32  C   UNL     1       7.202   6.234  18.089  0.00  0.00    +0.000 C 
ATOM     33  C   UNL     1       6.842   4.785  18.400  0.00  0.00    +0.000 C 
ENDBRANCH   1  33
TORSDOF 8
ENDMDL
