MODEL 1
REMARK VINA RESULT:      -9.2      0.000      0.000
REMARK  Name = 
REMARK  5 active torsions:
REMARK  status: ('A' for Active; 'I' for Inactive)
REMARK    1  A    between atoms: C_1  and  C_2
REMARK    2  A    between atoms: C_3  and  C_4
REMARK    3  A    between atoms: N_6  and  N_7
REMARK    4  A    between atoms: C_8  and  C_9
REMARK    5  A    between atoms: C_17  and  N_18
REMARK                            x       y       z     vdW  Elec       q    Type
REMARK                         _______ _______ _______ _____ _____    ______ ____
ROOT
ATOM      1  C   UNL     1       5.664   5.539  15.914  0.00  0.00    +0.000 C 
ATOM      2  C   UNL     1       5.544   4.965  17.284  0.00  0.00    +0.000 A 
ATOM      3  C   UNL     1       6.330   5.139  18.425  0.00  0.00    +0.000 A 
ATOM      4  N   UNL     1       5.813   4.286  19.387  0.00  0.00    +0.000 N 
ATOM      5  C   UNL     1       4.709   3.603  18.930  0.00  0.00    +0.000 A 
ATOM      6  C   UNL     1       3.867   2.649  19.551  0.00  0.00    +0.000 A 
ATOM      7  C   UNL     1       2.801   2.122  18.793  0.00  0.00    +0.000 A 
ATOM      8  C   UNL     1       2.594   2.523  17.477  0.00  0.00    +0.000 A 
ATOM      9  C   UNL     1       3.443   3.458  16.883  0.00  0.00    +0.000 A 
ATOM     10  C   UNL     1       4.517   4.012  17.617  0.00  0.00    +0.000 A 
ATOM     11  H   UNL     1       6.208   4.193  20.318  0.00  0.00    +0.000 HD
ENDROOT
BRANCH   3  12
ATOM     12  C   UNL     1       7.513   5.934  18.758  0.00  0.00    +0.000 C 
ATOM     13  O   UNL     1       8.369   5.483  19.516  0.00  0.00    +0.000 OA
ATOM     14  N   UNL     1       7.548   7.219  18.234  0.00  0.00    +0.000 N 
ATOM     15  H   UNL     1       6.759   7.579  17.717  0.00  0.00    +0.000 HD
BRANCH  14  16
ATOM     16  N   UNL     1       8.593   8.061  18.530  0.00  0.00    +0.000 NA
ATOM     17  C   UNL     1       8.334   9.329  18.484  0.00  0.00    +0.000 C 
BRANCH  17  18
ATOM     18  C   UNL     1       9.366  10.355  18.757  0.00  0.00    +0.000 A 
ATOM     19  C   UNL     1      10.113  10.911  17.715  0.00  0.00    +0.000 A 
ATOM     20  C   UNL     1      11.080  11.880  17.991  0.00  0.00    +0.000 A 
ATOM     21  C   UNL     1      11.302  12.293  19.305  0.00  0.00    +0.000 A 
ATOM     22  C   UNL     1      10.557  11.740  20.347  0.00  0.00    +0.000 A 
ATOM     23  C   UNL     1       9.585  10.771  20.076  0.00  0.00    +0.000 A 
ENDBRANCH  17  18
ENDBRANCH  14  16
ENDBRANCH   3  12
BRANCH   6  24
ATOM     24  N   UNL     1       4.043   2.177  20.927  0.00  0.00    +0.000 N 
ATOM     25  O   UNL     1       3.103   2.365  21.716  0.00  0.00    +0.000 OA
ATOM     26  O   UNL     1       5.108   1.618  21.227  0.00  0.00    +0.000 OA
ENDBRANCH   6  24
TORSDOF 4
ENDMDL
MODEL 2
REMARK VINA RESULT:      -9.1      0.173      1.185
REMARK  Name = 
REMARK  5 active torsions:
REMARK  status: ('A' for Active; 'I' for Inactive)
REMARK    1  A    between atoms: C_1  and  C_2
REMARK    2  A    between atoms: C_3  and  C_4
REMARK    3  A    between atoms: N_6  and  N_7
REMARK    4  A    between atoms: C_8  and  C_9
REMARK    5  A    between atoms: C_17  and  N_18
REMARK                            x       y       z     vdW  Elec       q    Type
REMARK                         _______ _______ _______ _____ _____    ______ ____
ROOT
ATOM      1  C   UNL     1       5.613   5.412  15.920  0.00  0.00    +0.000 C 
ATOM      2  C   UNL     1       5.456   4.895  17.309  0.00  0.00    +0.000 A 
ATOM      3  C   UNL     1       6.223   5.102  18.457  0.00  0.00    +0.000 A 
ATOM      4  N   UNL     1       5.673   4.296  19.442  0.00  0.00    +0.000 N 
ATOM      5  C   UNL     1       4.567   3.614  18.990  0.00  0.00    +0.000 A 
ATOM      6  C   UNL     1       3.697   2.699  19.631  0.00  0.00    +0.000 A 
ATOM      7  C   UNL     1       2.636   2.159  18.873  0.00  0.00    +0.000 A 
ATOM      8  C   UNL     1       2.462   2.511  17.539  0.00  0.00    +0.000 A 
ATOM      9  C   UNL     1       3.338   3.408  16.926  0.00  0.00    +0.000 A 
ATOM     10  C   UNL     1       4.407   3.973  17.659  0.00  0.00    +0.000 A 
ATOM     11  H   UNL     1       6.048   4.235  20.384  0.00  0.00    +0.000 HD
ENDROOT
BRANCH   3  12
ATOM     12  C   UNL     1       7.413   5.890  18.782  0.00  0.00    +0.000 C 
ATOM     13  O   UNL     1       8.269   5.436  19.537  0.00  0.00    +0.000 OA
ATOM     14  N   UNL     1       7.454   7.173  18.253  0.00  0.00    +0.000 N 
ATOM     15  H   UNL     1       6.665   7.536  17.739  0.00  0.00    +0.000 HD
BRANCH  14  16
ATOM     16  N   UNL     1       8.506   8.009  18.542  0.00  0.00    +0.000 NA
ATOM     17  C   UNL     1       8.284   9.276  18.393  0.00  0.00    +0.000 C 
BRANCH  17  18
ATOM     18  C   UNL     1       9.329  10.295  18.645  0.00  0.00    +0.000 A 
ATOM     19  C   UNL     1       9.646  10.684  19.949  0.00  0.00    +0.000 A 
ATOM     20  C   UNL     1      10.636  11.644  20.169  0.00  0.00    +0.000 A 
ATOM     21  C   UNL     1      11.309  12.215  19.088  0.00  0.00    +0.000 A 
ATOM     22  C   UNL     1      10.995  11.827  17.785  0.00  0.00    +0.000 A 
ATOM     23  C   UNL     1      10.006  10.864  17.560  0.00  0.00    +0.000 A 
ENDBRANCH  17  18
ENDBRANCH  14  16
ENDBRANCH   3  12
BRANCH   6  24
ATOM     24  N   UNL     1       3.838   2.280  21.029  0.00  0.00    +0.000 N 
ATOM     25  O   UNL     1       4.913   1.753  21.358  0.00  0.00    +0.000 OA
ATOM     26  O   UNL     1       2.887   2.475  21.800  0.00  0.00    +0.000 OA
ENDBRANCH   6  24
TORSDOF 4
ENDMDL
MODEL 3
REMARK VINA RESULT:      -8.5      1.805      2.004
REMARK  Name = 
REMARK  5 active torsions:
REMARK  status: ('A' for Active; 'I' for Inactive)
REMARK    1  A    between atoms: C_1  and  C_2
REMARK    2  A    between atoms: C_3  and  C_4
REMARK    3  A    between atoms: N_6  and  N_7
REMARK    4  A    between atoms: C_8  and  C_9
REMARK    5  A    between atoms: C_17  and  N_18
REMARK                            x       y       z     vdW  Elec       q    Type
REMARK                         _______ _______ _______ _____ _____    ______ ____
ROOT
ATOM      1  C   UNL     1       6.623   4.231  15.841  0.00  0.00    +0.000 C 
ATOM      2  C   UNL     1       5.829   4.898  16.911  0.00  0.00    +0.000 A 
ATOM      3  C   UNL     1       6.159   5.931  17.791  0.00  0.00    +0.000 A 
ATOM      4  N   UNL     1       5.073   6.081  18.639  0.00  0.00    +0.000 N 
ATOM      5  C   UNL     1       4.047   5.222  18.318  0.00  0.00    +0.000 A 
ATOM      6  C   UNL     1       2.767   5.026  18.891  0.00  0.00    +0.000 A 
ATOM      7  C   UNL     1       1.936   4.040  18.321  0.00  0.00    +0.000 A 
ATOM      8  C   UNL     1       2.368   3.282  17.237  0.00  0.00    +0.000 A 
ATOM      9  C   UNL     1       3.637   3.487  16.695  0.00  0.00    +0.000 A 
ATOM     10  C   UNL     1       4.493   4.472  17.238  0.00  0.00    +0.000 A 
ATOM     11  H   UNL     1       5.048   6.757  19.397  0.00  0.00    +0.000 HD
ENDROOT
BRANCH   3  12
ATOM     12  C   UNL     1       7.337   6.773  18.007  0.00  0.00    +0.000 C 
ATOM     13  O   UNL     1       8.169   6.467  18.859  0.00  0.00    +0.000 OA
ATOM     14  N   UNL     1       7.393   7.941  17.260  0.00  0.00    +0.000 N 
ATOM     15  H   UNL     1       6.620   8.201  16.664  0.00  0.00    +0.000 HD
BRANCH  14  16
ATOM     16  N   UNL     1       8.433   8.823  17.428  0.00  0.00    +0.000 NA
ATOM     17  C   UNL     1       8.407   9.536  18.508  0.00  0.00    +0.000 C 
BRANCH  17  18
ATOM     18  C   UNL     1       9.448  10.543  18.814  0.00  0.00    +0.000 A 
ATOM     19  C   UNL     1      10.218  11.106  17.793  0.00  0.00    +0.000 A 
ATOM     20  C   UNL     1      11.194  12.057  18.099  0.00  0.00    +0.000 A 
ATOM     21  C   UNL     1      11.402  12.445  19.423  0.00  0.00    +0.000 A 
ATOM     22  C   UNL     1      10.634  11.885  20.444  0.00  0.00    +0.000 A 
ATOM     23  C   UNL     1       9.653  10.934  20.143  0.00  0.00    +0.000 A 
ENDBRANCH  17  18
ENDBRANCH  14  16
ENDBRANCH   3  12
BRANCH   6  24
ATOM     24  N   UNL     1       2.262   5.783  20.040  0.00  0.00    +0.000 N 
ATOM     25  O   UNL     1       2.182   7.016  19.917  0.00  0.00    +0.000 OA
ATOM     26  O   UNL     1       1.943   5.158  21.062  0.00  0.00    +0.000 OA
ENDBRANCH   6  24
TORSDOF 4
ENDMDL
MODEL 4
REMARK VINA RESULT:      -8.5      5.495      7.352
REMARK  Name = 
REMARK  5 active torsions:
REMARK  status: ('A' for Active; 'I' for Inactive)
REMARK    1  A    between atoms: C_1  and  C_2
REMARK    2  A    between atoms: C_3  and  C_4
REMARK    3  A    between atoms: N_6  and  N_7
REMARK    4  A    between atoms: C_8  and  C_9
REMARK    5  A    between atoms: C_17  and  N_18
REMARK                            x       y       z     vdW  Elec       q    Type
REMARK                         _______ _______ _______ _____ _____    ______ ____
ROOT
ATOM      1  C   UNL     1       1.981   3.676  17.528  0.00  0.00    +0.000 C 
ATOM      2  C   UNL     1       3.158   4.528  17.860  0.00  0.00    +0.000 A 
ATOM      3  C   UNL     1       3.323   5.534  18.813  0.00  0.00    +0.000 A 
ATOM      4  N   UNL     1       4.592   6.055  18.612  0.00  0.00    +0.000 N 
ATOM      5  C   UNL     1       5.261   5.404  17.601  0.00  0.00    +0.000 A 
ATOM      6  C   UNL     1       6.557   5.586  17.059  0.00  0.00    +0.000 A 
ATOM      7  C   UNL     1       6.950   4.741  16.000  0.00  0.00    +0.000 A 
ATOM      8  C   UNL     1       6.086   3.769  15.504  0.00  0.00    +0.000 A 
ATOM      9  C   UNL     1       4.811   3.616  16.048  0.00  0.00    +0.000 A 
ATOM     10  C   UNL     1       4.388   4.441  17.115  0.00  0.00    +0.000 A 
ATOM     11  H   UNL     1       4.972   6.821  19.160  0.00  0.00    +0.000 HD
ENDROOT
BRANCH   3  12
ATOM     12  C   UNL     1       2.481   6.125  19.854  0.00  0.00    +0.000 C 
ATOM     13  O   UNL     1       1.964   5.413  20.711  0.00  0.00    +0.000 OA
ATOM     14  N   UNL     1       2.257   7.491  19.749  0.00  0.00    +0.000 N 
ATOM     15  H   UNL     1       2.609   8.005  18.954  0.00  0.00    +0.000 HD
BRANCH  14  16
ATOM     16  N   UNL     1       1.439   8.131  20.649  0.00  0.00    +0.000 NA
ATOM     17  C   UNL     1       0.929   9.255  20.257  0.00  0.00    +0.000 C 
BRANCH  17  18
ATOM     18  C   UNL     1       0.047  10.067  21.127  0.00  0.00    +0.000 A 
ATOM     19  C   UNL     1      -0.558  11.230  20.642  0.00  0.00    +0.000 A 
ATOM     20  C   UNL     1      -1.389  11.982  21.475  0.00  0.00    +0.000 A 
ATOM     21  C   UNL     1      -1.616  11.574  22.790  0.00  0.00    +0.000 A 
ATOM     22  C   UNL     1      -1.014  10.412  23.276  0.00  0.00    +0.000 A 
ATOM     23  C   UNL     1      -0.183   9.654  22.445  0.00  0.00    +0.000 A 
ENDBRANCH  17  18
ENDBRANCH  14  16
ENDBRANCH   3  12
BRANCH   6  24
ATOM     24  N   UNL     1       7.505   6.599  17.530  0.00  0.00    +0.000 N 
ATOM     25  O   UNL     1       7.893   7.441  16.704  0.00  0.00    +0.000 OA
ATOM     26  O   UNL     1       7.862   6.565  18.717  0.00  0.00    +0.000 OA
ENDBRANCH   6  24
TORSDOF 4
ENDMDL
MODEL 5
REMARK VINA RESULT:      -8.5      5.522      7.434
REMARK  Name = 
REMARK  5 active torsions:
REMARK  status: ('A' for Active; 'I' for Inactive)
REMARK    1  A    between atoms: C_1  and  C_2
REMARK    2  A    between atoms: C_3  and  C_4
REMARK    3  A    between atoms: N_6  and  N_7
REMARK    4  A    between atoms: C_8  and  C_9
REMARK    5  A    between atoms: C_17  and  N_18
REMARK                            x       y       z     vdW  Elec       q    Type
REMARK                         _______ _______ _______ _____ _____    ______ ____
ROOT
ATOM      1  C   UNL     1       2.073   3.660  17.493  0.00  0.00    +0.000 C 
ATOM      2  C   UNL     1       3.204   4.555  17.867  0.00  0.00    +0.000 A 
ATOM      3  C   UNL     1       3.293   5.569  18.823  0.00  0.00    +0.000 A 
ATOM      4  N   UNL     1       4.549   6.137  18.669  0.00  0.00    +0.000 N 
ATOM      5  C   UNL     1       5.281   5.509  17.689  0.00  0.00    +0.000 A 
ATOM      6  C   UNL     1       6.590   5.737  17.198  0.00  0.00    +0.000 A 
ATOM      7  C   UNL     1       7.056   4.904  16.159  0.00  0.00    +0.000 A 
ATOM      8  C   UNL     1       6.249   3.900  15.633  0.00  0.00    +0.000 A 
ATOM      9  C   UNL     1       4.960   3.701  16.127  0.00  0.00    +0.000 A 
ATOM     10  C   UNL     1       4.464   4.513  17.172  0.00  0.00    +0.000 A 
ATOM     11  H   UNL     1       4.878   6.919  19.229  0.00  0.00    +0.000 HD
ENDROOT
BRANCH   3  12
ATOM     12  C   UNL     1       2.389   6.132  19.827  0.00  0.00    +0.000 C 
ATOM     13  O   UNL     1       1.702   5.391  20.526  0.00  0.00    +0.000 OA
ATOM     14  N   UNL     1       2.313   7.518  19.866  0.00  0.00    +0.000 N 
ATOM     15  H   UNL     1       2.809   8.073  19.185  0.00  0.00    +0.000 HD
BRANCH  14  16
ATOM     16  N   UNL     1       1.455   8.140  20.740  0.00  0.00    +0.000 NA
ATOM     17  C   UNL     1       0.966   9.274  20.349  0.00  0.00    +0.000 C 
BRANCH  17  18
ATOM     18  C   UNL     1       0.046  10.070  21.193  0.00  0.00    +0.000 A 
ATOM     19  C   UNL     1      -0.189   9.714  22.523  0.00  0.00    +0.000 A 
ATOM     20  C   UNL     1      -1.058  10.478  23.306  0.00  0.00    +0.000 A 
ATOM     21  C   UNL     1      -1.692  11.595  22.760  0.00  0.00    +0.000 A 
ATOM     22  C   UNL     1      -1.458  11.952  21.432  0.00  0.00    +0.000 A 
ATOM     23  C   UNL     1      -0.587  11.193  20.645  0.00  0.00    +0.000 A 
ENDBRANCH  17  18
ENDBRANCH  14  16
ENDBRANCH   3  12
BRANCH   6  24
ATOM     24  N   UNL     1       7.480   6.786  17.702  0.00  0.00    +0.000 N 
ATOM     25  O   UNL     1       7.578   7.822  17.024  0.00  0.00    +0.000 OA
ATOM     26  O   UNL     1       8.079   6.588  18.769  0.00  0.00    +0.000 OA
ENDBRANCH   6  24
TORSDOF 4
ENDMDL
MODEL 6
REMARK VINA RESULT:      -8.4      0.803      1.011
REMARK  Name = 
REMARK  5 active torsions:
REMARK  status: ('A' for Active; 'I' for Inactive)
REMARK    1  A    between atoms: C_1  and  C_2
REMARK    2  A    between atoms: C_3  and  C_4
REMARK    3  A    between atoms: N_6  and  N_7
REMARK    4  A    between atoms: C_8  and  C_9
REMARK    5  A    between atoms: C_17  and  N_18
REMARK                            x       y       z     vdW  Elec       q    Type
REMARK                         _______ _______ _______ _____ _____    ______ ____
ROOT
ATOM      1  C   UNL     1       4.683   6.883  16.482  0.00  0.00    +0.000 C 
ATOM      2  C   UNL     1       4.876   5.948  17.627  0.00  0.00    +0.000 A 
ATOM      3  C   UNL     1       5.950   5.781  18.505  0.00  0.00    +0.000 A 
ATOM      4  N   UNL     1       5.628   4.700  19.310  0.00  0.00    +0.000 N 
ATOM      5  C   UNL     1       4.383   4.193  19.017  0.00  0.00    +0.000 A 
ATOM      6  C   UNL     1       3.650   3.116  19.573  0.00  0.00    +0.000 A 
ATOM      7  C   UNL     1       2.376   2.841  19.033  0.00  0.00    +0.000 A 
ATOM      8  C   UNL     1       1.867   3.600  17.984  0.00  0.00    +0.000 A 
ATOM      9  C   UNL     1       2.613   4.650  17.447  0.00  0.00    +0.000 A 
ATOM     10  C   UNL     1       3.889   4.957  17.969  0.00  0.00    +0.000 A 
ATOM     11  H   UNL     1       6.245   4.343  20.034  0.00  0.00    +0.000 HD
ENDROOT
BRANCH   3  12
ATOM     12  C   UNL     1       7.248   6.431  18.691  0.00  0.00    +0.000 C 
ATOM     13  O   UNL     1       8.106   5.908  19.399  0.00  0.00    +0.000 OA
ATOM     14  N   UNL     1       7.396   7.675  18.092  0.00  0.00    +0.000 N 
ATOM     15  H   UNL     1       6.614   8.109  17.624  0.00  0.00    +0.000 HD
BRANCH  14  16
ATOM     16  N   UNL     1       8.560   8.387  18.251  0.00  0.00    +0.000 NA
ATOM     17  C   UNL     1       8.428   9.621  18.622  0.00  0.00    +0.000 C 
BRANCH  17  18
ATOM     18  C   UNL     1       9.591  10.517  18.812  0.00  0.00    +0.000 A 
ATOM     19  C   UNL     1      10.297  11.012  17.712  0.00  0.00    +0.000 A 
ATOM     20  C   UNL     1      11.390  11.858  17.910  0.00  0.00    +0.000 A 
ATOM     21  C   UNL     1      11.779  12.209  19.203  0.00  0.00    +0.000 A 
ATOM     22  C   UNL     1      11.075  11.716  20.302  0.00  0.00    +0.000 A 
ATOM     23  C   UNL     1       9.978  10.870  20.110  0.00  0.00    +0.000 A 
ENDBRANCH  17  18
ENDBRANCH  14  16
ENDBRANCH   3  12
BRANCH   6  24
ATOM     24  N   UNL     1       4.139   2.273  20.668  0.00  0.00    +0.000 N 
ATOM     25  O   UNL     1       5.245   1.728  20.515  0.00  0.00    +0.000 OA
ATOM     26  O   UNL     1       3.433   2.153  21.679  0.00  0.00    +0.000 OA
ENDBRANCH   6  24
TORSDOF 4
ENDMDL
MODEL 7
REMARK VINA RESULT:      -8.3      1.618      2.067
REMARK  Name = 
REMARK  5 active torsions:
REMARK  status: ('A' for Active; 'I' for Inactive)
REMARK    1  A    between atoms: C_1  and  C_2
REMARK    2  A    between atoms: C_3  and  C_4
REMARK    3  A    between atoms: N_6  and  N_7
REMARK    4  A    between atoms: C_8  and  C_9
REMARK    5  A    between atoms: C_17  and  N_18
REMARK                            x       y       z     vdW  Elec       q    Type
REMARK                         _______ _______ _______ _____ _____    ______ ____
ROOT
ATOM      1  C   UNL     1       6.574   4.255  15.871  0.00  0.00    +0.000 C 
ATOM      2  C   UNL     1       5.815   4.815  17.025  0.00  0.00    +0.000 A 
ATOM      3  C   UNL     1       6.195   5.711  18.026  0.00  0.00    +0.000 A 
ATOM      4  N   UNL     1       5.120   5.800  18.896  0.00  0.00    +0.000 N 
ATOM      5  C   UNL     1       4.055   5.036  18.478  0.00  0.00    +0.000 A 
ATOM      6  C   UNL     1       2.770   4.826  19.034  0.00  0.00    +0.000 A 
ATOM      7  C   UNL     1       1.892   3.958  18.351  0.00  0.00    +0.000 A 
ATOM      8  C   UNL     1       2.285   3.326  17.175  0.00  0.00    +0.000 A 
ATOM      9  C   UNL     1       3.561   3.542  16.652  0.00  0.00    +0.000 A 
ATOM     10  C   UNL     1       4.462   4.411  17.307  0.00  0.00    +0.000 A 
ATOM     11  H   UNL     1       5.128   6.375  19.734  0.00  0.00    +0.000 HD
ENDROOT
BRANCH   3  12
ATOM     12  C   UNL     1       7.411   6.465  18.336  0.00  0.00    +0.000 C 
ATOM     13  O   UNL     1       8.211   6.036  19.165  0.00  0.00    +0.000 OA
ATOM     14  N   UNL     1       7.539   7.695  17.705  0.00  0.00    +0.000 N 
ATOM     15  H   UNL     1       6.792   8.050  17.127  0.00  0.00    +0.000 HD
BRANCH  14  16
ATOM     16  N   UNL     1       8.621   8.500  17.970  0.00  0.00    +0.000 NA
ATOM     17  C   UNL     1       8.360   9.640  18.526  0.00  0.00    +0.000 C 
BRANCH  17  18
ATOM     18  C   UNL     1       9.421  10.621  18.850  0.00  0.00    +0.000 A 
ATOM     19  C   UNL     1       9.678  10.983  20.175  0.00  0.00    +0.000 A 
ATOM     20  C   UNL     1      10.684  11.907  20.462  0.00  0.00    +0.000 A 
ATOM     21  C   UNL     1      11.432  12.471  19.428  0.00  0.00    +0.000 A 
ATOM     22  C   UNL     1      11.178  12.111  18.104  0.00  0.00    +0.000 A 
ATOM     23  C   UNL     1      10.173  11.183  17.811  0.00  0.00    +0.000 A 
ENDBRANCH  17  18
ENDBRANCH  14  16
ENDBRANCH   3  12
BRANCH   6  24
ATOM     24  N   UNL     1       2.304   5.452  20.275  0.00  0.00    +0.000 N 
ATOM     25  O   UNL     1       2.070   4.702  21.236  0.00  0.00    +0.000 OA
ATOM     26  O   UNL     1       2.173   6.684  20.299  0.00  0.00    +0.000 OA
ENDBRANCH   6  24
TORSDOF 4
ENDMDL
MODEL 8
REMARK VINA RESULT:      -8.2      2.431      2.685
REMARK  Name = 
REMARK  5 active torsions:
REMARK  status: ('A' for Active; 'I' for Inactive)
REMARK    1  A    between atoms: C_1  and  C_2
REMARK    2  A    between atoms: C_3  and  C_4
REMARK    3  A    between atoms: N_6  and  N_7
REMARK    4  A    between atoms: C_8  and  C_9
REMARK    5  A    between atoms: C_17  and  N_18
REMARK                            x       y       z     vdW  Elec       q    Type
REMARK                         _______ _______ _______ _____ _____    ______ ____
ROOT
ATOM      1  C   UNL     1       6.281   4.006  15.889  0.00  0.00    +0.000 C 
ATOM      2  C   UNL     1       5.543   5.014  16.703  0.00  0.00    +0.000 A 
ATOM      3  C   UNL     1       5.918   6.281  17.154  0.00  0.00    +0.000 A 
ATOM      4  N   UNL     1       4.878   6.732  17.952  0.00  0.00    +0.000 N 
ATOM      5  C   UNL     1       3.839   5.831  18.000  0.00  0.00    +0.000 A 
ATOM      6  C   UNL     1       2.592   5.866  18.671  0.00  0.00    +0.000 A 
ATOM      7  C   UNL     1       1.734   4.757  18.519  0.00  0.00    +0.000 A 
ATOM      8  C   UNL     1       2.109   3.665  17.744  0.00  0.00    +0.000 A 
ATOM      9  C   UNL     1       3.347   3.650  17.100  0.00  0.00    +0.000 A 
ATOM     10  C   UNL     1       4.228   4.748  17.224  0.00  0.00    +0.000 A 
ATOM     11  H   UNL     1       4.892   7.628  18.430  0.00  0.00    +0.000 HD
ENDROOT
BRANCH   3  12
ATOM     12  C   UNL     1       7.103   7.126  17.005  0.00  0.00    +0.000 C 
ATOM     13  O   UNL     1       8.024   6.778  16.270  0.00  0.00    +0.000 OA
ATOM     14  N   UNL     1       7.137   8.268  17.795  0.00  0.00    +0.000 N 
ATOM     15  H   UNL     1       6.407   8.440  18.471  0.00  0.00    +0.000 HD
BRANCH  14  16
ATOM     16  N   UNL     1       8.230   9.100  17.764  0.00  0.00    +0.000 NA
ATOM     17  C   UNL     1       8.534   9.682  18.881  0.00  0.00    +0.000 C 
BRANCH  17  18
ATOM     18  C   UNL     1       9.672  10.623  18.995  0.00  0.00    +0.000 A 
ATOM     19  C   UNL     1      10.393  11.012  17.863  0.00  0.00    +0.000 A 
ATOM     20  C   UNL     1      11.461  11.902  17.989  0.00  0.00    +0.000 A 
ATOM     21  C   UNL     1      11.810  12.403  19.243  0.00  0.00    +0.000 A 
ATOM     22  C   UNL     1      11.091  12.017  20.375  0.00  0.00    +0.000 A 
ATOM     23  C   UNL     1      10.018  11.128  20.254  0.00  0.00    +0.000 A 
ENDBRANCH  17  18
ENDBRANCH  14  16
ENDBRANCH   3  12
BRANCH   6  24
ATOM     24  N   UNL     1       2.148   6.981  19.512  0.00  0.00    +0.000 N 
ATOM     25  O   UNL     1       1.700   6.701  20.636  0.00  0.00    +0.000 OA
ATOM     26  O   UNL     1       2.245   8.132  19.063  0.00  0.00    +0.000 OA
ENDBRANCH   6  24
TORSDOF 4
ENDMDL
MODEL 9
REMARK VINA RESULT:      -7.9      3.168      4.479
REMARK  Name = 
REMARK  5 active torsions:
REMARK  status: ('A' for Active; 'I' for Inactive)
REMARK    1  A    between atoms: C_1  and  C_2
REMARK    2  A    between atoms: C_3  and  C_4
REMARK    3  A    between atoms: N_6  and  N_7
REMARK    4  A    between atoms: C_8  and  C_9
REMARK    5  A    between atoms: C_17  and  N_18
REMARK                            x       y       z     vdW  Elec       q    Type
REMARK                         _______ _______ _______ _____ _____    ______ ____
ROOT
ATOM      1  C   UNL     1       5.228   5.498  18.760  0.00  0.00    +0.000 C 
ATOM      2  C   UNL     1       6.131   5.647  17.584  0.00  0.00    +0.000 A 
ATOM      3  C   UNL     1       7.259   6.447  17.389  0.00  0.00    +0.000 A 
ATOM      4  N   UNL     1       7.645   6.259  16.071  0.00  0.00    +0.000 N 
ATOM      5  C   UNL     1       6.843   5.346  15.425  0.00  0.00    +0.000 A 
ATOM      6  C   UNL     1       6.862   4.845  14.101  0.00  0.00    +0.000 A 
ATOM      7  C   UNL     1       5.876   3.903  13.740  0.00  0.00    +0.000 A 
ATOM      8  C   UNL     1       4.914   3.490  14.657  0.00  0.00    +0.000 A 
ATOM      9  C   UNL     1       4.910   4.006  15.954  0.00  0.00    +0.000 A 
ATOM     10  C   UNL     1       5.888   4.945  16.350  0.00  0.00    +0.000 A 
ATOM     11  H   UNL     1       8.436   6.738  15.649  0.00  0.00    +0.000 HD
ENDROOT
BRANCH   3  12
ATOM     12  C   UNL     1       8.013   7.395  18.210  0.00  0.00    +0.000 C 
ATOM     13  O   UNL     1       8.600   7.010  19.219  0.00  0.00    +0.000 OA
ATOM     14  N   UNL     1       7.946   8.725  17.818  0.00  0.00    +0.000 N 
ATOM     15  H   UNL     1       7.349   8.999  17.051  0.00  0.00    +0.000 HD
BRANCH  14  16
ATOM     16  N   UNL     1       8.579   9.698  18.553  0.00  0.00    +0.000 NA
ATOM     17  C   UNL     1       9.358  10.495  17.893  0.00  0.00    +0.000 C 
BRANCH  17  18
ATOM     18  C   UNL     1      10.124  11.576  18.554  0.00  0.00    +0.000 A 
ATOM     19  C   UNL     1      10.764  12.562  17.798  0.00  0.00    +0.000 A 
ATOM     20  C   UNL     1      11.479  13.577  18.439  0.00  0.00    +0.000 A 
ATOM     21  C   UNL     1      11.555  13.606  19.831  0.00  0.00    +0.000 A 
ATOM     22  C   UNL     1      10.916  12.624  20.588  0.00  0.00    +0.000 A 
ATOM     23  C   UNL     1      10.196  11.607  19.952  0.00  0.00    +0.000 A 
ENDBRANCH  17  18
ENDBRANCH  14  16
ENDBRANCH   3  12
BRANCH   6  24
ATOM     24  N   UNL     1       7.840   5.252  13.088  0.00  0.00    +0.000 N 
ATOM     25  O   UNL     1       7.644   4.868  11.923  0.00  0.00    +0.000 OA
ATOM     26  O   UNL     1       8.798   5.953  13.442  0.00  0.00    +0.000 OA
ENDBRANCH   6  24
TORSDOF 4
ENDMDL
