MODEL 1
REMARK VINA RESULT:      -7.3      0.000      0.000
REMARK  Name = 
REMARK  10 active torsions:
REMARK  status: ('A' for Active; 'I' for Inactive)
REMARK    1  A    between atoms: C_1  and  C_2
REMARK    2  A    between atoms: C_2  and  C_3
REMARK    3  A    between atoms: C_3  and  N_4
REMARK    4  A    between atoms: N_4  and  C_5
REMARK    5  A    between atoms: C_13  and  O_14
REMARK    6  A    between atoms: O_14  and  C_15
REMARK    7  A    between atoms: C_18  and  C_19
REMARK    8  A    between atoms: C_19  and  C_20
REMARK    9  A    between atoms: C_19  and  N_21
REMARK   10  A    between atoms: C_22  and  C_23
REMARK                            x       y       z     vdW  Elec       q    Type
REMARK                         _______ _______ _______ _____ _____    ______ ____
ROOT
ATOM      1  C   UNL     1       2.351   4.153  18.571  0.00  0.00    +0.000 A 
ATOM      2  N   UNL     1       2.711   2.903  18.226  0.00  0.00    +0.000 NA
ATOM      3  C   UNL     1       3.804   2.778  17.467  0.00  0.00    +0.000 A 
ATOM      4  N   UNL     1       4.599   3.771  17.054  0.00  0.00    +0.000 NA
ATOM      5  C   UNL     1       4.243   5.028  17.392  0.00  0.00    +0.000 A 
ATOM      6  N   UNL     1       5.091   6.081  16.997  0.00  0.00    +0.000 N 
ATOM      7  C   UNL     1       6.068   5.792  15.933  0.00  0.00    +0.000 C 
ATOM      8  C   UNL     1       7.430   5.825  16.617  0.00  0.00    +0.000 C 
ATOM      9  C   UNL     1       7.247   6.932  17.644  0.00  0.00    +0.000 C 
ATOM     10  C   UNL     1       5.814   6.683  18.141  0.00  0.00    +0.000 C 
ATOM     11  C   UNL     1       3.079   5.266  18.138  0.00  0.00    +0.000 A 
ATOM     12 CL   UNL     1       2.552   6.865  18.560  0.00  0.00    +0.000 Cl
ENDROOT
BRANCH   1  13
ATOM     13  N   UNL     1       1.161   4.322  19.327  0.00  0.00    +0.000 N 
ATOM     14  H   UNL     1       0.524   4.927  18.812  0.00  0.00    +0.000 HD
BRANCH  13  15
ATOM     15  C   UNL     1       1.417   4.808  20.682  0.00  0.00    +0.000 C 
BRANCH  15  17
ATOM     16  C   UNL     1       1.420   2.506  21.674  0.00  0.00    +0.000 C 
ATOM     17  C   UNL     1       2.226   3.780  21.470  0.00  0.00    +0.000 C 
ENDBRANCH  15  17
ENDBRANCH  13  15
ENDBRANCH   1  13
BRANCH   9  18
ATOM     18  O   UNL     1       7.321   8.229  17.029  0.00  0.00    +0.000 OA
BRANCH  18  19
ATOM     19  C   UNL     1       8.006   9.188  17.724  0.00  0.00    +0.000 A 
ATOM     20  C   UNL     1       8.710   8.758  18.850  0.00  0.00    +0.000 A 
ATOM     21  C   UNL     1       9.408   9.677  19.643  0.00  0.00    +0.000 A 
ATOM     22  C   UNL     1       9.411  11.036  19.309  0.00  0.00    +0.000 A 
ATOM     23  C   UNL     1       8.750  11.444  18.142  0.00  0.00    +0.000 A 
ATOM     24  C   UNL     1       8.063  10.527  17.352  0.00  0.00    +0.000 A 
BRANCH  22  25
ATOM     25  C   UNL     1      10.091  12.066  20.189  0.00  0.00    +0.000 C 
ATOM     26  C   UNL     1      11.610  12.010  19.979  0.00  0.00    +0.000 C 
BRANCH  25  27
ATOM     27  N   UNL     1       9.732  11.843  21.582  0.00  0.00    +0.000 N 
ATOM     28  C   UNL     1       8.705  12.520  22.185  0.00  0.00    +0.000 C 
ATOM     29  C   UNL     1       8.496  12.183  23.637  0.00  0.00    +0.000 C 
ATOM     30  O   UNL     1       8.003  13.348  21.605  0.00  0.00    +0.000 OA
ATOM     31  H   UNL     1      10.226  11.130  22.100  0.00  0.00    +0.000 HD
ENDBRANCH  25  27
ENDBRANCH  22  25
ENDBRANCH  18  19
ENDBRANCH   9  18
TORSDOF 7
ENDMDL
MODEL 2
REMARK VINA RESULT:      -7.2      0.466      1.008
REMARK  Name = 
REMARK  10 active torsions:
REMARK  status: ('A' for Active; 'I' for Inactive)
REMARK    1  A    between atoms: C_1  and  C_2
REMARK    2  A    between atoms: C_2  and  C_3
REMARK    3  A    between atoms: C_3  and  N_4
REMARK    4  A    between atoms: N_4  and  C_5
REMARK    5  A    between atoms: C_13  and  O_14
REMARK    6  A    between atoms: O_14  and  C_15
REMARK    7  A    between atoms: C_18  and  C_19
REMARK    8  A    between atoms: C_19  and  C_20
REMARK    9  A    between atoms: C_19  and  N_21
REMARK   10  A    between atoms: C_22  and  C_23
REMARK                            x       y       z     vdW  Elec       q    Type
REMARK                         _______ _______ _______ _____ _____    ______ ____
ROOT
ATOM      1  C   UNL     1       2.220   4.346  18.602  0.00  0.00    +0.000 A 
ATOM      2  N   UNL     1       2.466   3.099  18.158  0.00  0.00    +0.000 NA
ATOM      3  C   UNL     1       3.497   2.950  17.321  0.00  0.00    +0.000 A 
ATOM      4  N   UNL     1       4.335   3.910  16.917  0.00  0.00    +0.000 NA
ATOM      5  C   UNL     1       4.094   5.164  17.354  0.00  0.00    +0.000 A 
ATOM      6  N   UNL     1       4.989   6.180  16.968  0.00  0.00    +0.000 N 
ATOM      7  C   UNL     1       5.874   5.895  15.825  0.00  0.00    +0.000 C 
ATOM      8  C   UNL     1       7.275   5.790  16.416  0.00  0.00    +0.000 C 
ATOM      9  C   UNL     1       7.238   6.837  17.519  0.00  0.00    +0.000 C 
ATOM     10  C   UNL     1       5.825   6.655  18.095  0.00  0.00    +0.000 C 
ATOM     11  C   UNL     1       2.999   5.432  18.190  0.00  0.00    +0.000 A 
ATOM     12 CL   UNL     1       2.618   7.032  18.744  0.00  0.00    +0.000 Cl
ENDROOT
BRANCH   1  13
ATOM     13  N   UNL     1       1.096   4.546  19.446  0.00  0.00    +0.000 N 
ATOM     14  H   UNL     1       1.202   5.434  19.934  0.00  0.00    +0.000 HD
BRANCH  13  15
ATOM     15  C   UNL     1       0.872   3.429  20.363  0.00  0.00    +0.000 C 
BRANCH  15  17
ATOM     16  C   UNL     1       2.760   2.337  21.598  0.00  0.00    +0.000 C 
ATOM     17  C   UNL     1       1.815   3.529  21.561  0.00  0.00    +0.000 C 
ENDBRANCH  15  17
ENDBRANCH  13  15
ENDBRANCH   1  13
BRANCH   9  18
ATOM     18  O   UNL     1       7.368   8.163  16.981  0.00  0.00    +0.000 OA
BRANCH  18  19
ATOM     19  C   UNL     1       8.042   9.065  17.757  0.00  0.00    +0.000 A 
ATOM     20  C   UNL     1       7.986  10.401  17.352  0.00  0.00    +0.000 A 
ATOM     21  C   UNL     1       8.679  11.387  18.065  0.00  0.00    +0.000 A 
ATOM     22  C   UNL     1       9.429  11.044  19.195  0.00  0.00    +0.000 A 
ATOM     23  C   UNL     1       9.426   9.709  19.625  0.00  0.00    +0.000 A 
ATOM     24  C   UNL     1       8.731   8.732  18.919  0.00  0.00    +0.000 A 
BRANCH  22  25
ATOM     25  C   UNL     1      10.252  12.074  19.942  0.00  0.00    +0.000 C 
ATOM     26  C   UNL     1      11.746  11.835  19.682  0.00  0.00    +0.000 C 
BRANCH  25  27
ATOM     27  N   UNL     1       9.939  12.025  21.363  0.00  0.00    +0.000 N 
ATOM     28  C   UNL     1       8.924  12.765  21.908  0.00  0.00    +0.000 C 
ATOM     29  C   UNL     1       8.763  12.612  23.396  0.00  0.00    +0.000 C 
ATOM     30  O   UNL     1       8.196  13.509  21.252  0.00  0.00    +0.000 OA
ATOM     31  H   UNL     1      10.457  11.385  21.949  0.00  0.00    +0.000 HD
ENDBRANCH  25  27
ENDBRANCH  22  25
ENDBRANCH  18  19
ENDBRANCH   9  18
TORSDOF 7
ENDMDL
MODEL 3
REMARK VINA RESULT:      -7.1      5.585      8.339
REMARK  Name = 
REMARK  10 active torsions:
REMARK  status: ('A' for Active; 'I' for Inactive)
REMARK    1  A    between atoms: C_1  and  C_2
REMARK    2  A    between atoms: C_2  and  C_3
REMARK    3  A    between atoms: C_3  and  N_4
REMARK    4  A    between atoms: N_4  and  C_5
REMARK    5  A    between atoms: C_13  and  O_14
REMARK    6  A    between atoms: O_14  and  C_15
REMARK    7  A    between atoms: C_18  and  C_19
REMARK    8  A    between atoms: C_19  and  C_20
REMARK    9  A    between atoms: C_19  and  N_21
REMARK   10  A    between atoms: C_22  and  C_23
REMARK                            x       y       z     vdW  Elec       q    Type
REMARK                         _______ _______ _______ _____ _____    ______ ____
ROOT
ATOM      1  C   UNL     1       5.134   4.947  16.237  0.00  0.00    +0.000 A 
ATOM      2  N   UNL     1       4.696   3.677  16.154  0.00  0.00    +0.000 NA
ATOM      3  C   UNL     1       3.932   3.235  17.157  0.00  0.00    +0.000 A 
ATOM      4  N   UNL     1       3.524   3.945  18.214  0.00  0.00    +0.000 NA
ATOM      5  C   UNL     1       3.962   5.218  18.308  0.00  0.00    +0.000 A 
ATOM      6  N   UNL     1       3.510   5.991  19.395  0.00  0.00    +0.000 N 
ATOM      7  C   UNL     1       2.929   5.265  20.539  0.00  0.00    +0.000 C 
ATOM      8  C   UNL     1       1.444   5.610  20.523  0.00  0.00    +0.000 C 
ATOM      9  C   UNL     1       1.456   7.058  20.055  0.00  0.00    +0.000 C 
ATOM     10  C   UNL     1       2.556   7.046  18.982  0.00  0.00    +0.000 C 
ATOM     11  C   UNL     1       4.816   5.755  17.333  0.00  0.00    +0.000 A 
ATOM     12 CL   UNL     1       5.443   7.371  17.430  0.00  0.00    +0.000 Cl
ENDROOT
BRANCH   1  13
ATOM     13  N   UNL     1       5.995   5.426  15.216  0.00  0.00    +0.000 N 
ATOM     14  H   UNL     1       5.443   5.939  14.530  0.00  0.00    +0.000 HD
BRANCH  13  15
ATOM     15  C   UNL     1       6.794   4.364  14.606  0.00  0.00    +0.000 C 
BRANCH  15  17
ATOM     16  C   UNL     1       7.070   4.178  12.121  0.00  0.00    +0.000 C 
ATOM     17  C   UNL     1       6.150   3.898  13.302  0.00  0.00    +0.000 C 
ENDBRANCH  15  17
ENDBRANCH  13  15
ENDBRANCH   1  13
BRANCH   9  18
ATOM     18  O   UNL     1       1.837   7.945  21.120  0.00  0.00    +0.000 OA
BRANCH  18  19
ATOM     19  C   UNL     1       0.953   8.947  21.415  0.00  0.00    +0.000 A 
ATOM     20  C   UNL     1       0.612   9.806  20.368  0.00  0.00    +0.000 A 
ATOM     21  C   UNL     1      -0.256  10.882  20.588  0.00  0.00    +0.000 A 
ATOM     22  C   UNL     1      -0.795  11.103  21.861  0.00  0.00    +0.000 A 
ATOM     23  C   UNL     1      -0.491  10.198  22.888  0.00  0.00    +0.000 A 
ATOM     24  C   UNL     1       0.366   9.125  22.663  0.00  0.00    +0.000 A 
BRANCH  22  25
ATOM     25  C   UNL     1      -1.674  12.304  22.151  0.00  0.00    +0.000 C 
ATOM     26  C   UNL     1      -0.800  13.537  22.417  0.00  0.00    +0.000 C 
BRANCH  25  27
ATOM     27  N   UNL     1      -2.552  12.015  23.275  0.00  0.00    +0.000 N 
ATOM     28  C   UNL     1      -3.745  12.666  23.450  0.00  0.00    +0.000 C 
ATOM     29  C   UNL     1      -4.508  12.261  24.682  0.00  0.00    +0.000 C 
ATOM     30  O   UNL     1      -4.172  13.523  22.677  0.00  0.00    +0.000 OA
ATOM     31  H   UNL     1      -2.293  11.276  23.914  0.00  0.00    +0.000 HD
ENDBRANCH  25  27
ENDBRANCH  22  25
ENDBRANCH  18  19
ENDBRANCH   9  18
TORSDOF 7
ENDMDL
MODEL 4
REMARK VINA RESULT:      -7.1      5.383      8.834
REMARK  Name = 
REMARK  10 active torsions:
REMARK  status: ('A' for Active; 'I' for Inactive)
REMARK    1  A    between atoms: C_1  and  C_2
REMARK    2  A    between atoms: C_2  and  C_3
REMARK    3  A    between atoms: C_3  and  N_4
REMARK    4  A    between atoms: N_4  and  C_5
REMARK    5  A    between atoms: C_13  and  O_14
REMARK    6  A    between atoms: O_14  and  C_15
REMARK    7  A    between atoms: C_18  and  C_19
REMARK    8  A    between atoms: C_19  and  C_20
REMARK    9  A    between atoms: C_19  and  N_21
REMARK   10  A    between atoms: C_22  and  C_23
REMARK                            x       y       z     vdW  Elec       q    Type
REMARK                         _______ _______ _______ _____ _____    ______ ____
ROOT
ATOM      1  C   UNL     1      -0.525  10.623  21.485  0.00  0.00    +0.000 A 
ATOM      2  N   UNL     1      -1.348  11.083  20.523  0.00  0.00    +0.000 NA
ATOM      3  C   UNL     1      -1.006  10.817  19.260  0.00  0.00    +0.000 A 
ATOM      4  N   UNL     1       0.050  10.102  18.858  0.00  0.00    +0.000 NA
ATOM      5  C   UNL     1       0.883   9.641  19.815  0.00  0.00    +0.000 A 
ATOM      6  N   UNL     1       1.978   8.854  19.411  0.00  0.00    +0.000 N 
ATOM      7  C   UNL     1       2.360   8.916  17.989  0.00  0.00    +0.000 C 
ATOM      8  C   UNL     1       2.006   7.548  17.417  0.00  0.00    +0.000 C 
ATOM      9  C   UNL     1       2.322   6.621  18.582  0.00  0.00    +0.000 C 
ATOM     10  C   UNL     1       1.821   7.430  19.788  0.00  0.00    +0.000 C 
ATOM     11  C   UNL     1       0.640   9.918  21.169  0.00  0.00    +0.000 A 
ATOM     12 CL   UNL     1       1.703   9.387  22.434  0.00  0.00    +0.000 Cl
ENDROOT
BRANCH   1  13
ATOM     13  N   UNL     1      -0.831  10.940  22.835  0.00  0.00    +0.000 N 
ATOM     14  H   UNL     1      -1.559  10.310  23.166  0.00  0.00    +0.000 HD
BRANCH  13  15
ATOM     15  C   UNL     1      -1.185  12.347  23.019  0.00  0.00    +0.000 C 
BRANCH  15  17
ATOM     16  C   UNL     1      -3.464  13.273  22.538  0.00  0.00    +0.000 C 
ATOM     17  C   UNL     1      -2.622  12.471  23.520  0.00  0.00    +0.000 C 
ENDBRANCH  15  17
ENDBRANCH  13  15
ENDBRANCH   1  13
BRANCH   9  18
ATOM     18  O   UNL     1       3.737   6.404  18.705  0.00  0.00    +0.000 OA
BRANCH  18  19
ATOM     19  C   UNL     1       4.350   5.798  17.643  0.00  0.00    +0.000 A 
ATOM     20  C   UNL     1       4.965   6.639  16.714  0.00  0.00    +0.000 A 
ATOM     21  C   UNL     1       5.583   6.107  15.576  0.00  0.00    +0.000 A 
ATOM     22  C   UNL     1       5.595   4.724  15.362  0.00  0.00    +0.000 A 
ATOM     23  C   UNL     1       5.026   3.888  16.334  0.00  0.00    +0.000 A 
ATOM     24  C   UNL     1       4.419   4.420  17.468  0.00  0.00    +0.000 A 
BRANCH  22  25
ATOM     25  C   UNL     1       6.186   4.122  14.103  0.00  0.00    +0.000 C 
ATOM     26  C   UNL     1       7.385   4.960  13.638  0.00  0.00    +0.000 C 
BRANCH  25  27
ATOM     27  N   UNL     1       5.163   4.028  13.071  0.00  0.00    +0.000 N 
ATOM     28  C   UNL     1       5.273   3.160  12.017  0.00  0.00    +0.000 C 
ATOM     29  C   UNL     1       4.138   3.220  11.031  0.00  0.00    +0.000 C 
ATOM     30  O   UNL     1       6.222   2.391  11.865  0.00  0.00    +0.000 OA
ATOM     31  H   UNL     1       4.327   4.586  13.168  0.00  0.00    +0.000 HD
ENDBRANCH  25  27
ENDBRANCH  22  25
ENDBRANCH  18  19
ENDBRANCH   9  18
TORSDOF 7
ENDMDL
MODEL 5
REMARK VINA RESULT:      -7.1      5.610      8.227
REMARK  Name = 
REMARK  10 active torsions:
REMARK  status: ('A' for Active; 'I' for Inactive)
REMARK    1  A    between atoms: C_1  and  C_2
REMARK    2  A    between atoms: C_2  and  C_3
REMARK    3  A    between atoms: C_3  and  N_4
REMARK    4  A    between atoms: N_4  and  C_5
REMARK    5  A    between atoms: C_13  and  O_14
REMARK    6  A    between atoms: O_14  and  C_15
REMARK    7  A    between atoms: C_18  and  C_19
REMARK    8  A    between atoms: C_19  and  C_20
REMARK    9  A    between atoms: C_19  and  N_21
REMARK   10  A    between atoms: C_22  and  C_23
REMARK                            x       y       z     vdW  Elec       q    Type
REMARK                         _______ _______ _______ _____ _____    ______ ____
ROOT
ATOM      1  C   UNL     1       5.151   4.509  16.593  0.00  0.00    +0.000 A 
ATOM      2  N   UNL     1       4.689   3.246  16.573  0.00  0.00    +0.000 NA
ATOM      3  C   UNL     1       3.874   2.886  17.568  0.00  0.00    +0.000 A 
ATOM      4  N   UNL     1       3.438   3.671  18.558  0.00  0.00    +0.000 NA
ATOM      5  C   UNL     1       3.899   4.939  18.590  0.00  0.00    +0.000 A 
ATOM      6  N   UNL     1       3.420   5.789  19.604  0.00  0.00    +0.000 N 
ATOM      7  C   UNL     1       2.775   5.152  20.765  0.00  0.00    +0.000 C 
ATOM      8  C   UNL     1       1.300   5.524  20.662  0.00  0.00    +0.000 C 
ATOM      9  C   UNL     1       1.365   6.938  20.103  0.00  0.00    +0.000 C 
ATOM     10  C   UNL     1       2.509   6.834  19.082  0.00  0.00    +0.000 C 
ATOM     11  C   UNL     1       4.806   5.393  17.620  0.00  0.00    +0.000 A 
ATOM     12 CL   UNL     1       5.465   6.999  17.640  0.00  0.00    +0.000 Cl
ENDROOT
BRANCH   1  13
ATOM     13  N   UNL     1       6.066   4.904  15.582  0.00  0.00    +0.000 N 
ATOM     14  H   UNL     1       5.730   5.762  15.148  0.00  0.00    +0.000 HD
BRANCH  13  15
ATOM     15  C   UNL     1       6.318   3.846  14.604  0.00  0.00    +0.000 C 
BRANCH  15  17
ATOM     16  C   UNL     1       5.944   3.130  12.231  0.00  0.00    +0.000 C 
ATOM     17  C   UNL     1       5.543   4.119  13.317  0.00  0.00    +0.000 C 
ENDBRANCH  15  17
ENDBRANCH  13  15
ENDBRANCH   1  13
BRANCH   9  18
ATOM     18  O   UNL     1       1.720   7.885  21.124  0.00  0.00    +0.000 OA
BRANCH  18  19
ATOM     19  C   UNL     1       0.928   8.996  21.218  0.00  0.00    +0.000 A 
ATOM     20  C   UNL     1       0.324   9.228  22.455  0.00  0.00    +0.000 A 
ATOM     21  C   UNL     1      -0.534  10.321  22.631  0.00  0.00    +0.000 A 
ATOM     22  C   UNL     1      -0.788  11.195  21.568  0.00  0.00    +0.000 A 
ATOM     23  C   UNL     1      -0.127  10.985  20.350  0.00  0.00    +0.000 A 
ATOM     24  C   UNL     1       0.731   9.902  20.180  0.00  0.00    +0.000 A 
BRANCH  22  25
ATOM     25  C   UNL     1      -1.771  12.341  21.703  0.00  0.00    +0.000 C 
ATOM     26  C   UNL     1      -1.072  13.669  21.380  0.00  0.00    +0.000 C 
BRANCH  25  27
ATOM     27  N   UNL     1      -2.345  12.348  23.041  0.00  0.00    +0.000 N 
ATOM     28  C   UNL     1      -3.698  12.400  23.250  0.00  0.00    +0.000 C 
ATOM     29  C   UNL     1      -4.110  12.430  24.697  0.00  0.00    +0.000 C 
ATOM     30  O   UNL     1      -4.526  12.432  22.341  0.00  0.00    +0.000 OA
ATOM     31  H   UNL     1      -1.724  12.260  23.833  0.00  0.00    +0.000 HD
ENDBRANCH  25  27
ENDBRANCH  22  25
ENDBRANCH  18  19
ENDBRANCH   9  18
TORSDOF 7
ENDMDL
MODEL 6
REMARK VINA RESULT:      -6.8      6.732      8.690
REMARK  Name = 
REMARK  10 active torsions:
REMARK  status: ('A' for Active; 'I' for Inactive)
REMARK    1  A    between atoms: C_1  and  C_2
REMARK    2  A    between atoms: C_2  and  C_3
REMARK    3  A    between atoms: C_3  and  N_4
REMARK    4  A    between atoms: N_4  and  C_5
REMARK    5  A    between atoms: C_13  and  O_14
REMARK    6  A    between atoms: O_14  and  C_15
REMARK    7  A    between atoms: C_18  and  C_19
REMARK    8  A    between atoms: C_19  and  C_20
REMARK    9  A    between atoms: C_19  and  N_21
REMARK   10  A    between atoms: C_22  and  C_23
REMARK                            x       y       z     vdW  Elec       q    Type
REMARK                         _______ _______ _______ _____ _____    ______ ____
ROOT
ATOM      1  C   UNL     1       4.010   4.926  19.385  0.00  0.00    +0.000 A 
ATOM      2  N   UNL     1       5.048   5.255  18.595  0.00  0.00    +0.000 NA
ATOM      3  C   UNL     1       4.912   6.355  17.848  0.00  0.00    +0.000 A 
ATOM      4  N   UNL     1       3.863   7.184  17.843  0.00  0.00    +0.000 NA
ATOM      5  C   UNL     1       2.816   6.859  18.629  0.00  0.00    +0.000 A 
ATOM      6  N   UNL     1       1.719   7.742  18.663  0.00  0.00    +0.000 N 
ATOM      7  C   UNL     1       1.617   8.727  17.571  0.00  0.00    +0.000 C 
ATOM      8  C   UNL     1       1.887  10.079  18.221  0.00  0.00    +0.000 C 
ATOM      9  C   UNL     1       1.244   9.912  19.590  0.00  0.00    +0.000 C 
ATOM     10  C   UNL     1       1.616   8.465  19.951  0.00  0.00    +0.000 C 
ATOM     11  C   UNL     1       2.840   5.691  19.406  0.00  0.00    +0.000 A 
ATOM     12 CL   UNL     1       1.502   5.204  20.399  0.00  0.00    +0.000 Cl
ENDROOT
BRANCH   1  13
ATOM     13  N   UNL     1       4.101   3.730  20.145  0.00  0.00    +0.000 N 
ATOM     14  H   UNL     1       4.881   3.809  20.795  0.00  0.00    +0.000 HD
BRANCH  13  15
ATOM     15  C   UNL     1       4.191   2.534  19.309  0.00  0.00    +0.000 C 
BRANCH  15  17
ATOM     16  C   UNL     1       2.352   2.328  17.618  0.00  0.00    +0.000 C 
ATOM     17  C   UNL     1       2.797   1.975  19.030  0.00  0.00    +0.000 C 
ENDBRANCH  15  17
ENDBRANCH  13  15
ENDBRANCH   1  13
BRANCH   9  18
ATOM     18  O   UNL     1      -0.186  10.032  19.510  0.00  0.00    +0.000 OA
BRANCH  18  19
ATOM     19  C   UNL     1      -0.772  10.878  20.411  0.00  0.00    +0.000 A 
ATOM     20  C   UNL     1      -1.664  11.820  19.894  0.00  0.00    +0.000 A 
ATOM     21  C   UNL     1      -2.280  12.751  20.739  0.00  0.00    +0.000 A 
ATOM     22  C   UNL     1      -2.012  12.742  22.112  0.00  0.00    +0.000 A 
ATOM     23  C   UNL     1      -1.161  11.752  22.625  0.00  0.00    +0.000 A 
ATOM     24  C   UNL     1      -0.556  10.824  21.784  0.00  0.00    +0.000 A 
BRANCH  22  25
ATOM     25  C   UNL     1      -2.601  13.785  23.041  0.00  0.00    +0.000 C 
ATOM     26  C   UNL     1      -1.522  14.289  24.009  0.00  0.00    +0.000 C 
BRANCH  25  27
ATOM     27  N   UNL     1      -3.743  13.228  23.751  0.00  0.00    +0.000 N 
ATOM     28  C   UNL     1      -5.028  13.402  23.310  0.00  0.00    +0.000 C 
ATOM     29  C   UNL     1      -6.084  12.783  24.185  0.00  0.00    +0.000 C 
ATOM     30  O   UNL     1      -5.318  14.021  22.286  0.00  0.00    +0.000 OA
ATOM     31  H   UNL     1      -3.572  12.654  24.565  0.00  0.00    +0.000 HD
ENDBRANCH  25  27
ENDBRANCH  22  25
ENDBRANCH  18  19
ENDBRANCH   9  18
TORSDOF 7
ENDMDL
MODEL 7
REMARK VINA RESULT:      -6.8      6.303      8.162
REMARK  Name = 
REMARK  10 active torsions:
REMARK  status: ('A' for Active; 'I' for Inactive)
REMARK    1  A    between atoms: C_1  and  C_2
REMARK    2  A    between atoms: C_2  and  C_3
REMARK    3  A    between atoms: C_3  and  N_4
REMARK    4  A    between atoms: N_4  and  C_5
REMARK    5  A    between atoms: C_13  and  O_14
REMARK    6  A    between atoms: O_14  and  C_15
REMARK    7  A    between atoms: C_18  and  C_19
REMARK    8  A    between atoms: C_19  and  C_20
REMARK    9  A    between atoms: C_19  and  N_21
REMARK   10  A    between atoms: C_22  and  C_23
REMARK                            x       y       z     vdW  Elec       q    Type
REMARK                         _______ _______ _______ _____ _____    ______ ____
ROOT
ATOM      1  C   UNL     1       4.049   4.721  19.401  0.00  0.00    +0.000 A 
ATOM      2  N   UNL     1       5.064   5.029  18.572  0.00  0.00    +0.000 NA
ATOM      3  C   UNL     1       4.913   6.119  17.814  0.00  0.00    +0.000 A 
ATOM      4  N   UNL     1       3.871   6.957  17.829  0.00  0.00    +0.000 NA
ATOM      5  C   UNL     1       2.847   6.653  18.654  0.00  0.00    +0.000 A 
ATOM      6  N   UNL     1       1.760   7.547  18.711  0.00  0.00    +0.000 N 
ATOM      7  C   UNL     1       1.630   8.515  17.608  0.00  0.00    +0.000 C 
ATOM      8  C   UNL     1       1.933   9.874  18.227  0.00  0.00    +0.000 C 
ATOM      9  C   UNL     1       1.333   9.734  19.619  0.00  0.00    +0.000 C 
ATOM     10  C   UNL     1       1.705   8.290  19.990  0.00  0.00    +0.000 C 
ATOM     11  C   UNL     1       2.887   5.497  19.448  0.00  0.00    +0.000 A 
ATOM     12 CL   UNL     1       1.579   5.037  20.492  0.00  0.00    +0.000 Cl
ENDROOT
BRANCH   1  13
ATOM     13  N   UNL     1       4.155   3.536  20.176  0.00  0.00    +0.000 N 
ATOM     14  H   UNL     1       4.992   3.592  20.753  0.00  0.00    +0.000 HD
BRANCH  13  15
ATOM     15  C   UNL     1       4.120   2.322  19.362  0.00  0.00    +0.000 C 
BRANCH  15  17
ATOM     16  C   UNL     1       2.281   2.308  17.658  0.00  0.00    +0.000 C 
ATOM     17  C   UNL     1       2.675   1.918  19.075  0.00  0.00    +0.000 C 
ENDBRANCH  15  17
ENDBRANCH  13  15
ENDBRANCH   1  13
BRANCH   9  18
ATOM     18  O   UNL     1      -0.098   9.866  19.584  0.00  0.00    +0.000 OA
BRANCH  18  19
ATOM     19  C   UNL     1      -0.662  10.584  20.601  0.00  0.00    +0.000 A 
ATOM     20  C   UNL     1      -1.399  11.712  20.234  0.00  0.00    +0.000 A 
ATOM     21  C   UNL     1      -1.981  12.528  21.212  0.00  0.00    +0.000 A 
ATOM     22  C   UNL     1      -1.833  12.217  22.568  0.00  0.00    +0.000 A 
ATOM     23  C   UNL     1      -1.142  11.048  22.920  0.00  0.00    +0.000 A 
ATOM     24  C   UNL     1      -0.572  10.235  21.945  0.00  0.00    +0.000 A 
BRANCH  22  25
ATOM     25  C   UNL     1      -2.382  13.122  23.653  0.00  0.00    +0.000 C 
ATOM     26  C   UNL     1      -3.794  12.665  24.046  0.00  0.00    +0.000 C 
BRANCH  25  27
ATOM     27  N   UNL     1      -2.372  14.504  23.198  0.00  0.00    +0.000 N 
ATOM     28  C   UNL     1      -1.475  15.420  23.681  0.00  0.00    +0.000 C 
ATOM     29  C   UNL     1      -1.630  16.808  23.121  0.00  0.00    +0.000 C 
ATOM     30  O   UNL     1      -0.610  15.152  24.515  0.00  0.00    +0.000 OA
ATOM     31  H   UNL     1      -3.014  14.778  22.468  0.00  0.00    +0.000 HD
ENDBRANCH  25  27
ENDBRANCH  22  25
ENDBRANCH  18  19
ENDBRANCH   9  18
TORSDOF 7
ENDMDL
MODEL 8
REMARK VINA RESULT:      -6.8      5.571      8.093
REMARK  Name = 
REMARK  10 active torsions:
REMARK  status: ('A' for Active; 'I' for Inactive)
REMARK    1  A    between atoms: C_1  and  C_2
REMARK    2  A    between atoms: C_2  and  C_3
REMARK    3  A    between atoms: C_3  and  N_4
REMARK    4  A    between atoms: N_4  and  C_5
REMARK    5  A    between atoms: C_13  and  O_14
REMARK    6  A    between atoms: O_14  and  C_15
REMARK    7  A    between atoms: C_18  and  C_19
REMARK    8  A    between atoms: C_19  and  C_20
REMARK    9  A    between atoms: C_19  and  N_21
REMARK   10  A    between atoms: C_22  and  C_23
REMARK                            x       y       z     vdW  Elec       q    Type
REMARK                         _______ _______ _______ _____ _____    ______ ____
ROOT
ATOM      1  C   UNL     1       5.068   4.784  16.334  0.00  0.00    +0.000 A 
ATOM      2  N   UNL     1       4.650   3.505  16.332  0.00  0.00    +0.000 NA
ATOM      3  C   UNL     1       3.904   3.113  17.369  0.00  0.00    +0.000 A 
ATOM      4  N   UNL     1       3.497   3.878  18.386  0.00  0.00    +0.000 NA
ATOM      5  C   UNL     1       3.915   5.161  18.399  0.00  0.00    +0.000 A 
ATOM      6  N   UNL     1       3.463   5.991  19.444  0.00  0.00    +0.000 N 
ATOM      7  C   UNL     1       2.907   5.326  20.635  0.00  0.00    +0.000 C 
ATOM      8  C   UNL     1       1.417   5.646  20.616  0.00  0.00    +0.000 C 
ATOM      9  C   UNL     1       1.400   7.063  20.063  0.00  0.00    +0.000 C 
ATOM     10  C   UNL     1       2.488   7.004  18.979  0.00  0.00    +0.000 C 
ATOM     11  C   UNL     1       4.750   5.652  17.384  0.00  0.00    +0.000 A 
ATOM     12 CL   UNL     1       5.352   7.280  17.376  0.00  0.00    +0.000 Cl
ENDROOT
BRANCH   1  13
ATOM     13  N   UNL     1       5.911   5.215  15.275  0.00  0.00    +0.000 N 
ATOM     14  H   UNL     1       5.386   5.844  14.670  0.00  0.00    +0.000 HD
BRANCH  13  15
ATOM     15  C   UNL     1       6.507   4.101  14.539  0.00  0.00    +0.000 C 
BRANCH  15  17
ATOM     16  C   UNL     1       6.674   3.541  12.101  0.00  0.00    +0.000 C 
ATOM     17  C   UNL     1       5.725   3.835  13.254  0.00  0.00    +0.000 C 
ENDBRANCH  15  17
ENDBRANCH  13  15
ENDBRANCH   1  13
BRANCH   9  18
ATOM     18  O   UNL     1       1.778   8.019  21.068  0.00  0.00    +0.000 OA
BRANCH  18  19
ATOM     19  C   UNL     1       0.867   9.002  21.338  0.00  0.00    +0.000 A 
ATOM     20  C   UNL     1       0.273   9.622  20.237  0.00  0.00    +0.000 A 
ATOM     21  C   UNL     1      -0.642  10.666  20.419  0.00  0.00    +0.000 A 
ATOM     22  C   UNL     1      -0.976  11.094  21.709  0.00  0.00    +0.000 A 
ATOM     23  C   UNL     1      -0.418  10.422  22.806  0.00  0.00    +0.000 A 
ATOM     24  C   UNL     1       0.486   9.380  22.622  0.00  0.00    +0.000 A 
BRANCH  22  25
ATOM     25  C   UNL     1      -1.902  12.271  21.938  0.00  0.00    +0.000 C 
ATOM     26  C   UNL     1      -2.270  12.913  20.593  0.00  0.00    +0.000 C 
BRANCH  25  27
ATOM     27  N   UNL     1      -1.274  13.229  22.837  0.00  0.00    +0.000 N 
ATOM     28  C   UNL     1      -2.002  13.972  23.728  0.00  0.00    +0.000 C 
ATOM     29  C   UNL     1      -1.191  14.932  24.557  0.00  0.00    +0.000 C 
ATOM     30  O   UNL     1      -3.223  13.883  23.851  0.00  0.00    +0.000 OA
ATOM     31  H   UNL     1      -0.267  13.306  22.833  0.00  0.00    +0.000 HD
ENDBRANCH  25  27
ENDBRANCH  22  25
ENDBRANCH  18  19
ENDBRANCH   9  18
TORSDOF 7
ENDMDL
MODEL 9
REMARK VINA RESULT:      -6.8      7.136      9.632
REMARK  Name = 
REMARK  10 active torsions:
REMARK  status: ('A' for Active; 'I' for Inactive)
REMARK    1  A    between atoms: C_1  and  C_2
REMARK    2  A    between atoms: C_2  and  C_3
REMARK    3  A    between atoms: C_3  and  N_4
REMARK    4  A    between atoms: N_4  and  C_5
REMARK    5  A    between atoms: C_13  and  O_14
REMARK    6  A    between atoms: O_14  and  C_15
REMARK    7  A    between atoms: C_18  and  C_19
REMARK    8  A    between atoms: C_19  and  C_20
REMARK    9  A    between atoms: C_19  and  N_21
REMARK   10  A    between atoms: C_22  and  C_23
REMARK                            x       y       z     vdW  Elec       q    Type
REMARK                         _______ _______ _______ _____ _____    ______ ____
ROOT
ATOM      1  C   UNL     1      -3.766  13.275  22.006  0.00  0.00    +0.000 A 
ATOM      2  N   UNL     1      -4.705  13.360  21.045  0.00  0.00    +0.000 NA
ATOM      3  C   UNL     1      -4.355  12.947  19.823  0.00  0.00    +0.000 A 
ATOM      4  N   UNL     1      -3.180  12.416  19.472  0.00  0.00    +0.000 NA
ATOM      5  C   UNL     1      -2.231  12.331  20.429  0.00  0.00    +0.000 A 
ATOM      6  N   UNL     1      -1.000  11.739  20.084  0.00  0.00    +0.000 N 
ATOM      7  C   UNL     1      -0.692  11.619  18.649  0.00  0.00    +0.000 C 
ATOM      8  C   UNL     1      -0.746  10.126  18.348  0.00  0.00    +0.000 C 
ATOM      9  C   UNL     1      -0.189   9.521  19.628  0.00  0.00    +0.000 C 
ATOM     10  C   UNL     1      -0.817  10.410  20.712  0.00  0.00    +0.000 C 
ATOM     11  C   UNL     1      -2.483  12.794  21.729  0.00  0.00    +0.000 A 
ATOM     12 CL   UNL     1      -1.284  12.749  22.983  0.00  0.00    +0.000 Cl
ENDROOT
BRANCH   1  13
ATOM     13  N   UNL     1      -4.088  13.762  23.300  0.00  0.00    +0.000 N 
ATOM     14  H   UNL     1      -3.284  14.261  23.676  0.00  0.00    +0.000 HD
BRANCH  13  15
ATOM     15  C   UNL     1      -4.560  12.709  24.199  0.00  0.00    +0.000 C 
BRANCH  15  17
ATOM     16  C   UNL     1      -6.660  14.057  23.961  0.00  0.00    +0.000 C 
ATOM     17  C   UNL     1      -6.086  12.670  24.215  0.00  0.00    +0.000 C 
ENDBRANCH  15  17
ENDBRANCH  13  15
ENDBRANCH   1  13
BRANCH   9  18
ATOM     18  O   UNL     1       1.243   9.643  19.680  0.00  0.00    +0.000 OA
BRANCH  18  19
ATOM     19  C   UNL     1       1.956   8.601  19.155  0.00  0.00    +0.000 A 
ATOM     20  C   UNL     1       2.049   7.450  19.941  0.00  0.00    +0.000 A 
ATOM     21  C   UNL     1       2.792   6.348  19.500  0.00  0.00    +0.000 A 
ATOM     22  C   UNL     1       3.444   6.388  18.263  0.00  0.00    +0.000 A 
ATOM     23  C   UNL     1       3.292   7.526  17.458  0.00  0.00    +0.000 A 
ATOM     24  C   UNL     1       2.547   8.617  17.896  0.00  0.00    +0.000 A 
BRANCH  22  25
ATOM     25  C   UNL     1       4.320   5.244  17.791  0.00  0.00    +0.000 C 
ATOM     26  C   UNL     1       3.530   3.929  17.841  0.00  0.00    +0.000 C 
BRANCH  25  27
ATOM     27  N   UNL     1       5.527   5.177  18.602  0.00  0.00    +0.000 N 
ATOM     28  C   UNL     1       6.657   5.881  18.281  0.00  0.00    +0.000 C 
ATOM     29  C   UNL     1       7.818   5.668  19.214  0.00  0.00    +0.000 C 
ATOM     30  O   UNL     1       6.740   6.627  17.305  0.00  0.00    +0.000 OA
ATOM     31  H   UNL     1       5.508   4.633  19.453  0.00  0.00    +0.000 HD
ENDBRANCH  25  27
ENDBRANCH  22  25
ENDBRANCH  18  19
ENDBRANCH   9  18
TORSDOF 7
ENDMDL
