MODEL 1
REMARK VINA RESULT:      -6.6      0.000      0.000
REMARK  Name = 
REMARK  4 active torsions:
REMARK  status: ('A' for Active; 'I' for Inactive)
REMARK    1  A    between atoms: C_1  and  C_2
REMARK    2  A    between atoms: C_2  and  C_3
REMARK    3  A    between atoms: C_6  and  C_7
REMARK    4  A    between atoms: N_10  and  C_11
REMARK                            x       y       z     vdW  Elec       q    Type
REMARK                         _______ _______ _______ _____ _____    ______ ____
ROOT
ATOM      1  C   UNL     1       5.932   4.936  15.406  0.00  0.00    +0.000 A 
ATOM      2  C   UNL     1       5.525   3.658  15.815  0.00  0.00    +0.000 A 
ATOM      3  C   UNL     1       4.559   3.513  16.815  0.00  0.00    +0.000 A 
ATOM      4  C   UNL     1       3.976   4.634  17.414  0.00  0.00    +0.000 A 
ATOM      5  C   UNL     1       4.362   5.911  16.989  0.00  0.00    +0.000 A 
ATOM      6  C   UNL     1       5.328   6.060  15.990  0.00  0.00    +0.000 A 
ENDROOT
BRANCH   4   7
ATOM      7  C   UNL     1       3.001   4.449  18.494  0.00  0.00    +0.000 C 
ATOM      8  C   UNL     1       3.178   5.054  19.675  0.00  0.00    +0.000 C 
ATOM      9  C   UNL     1       2.289   4.852  20.857  0.00  0.00    +0.000 C 
ATOM     10  N   UNL     1       1.253   3.830  20.762  0.00  0.00    +0.000 NA
ATOM     11  C   UNL     1       1.385   2.781  21.760  0.00  0.00    +0.000 C 
ATOM     12  C   UNL     1       0.896   3.327  19.435  0.00  0.00    +0.000 C 
ATOM     13  C   UNL     1       1.853   3.527  18.245  0.00  0.00    +0.000 C 
ENDBRANCH   4   7
BRANCH   1  15
ATOM     14  C   UNL     1       6.765   4.188  13.153  0.00  0.00    +0.000 C 
ATOM     15  C   UNL     1       6.999   5.091  14.353  0.00  0.00    +0.000 C 
ENDBRANCH   1  15
TORSDOF 2
ENDMDL
MODEL 2
REMARK VINA RESULT:      -6.5      0.164      1.256
REMARK  Name = 
REMARK  4 active torsions:
REMARK  status: ('A' for Active; 'I' for Inactive)
REMARK    1  A    between atoms: C_1  and  C_2
REMARK    2  A    between atoms: C_2  and  C_3
REMARK    3  A    between atoms: C_6  and  C_7
REMARK    4  A    between atoms: N_10  and  C_11
REMARK                            x       y       z     vdW  Elec       q    Type
REMARK                         _______ _______ _______ _____ _____    ______ ____
ROOT
ATOM      1  C   UNL     1       5.960   4.883  15.253  0.00  0.00    +0.000 A 
ATOM      2  C   UNL     1       5.361   6.004  15.844  0.00  0.00    +0.000 A 
ATOM      3  C   UNL     1       4.442   5.845  16.886  0.00  0.00    +0.000 A 
ATOM      4  C   UNL     1       4.115   4.572  17.363  0.00  0.00    +0.000 A 
ATOM      5  C   UNL     1       4.731   3.452  16.792  0.00  0.00    +0.000 A 
ATOM      6  C   UNL     1       5.649   3.607  15.749  0.00  0.00    +0.000 A 
ENDROOT
BRANCH   4   7
ATOM      7  C   UNL     1       3.112   4.435  18.424  0.00  0.00    +0.000 C 
ATOM      8  C   UNL     1       3.298   5.028  19.610  0.00  0.00    +0.000 C 
ATOM      9  C   UNL     1       2.378   4.868  20.775  0.00  0.00    +0.000 C 
ATOM     10  N   UNL     1       1.294   3.900  20.658  0.00  0.00    +0.000 NA
ATOM     11  C   UNL     1       1.355   2.843  21.655  0.00  0.00    +0.000 C 
ATOM     12  C   UNL     1       0.936   3.418  19.324  0.00  0.00    +0.000 C 
ATOM     13  C   UNL     1       1.924   3.572  18.152  0.00  0.00    +0.000 C 
ENDBRANCH   4   7
BRANCH   1  15
ATOM     14  C   UNL     1       6.667   4.058  12.985  0.00  0.00    +0.000 C 
ATOM     15  C   UNL     1       6.922   5.053  14.106  0.00  0.00    +0.000 C 
ENDBRANCH   1  15
TORSDOF 2
ENDMDL
MODEL 3
REMARK VINA RESULT:      -6.4      2.456      3.317
REMARK  Name = 
REMARK  4 active torsions:
REMARK  status: ('A' for Active; 'I' for Inactive)
REMARK    1  A    between atoms: C_1  and  C_2
REMARK    2  A    between atoms: C_2  and  C_3
REMARK    3  A    between atoms: C_6  and  C_7
REMARK    4  A    between atoms: N_10  and  C_11
REMARK                            x       y       z     vdW  Elec       q    Type
REMARK                         _______ _______ _______ _____ _____    ______ ____
ROOT
ATOM      1  C   UNL     1       7.275   6.972  18.124  0.00  0.00    +0.000 A 
ATOM      2  C   UNL     1       7.181   5.793  18.875  0.00  0.00    +0.000 A 
ATOM      3  C   UNL     1       6.060   4.966  18.751  0.00  0.00    +0.000 A 
ATOM      4  C   UNL     1       5.024   5.294  17.872  0.00  0.00    +0.000 A 
ATOM      5  C   UNL     1       5.127   6.459  17.102  0.00  0.00    +0.000 A 
ATOM      6  C   UNL     1       6.246   7.288  17.224  0.00  0.00    +0.000 A 
ENDROOT
BRANCH   4   7
ATOM      7  C   UNL     1       3.840   4.432  17.800  0.00  0.00    +0.000 C 
ATOM      8  C   UNL     1       2.615   4.969  17.747  0.00  0.00    +0.000 C 
ATOM      9  C   UNL     1       1.353   4.172  17.764  0.00  0.00    +0.000 C 
ATOM     10  N   UNL     1       1.459   2.736  17.993  0.00  0.00    +0.000 NA
ATOM     11  C   UNL     1       0.748   2.288  19.180  0.00  0.00    +0.000 C 
ATOM     12  C   UNL     1       2.767   2.102  17.828  0.00  0.00    +0.000 C 
ATOM     13  C   UNL     1       4.051   2.954  17.847  0.00  0.00    +0.000 C 
ENDBRANCH   4   7
BRANCH   1  15
ATOM     14  C   UNL     1       8.183   9.297  17.808  0.00  0.00    +0.000 C 
ATOM     15  C   UNL     1       8.466   7.881  18.285  0.00  0.00    +0.000 C 
ENDBRANCH   1  15
TORSDOF 2
ENDMDL
MODEL 4
REMARK VINA RESULT:      -6.2      1.364      1.746
REMARK  Name = 
REMARK  4 active torsions:
REMARK  status: ('A' for Active; 'I' for Inactive)
REMARK    1  A    between atoms: C_1  and  C_2
REMARK    2  A    between atoms: C_2  and  C_3
REMARK    3  A    between atoms: C_6  and  C_7
REMARK    4  A    between atoms: N_10  and  C_11
REMARK                            x       y       z     vdW  Elec       q    Type
REMARK                         _______ _______ _______ _____ _____    ______ ____
ROOT
ATOM      1  C   UNL     1       6.483   4.605  15.369  0.00  0.00    +0.000 A 
ATOM      2  C   UNL     1       5.121   4.274  15.338  0.00  0.00    +0.000 A 
ATOM      3  C   UNL     1       4.412   4.098  16.529  0.00  0.00    +0.000 A 
ATOM      4  C   UNL     1       5.041   4.260  17.767  0.00  0.00    +0.000 A 
ATOM      5  C   UNL     1       6.395   4.615  17.801  0.00  0.00    +0.000 A 
ATOM      6  C   UNL     1       7.108   4.790  16.612  0.00  0.00    +0.000 A 
ENDROOT
BRANCH   4   7
ATOM      7  C   UNL     1       4.282   4.021  18.999  0.00  0.00    +0.000 C 
ATOM      8  C   UNL     1       4.385   2.851  19.640  0.00  0.00    +0.000 C 
ATOM      9  C   UNL     1       3.582   2.488  20.846  0.00  0.00    +0.000 C 
ATOM     10  N   UNL     1       2.528   3.404  21.263  0.00  0.00    +0.000 NA
ATOM     11  C   UNL     1       1.205   2.801  21.258  0.00  0.00    +0.000 C 
ATOM     12  C   UNL     1       2.545   4.768  20.733  0.00  0.00    +0.000 C 
ATOM     13  C   UNL     1       3.360   5.098  19.467  0.00  0.00    +0.000 C 
ENDBRANCH   4   7
BRANCH   1  15
ATOM     14  C   UNL     1       6.627   3.988  12.935  0.00  0.00    +0.000 C 
ATOM     15  C   UNL     1       7.256   4.758  14.085  0.00  0.00    +0.000 C 
ENDBRANCH   1  15
TORSDOF 2
ENDMDL
MODEL 5
REMARK VINA RESULT:      -6.2      2.212      2.685
REMARK  Name = 
REMARK  4 active torsions:
REMARK  status: ('A' for Active; 'I' for Inactive)
REMARK    1  A    between atoms: C_1  and  C_2
REMARK    2  A    between atoms: C_2  and  C_3
REMARK    3  A    between atoms: C_6  and  C_7
REMARK    4  A    between atoms: N_10  and  C_11
REMARK                            x       y       z     vdW  Elec       q    Type
REMARK                         _______ _______ _______ _____ _____    ______ ____
ROOT
ATOM      1  C   UNL     1       6.645   6.821  17.598  0.00  0.00    +0.000 A 
ATOM      2  C   UNL     1       6.822   5.940  18.673  0.00  0.00    +0.000 A 
ATOM      3  C   UNL     1       5.742   5.199  19.162  0.00  0.00    +0.000 A 
ATOM      4  C   UNL     1       4.475   5.315  18.584  0.00  0.00    +0.000 A 
ATOM      5  C   UNL     1       4.300   6.175  17.493  0.00  0.00    +0.000 A 
ATOM      6  C   UNL     1       5.378   6.919  17.002  0.00  0.00    +0.000 A 
ENDROOT
BRANCH   4   7
ATOM      7  C   UNL     1       3.352   4.561  19.150  0.00  0.00    +0.000 C 
ATOM      8  C   UNL     1       2.421   5.184  19.882  0.00  0.00    +0.000 C 
ATOM      9  C   UNL     1       1.296   4.484  20.572  0.00  0.00    +0.000 C 
ATOM     10  N   UNL     1       1.295   3.026  20.562  0.00  0.00    +0.000 NA
ATOM     11  C   UNL     1       1.341   2.441  21.893  0.00  0.00    +0.000 C 
ATOM     12  C   UNL     1       2.152   2.338  19.597  0.00  0.00    +0.000 C 
ATOM     13  C   UNL     1       3.323   3.084  18.928  0.00  0.00    +0.000 C 
ENDBRANCH   4   7
BRANCH   1  15
ATOM     14  C   UNL     1       8.212   8.728  18.081  0.00  0.00    +0.000 C 
ATOM     15  C   UNL     1       7.801   7.646  17.095  0.00  0.00    +0.000 C 
ENDBRANCH   1  15
TORSDOF 2
ENDMDL
MODEL 6
REMARK VINA RESULT:      -6.2      2.524      3.547
REMARK  Name = 
REMARK  4 active torsions:
REMARK  status: ('A' for Active; 'I' for Inactive)
REMARK    1  A    between atoms: C_1  and  C_2
REMARK    2  A    between atoms: C_2  and  C_3
REMARK    3  A    between atoms: C_6  and  C_7
REMARK    4  A    between atoms: N_10  and  C_11
REMARK                            x       y       z     vdW  Elec       q    Type
REMARK                         _______ _______ _______ _____ _____    ______ ____
ROOT
ATOM      1  C   UNL     1       7.158   7.157  17.695  0.00  0.00    +0.000 A 
ATOM      2  C   UNL     1       5.909   7.143  17.058  0.00  0.00    +0.000 A 
ATOM      3  C   UNL     1       4.993   6.122  17.327  0.00  0.00    +0.000 A 
ATOM      4  C   UNL     1       5.299   5.108  18.240  0.00  0.00    +0.000 A 
ATOM      5  C   UNL     1       6.536   5.134  18.896  0.00  0.00    +0.000 A 
ATOM      6  C   UNL     1       7.455   6.153  18.629  0.00  0.00    +0.000 A 
ENDROOT
BRANCH   4   7
ATOM      7  C   UNL     1       4.337   4.025  18.466  0.00  0.00    +0.000 C 
ATOM      8  C   UNL     1       3.822   3.352  17.429  0.00  0.00    +0.000 C 
ATOM      9  C   UNL     1       2.771   2.300  17.558  0.00  0.00    +0.000 C 
ATOM     10  N   UNL     1       2.172   2.094  18.871  0.00  0.00    +0.000 NA
ATOM     11  C   UNL     1       0.735   2.320  18.891  0.00  0.00    +0.000 C 
ATOM     12  C   UNL     1       2.860   2.640  20.041  0.00  0.00    +0.000 C 
ATOM     13  C   UNL     1       3.918   3.748  19.872  0.00  0.00    +0.000 C 
ENDBRANCH   4   7
BRANCH   1  15
ATOM     14  C   UNL     1       8.503   9.084  18.592  0.00  0.00    +0.000 C 
ATOM     15  C   UNL     1       8.159   8.237  17.377  0.00  0.00    +0.000 C 
ENDBRANCH   1  15
TORSDOF 2
ENDMDL
MODEL 7
REMARK VINA RESULT:      -6.1      2.338      2.850
REMARK  Name = 
REMARK  4 active torsions:
REMARK  status: ('A' for Active; 'I' for Inactive)
REMARK    1  A    between atoms: C_1  and  C_2
REMARK    2  A    between atoms: C_2  and  C_3
REMARK    3  A    between atoms: C_6  and  C_7
REMARK    4  A    between atoms: N_10  and  C_11
REMARK                            x       y       z     vdW  Elec       q    Type
REMARK                         _______ _______ _______ _____ _____    ______ ____
ROOT
ATOM      1  C   UNL     1       6.666   6.813  17.690  0.00  0.00    +0.000 A 
ATOM      2  C   UNL     1       5.363   7.019  17.216  0.00  0.00    +0.000 A 
ATOM      3  C   UNL     1       4.297   6.284  17.742  0.00  0.00    +0.000 A 
ATOM      4  C   UNL     1       4.508   5.343  18.754  0.00  0.00    +0.000 A 
ATOM      5  C   UNL     1       5.804   5.152  19.247  0.00  0.00    +0.000 A 
ATOM      6  C   UNL     1       6.873   5.885  18.722  0.00  0.00    +0.000 A 
ENDROOT
BRANCH   4   7
ATOM      7  C   UNL     1       3.377   4.553  19.251  0.00  0.00    +0.000 C 
ATOM      8  C   UNL     1       2.370   5.149  19.900  0.00  0.00    +0.000 C 
ATOM      9  C   UNL     1       1.227   4.415  20.520  0.00  0.00    +0.000 C 
ATOM     10  N   UNL     1       1.285   2.959  20.541  0.00  0.00    +0.000 NA
ATOM     11  C   UNL     1       1.255   2.400  21.884  0.00  0.00    +0.000 C 
ATOM     12  C   UNL     1       2.238   2.290  19.656  0.00  0.00    +0.000 C 
ATOM     13  C   UNL     1       3.425   3.073  19.060  0.00  0.00    +0.000 C 
ENDBRANCH   4   7
BRANCH   1  15
ATOM     14  C   UNL     1       8.155   8.830  17.894  0.00  0.00    +0.000 C 
ATOM     15  C   UNL     1       7.820   7.580  17.097  0.00  0.00    +0.000 C 
ENDBRANCH   1  15
TORSDOF 2
ENDMDL
MODEL 8
REMARK VINA RESULT:      -6.1      2.458      3.314
REMARK  Name = 
REMARK  4 active torsions:
REMARK  status: ('A' for Active; 'I' for Inactive)
REMARK    1  A    between atoms: C_1  and  C_2
REMARK    2  A    between atoms: C_2  and  C_3
REMARK    3  A    between atoms: C_6  and  C_7
REMARK    4  A    between atoms: N_10  and  C_11
REMARK                            x       y       z     vdW  Elec       q    Type
REMARK                         _______ _______ _______ _____ _____    ______ ____
ROOT
ATOM      1  C   UNL     1       7.166   7.098  17.744  0.00  0.00    +0.000 A 
ATOM      2  C   UNL     1       7.444   6.152  18.740  0.00  0.00    +0.000 A 
ATOM      3  C   UNL     1       6.468   5.231  19.130  0.00  0.00    +0.000 A 
ATOM      4  C   UNL     1       5.206   5.229  18.528  0.00  0.00    +0.000 A 
ATOM      5  C   UNL     1       4.934   6.157  17.515  0.00  0.00    +0.000 A 
ATOM      6  C   UNL     1       5.908   7.080  17.124  0.00  0.00    +0.000 A 
ENDROOT
BRANCH   4   7
ATOM      7  C   UNL     1       4.187   4.282  18.991  0.00  0.00    +0.000 C 
ATOM      8  C   UNL     1       4.170   3.026  18.527  0.00  0.00    +0.000 C 
ATOM      9  C   UNL     1       3.119   2.024  18.872  0.00  0.00    +0.000 C 
ATOM     10  N   UNL     1       1.970   2.482  19.644  0.00  0.00    +0.000 NA
ATOM     11  C   UNL     1       0.703   2.301  18.953  0.00  0.00    +0.000 C 
ATOM     12  C   UNL     1       2.071   3.762  20.344  0.00  0.00    +0.000 C 
ATOM     13  C   UNL     1       3.150   4.785  19.940  0.00  0.00    +0.000 C 
ENDBRANCH   4   7
BRANCH   1  15
ATOM     14  C   UNL     1       8.375   9.205  18.396  0.00  0.00    +0.000 C 
ATOM     15  C   UNL     1       8.208   8.114  17.351  0.00  0.00    +0.000 C 
ENDBRANCH   1  15
TORSDOF 2
ENDMDL
MODEL 9
REMARK VINA RESULT:      -6.1      3.623      5.713
REMARK  Name = 
REMARK  4 active torsions:
REMARK  status: ('A' for Active; 'I' for Inactive)
REMARK    1  A    between atoms: C_1  and  C_2
REMARK    2  A    between atoms: C_2  and  C_3
REMARK    3  A    between atoms: C_6  and  C_7
REMARK    4  A    between atoms: N_10  and  C_11
REMARK                            x       y       z     vdW  Elec       q    Type
REMARK                         _______ _______ _______ _____ _____    ______ ____
ROOT
ATOM      1  C   UNL     1       1.183   9.573  18.983  0.00  0.00    +0.000 A 
ATOM      2  C   UNL     1       1.128   8.962  20.243  0.00  0.00    +0.000 A 
ATOM      3  C   UNL     1       1.712   7.708  20.444  0.00  0.00    +0.000 A 
ATOM      4  C   UNL     1       2.369   7.049  19.400  0.00  0.00    +0.000 A 
ATOM      5  C   UNL     1       2.447   7.669  18.147  0.00  0.00    +0.000 A 
ATOM      6  C   UNL     1       1.863   8.922  17.942  0.00  0.00    +0.000 A 
ENDROOT
BRANCH   4   7
ATOM      7  C   UNL     1       2.929   5.714  19.629  0.00  0.00    +0.000 C 
ATOM      8  C   UNL     1       4.109   5.375  19.095  0.00  0.00    +0.000 C 
ATOM      9  C   UNL     1       4.711   4.013  19.198  0.00  0.00    +0.000 C 
ATOM     10  N   UNL     1       3.903   2.956  19.795  0.00  0.00    +0.000 NA
ATOM     11  C   UNL     1       3.656   1.842  18.893  0.00  0.00    +0.000 C 
ATOM     12  C   UNL     1       2.729   3.339  20.578  0.00  0.00    +0.000 C 
ATOM     13  C   UNL     1       2.115   4.744  20.421  0.00  0.00    +0.000 C 
ENDBRANCH   4   7
BRANCH   1  15
ATOM     14  C   UNL     1      -0.962  10.882  19.087  0.00  0.00    +0.000 C 
ATOM     15  C   UNL     1       0.522  10.908  18.757  0.00  0.00    +0.000 C 
ENDBRANCH   1  15
TORSDOF 2
ENDMDL
