MODEL 1
REMARK VINA RESULT:      -8.7      0.000      0.000
REMARK  Name = 
REMARK  10 active torsions:
REMARK  status: ('A' for Active; 'I' for Inactive)
REMARK    1  A    between atoms: C_2  and  C_4
REMARK    2  A    between atoms: C_4  and  N_5
REMARK    3  A    between atoms: N_5  and  C_6
REMARK    4  A    between atoms: N_5  and  C_14
REMARK    5  A    between atoms: C_6  and  C_7
REMARK    6  A    between atoms: C_7  and  N_8
REMARK    7  A    between atoms: C_14  and  C_15
REMARK    8  A    between atoms: C_19  and  C_20
REMARK    9  A    between atoms: C_23  and  O_24
REMARK   10  A    between atoms: O_24  and  C_25
REMARK                            x       y       z     vdW  Elec       q    Type
REMARK                         _______ _______ _______ _____ _____    ______ ____
ROOT
ATOM      1  C   UNL     1       4.021   4.072  19.446  0.00  0.00    +0.000 A 
ATOM      2  C   UNL     1       3.368   3.249  20.360  0.00  0.00    +0.000 A 
ATOM      3  C   UNL     1       2.157   3.628  20.917  0.00  0.00    +0.000 A 
ATOM      4  C   UNL     1       1.653   4.883  20.638  0.00  0.00    +0.000 A 
ATOM      5  C   UNL     1       2.397   5.736  19.833  0.00  0.00    +0.000 A 
ATOM      6  N   UNL     1       3.546   5.330  19.219  0.00  0.00    +0.000 NA
ENDROOT
BRANCH   5   7
ATOM      7  C   UNL     1       1.996   7.140  19.628  0.00  0.00    +0.000 A 
ATOM      8  C   UNL     1       2.237   7.808  18.408  0.00  0.00    +0.000 A 
ATOM      9  C   UNL     1       1.857   9.137  18.217  0.00  0.00    +0.000 A 
ATOM     10  C   UNL     1       1.213   9.828  19.238  0.00  0.00    +0.000 A 
ATOM     11  C   UNL     1       1.005   9.204  20.469  0.00  0.00    +0.000 A 
ATOM     12  C   UNL     1       1.361   7.865  20.648  0.00  0.00    +0.000 A 
BRANCH  10  13
ATOM     13  O   UNL     1       0.861  11.127  18.953  0.00  0.00    +0.000 OA
BRANCH  13  14
ATOM     14  C   UNL     1      -0.420  11.555  19.213  0.00  0.00    +0.000 A 
ATOM     15  C   UNL     1      -1.403  11.091  18.334  0.00  0.00    +0.000 A 
ATOM     16  C   UNL     1      -2.730  11.484  18.504  0.00  0.00    +0.000 A 
ATOM     17  C   UNL     1      -3.064  12.335  19.551  0.00  0.00    +0.000 A 
ATOM     18  F   UNL     1      -4.334  12.728  19.703  0.00  0.00    +0.000 F 
ATOM     19  C   UNL     1      -2.102  12.776  20.453  0.00  0.00    +0.000 A 
ATOM     20  C   UNL     1      -0.781  12.361  20.300  0.00  0.00    +0.000 A 
ENDBRANCH  13  14
ENDBRANCH  10  13
ENDBRANCH   5   7
BRANCH   1  21
ATOM     21  C   UNL     1       5.339   3.706  18.749  0.00  0.00    +0.000 C 
BRANCH  21  22
ATOM     22  N   UNL     1       5.995   4.691  17.827  0.00  0.00    +0.000 NA
BRANCH  22  23
ATOM     23  C   UNL     1       7.462   4.772  18.092  0.00  0.00    +0.000 C 
BRANCH  23  25
ATOM     24  N   UNL     1       8.273   6.959  18.829  0.00  0.00    +0.000 N 
ATOM     25  C   UNL     1       7.835   5.728  19.216  0.00  0.00    +0.000 C 
ATOM     26  O   UNL     1       7.800   5.410  20.401  0.00  0.00    +0.000 OA
ATOM     27  H   UNL     1       8.510   7.628  19.547  0.00  0.00    +0.000 HD
ATOM     28  H   UNL     1       8.242   7.251  17.862  0.00  0.00    +0.000 HD
ENDBRANCH  23  25
ENDBRANCH  22  23
BRANCH  22  29
ATOM     29  C   UNL     1       5.851   4.380  16.382  0.00  0.00    +0.000 C 
BRANCH  29  30
ATOM     30  C   UNL     1       6.637   5.282  15.399  0.00  0.00    +0.000 C 
BRANCH  30  31
ATOM     31  N   UNL     1       6.584   4.801  14.035  0.00  0.00    +0.000 N 
ATOM     32  C   UNL     1       5.862   3.601  13.662  0.00  0.00    +0.000 C 
ATOM     33  C   UNL     1       6.169   3.479  12.177  0.00  0.00    +0.000 C 
ATOM     34  N   UNL     1       7.416   4.181  12.049  0.00  0.00    +0.000 N 
ATOM     35  C   UNL     1       7.608   5.041  13.121  0.00  0.00    +0.000 C 
ATOM     36  O   UNL     1       8.519   5.841  13.230  0.00  0.00    +0.000 OA
ATOM     37  H   UNL     1       7.979   4.275  11.215  0.00  0.00    +0.000 HD
ENDBRANCH  30  31
ENDBRANCH  29  30
ENDBRANCH  22  29
ENDBRANCH  21  22
ENDBRANCH   1  21
TORSDOF 10
ENDMDL
MODEL 2
REMARK VINA RESULT:      -8.7      2.318      2.902
REMARK  Name = 
REMARK  10 active torsions:
REMARK  status: ('A' for Active; 'I' for Inactive)
REMARK    1  A    between atoms: C_2  and  C_4
REMARK    2  A    between atoms: C_4  and  N_5
REMARK    3  A    between atoms: N_5  and  C_6
REMARK    4  A    between atoms: N_5  and  C_14
REMARK    5  A    between atoms: C_6  and  C_7
REMARK    6  A    between atoms: C_7  and  N_8
REMARK    7  A    between atoms: C_14  and  C_15
REMARK    8  A    between atoms: C_19  and  C_20
REMARK    9  A    between atoms: C_23  and  O_24
REMARK   10  A    between atoms: O_24  and  C_25
REMARK                            x       y       z     vdW  Elec       q    Type
REMARK                         _______ _______ _______ _____ _____    ______ ____
ROOT
ATOM      1  C   UNL     1       3.954   4.416  19.374  0.00  0.00    +0.000 A 
ATOM      2  C   UNL     1       3.349   3.637  20.356  0.00  0.00    +0.000 A 
ATOM      3  C   UNL     1       2.173   4.048  20.964  0.00  0.00    +0.000 A 
ATOM      4  C   UNL     1       1.661   5.294  20.662  0.00  0.00    +0.000 A 
ATOM      5  C   UNL     1       2.363   6.107  19.781  0.00  0.00    +0.000 A 
ATOM      6  N   UNL     1       3.473   5.667  19.121  0.00  0.00    +0.000 NA
ENDROOT
BRANCH   5   7
ATOM      7  C   UNL     1       1.958   7.505  19.540  0.00  0.00    +0.000 A 
ATOM      8  C   UNL     1       1.315   8.270  20.537  0.00  0.00    +0.000 A 
ATOM      9  C   UNL     1       0.933   9.592  20.307  0.00  0.00    +0.000 A 
ATOM     10  C   UNL     1       1.198  10.188  19.078  0.00  0.00    +0.000 A 
ATOM     11  C   UNL     1       1.791   9.438  18.062  0.00  0.00    +0.000 A 
ATOM     12  C   UNL     1       2.197   8.123  18.305  0.00  0.00    +0.000 A 
BRANCH  10  13
ATOM     13  O   UNL     1       0.801  11.498  18.949  0.00  0.00    +0.000 OA
BRANCH  13  14
ATOM     14  C   UNL     1       1.722  12.506  19.116  0.00  0.00    +0.000 A 
ATOM     15  C   UNL     1       1.870  12.979  20.422  0.00  0.00    +0.000 A 
ATOM     16  C   UNL     1       2.768  14.013  20.690  0.00  0.00    +0.000 A 
ATOM     17  C   UNL     1       3.510  14.562  19.650  0.00  0.00    +0.000 A 
ATOM     18  F   UNL     1       4.357  15.567  19.904  0.00  0.00    +0.000 F 
ATOM     19  C   UNL     1       3.397  14.077  18.353  0.00  0.00    +0.000 A 
ATOM     20  C   UNL     1       2.521  13.025  18.090  0.00  0.00    +0.000 A 
ENDBRANCH  13  14
ENDBRANCH  10  13
ENDBRANCH   5   7
BRANCH   1  21
ATOM     21  C   UNL     1       5.229   4.012  18.620  0.00  0.00    +0.000 C 
BRANCH  21  22
ATOM     22  N   UNL     1       5.985   5.036  17.828  0.00  0.00    +0.000 NA
BRANCH  22  23
ATOM     23  C   UNL     1       7.455   4.906  18.055  0.00  0.00    +0.000 C 
BRANCH  23  25
ATOM     24  N   UNL     1       8.246   5.473  20.298  0.00  0.00    +0.000 N 
ATOM     25  C   UNL     1       8.023   5.925  19.032  0.00  0.00    +0.000 C 
ATOM     26  O   UNL     1       8.222   7.098  18.731  0.00  0.00    +0.000 OA
ATOM     27  H   UNL     1       8.643   6.115  20.970  0.00  0.00    +0.000 HD
ATOM     28  H   UNL     1       8.147   4.496  20.536  0.00  0.00    +0.000 HD
ENDBRANCH  23  25
ENDBRANCH  22  23
BRANCH  22  29
ATOM     29  C   UNL     1       5.784   4.959  16.359  0.00  0.00    +0.000 C 
BRANCH  29  30
ATOM     30  C   UNL     1       7.060   5.010  15.482  0.00  0.00    +0.000 C 
BRANCH  30  31
ATOM     31  N   UNL     1       6.797   4.695  14.094  0.00  0.00    +0.000 N 
ATOM     32  C   UNL     1       6.023   3.538  13.693  0.00  0.00    +0.000 C 
ATOM     33  C   UNL     1       6.098   3.600  12.175  0.00  0.00    +0.000 C 
ATOM     34  N   UNL     1       7.313   4.332  11.945  0.00  0.00    +0.000 N 
ATOM     35  C   UNL     1       7.669   5.060  13.070  0.00  0.00    +0.000 C 
ATOM     36  O   UNL     1       8.587   5.856  13.135  0.00  0.00    +0.000 OA
ATOM     37  H   UNL     1       7.741   4.534  11.052  0.00  0.00    +0.000 HD
ENDBRANCH  30  31
ENDBRANCH  29  30
ENDBRANCH  22  29
ENDBRANCH  21  22
ENDBRANCH   1  21
TORSDOF 10
ENDMDL
MODEL 3
REMARK VINA RESULT:      -8.3      2.962      4.894
REMARK  Name = 
REMARK  10 active torsions:
REMARK  status: ('A' for Active; 'I' for Inactive)
REMARK    1  A    between atoms: C_2  and  C_4
REMARK    2  A    between atoms: C_4  and  N_5
REMARK    3  A    between atoms: N_5  and  C_6
REMARK    4  A    between atoms: N_5  and  C_14
REMARK    5  A    between atoms: C_6  and  C_7
REMARK    6  A    between atoms: C_7  and  N_8
REMARK    7  A    between atoms: C_14  and  C_15
REMARK    8  A    between atoms: C_19  and  C_20
REMARK    9  A    between atoms: C_23  and  O_24
REMARK   10  A    between atoms: O_24  and  C_25
REMARK                            x       y       z     vdW  Elec       q    Type
REMARK                         _______ _______ _______ _____ _____    ______ ____
ROOT
ATOM      1  C   UNL     1       2.827   6.665  19.242  0.00  0.00    +0.000 A 
ATOM      2  C   UNL     1       3.001   7.109  17.934  0.00  0.00    +0.000 A 
ATOM      3  C   UNL     1       2.574   8.370  17.550  0.00  0.00    +0.000 A 
ATOM      4  C   UNL     1       1.873   9.145  18.453  0.00  0.00    +0.000 A 
ATOM      5  C   UNL     1       1.594   8.618  19.707  0.00  0.00    +0.000 A 
ATOM      6  N   UNL     1       2.088   7.412  20.110  0.00  0.00    +0.000 NA
ENDROOT
BRANCH   5   7
ATOM      7  C   UNL     1       0.715   9.326  20.657  0.00  0.00    +0.000 A 
ATOM      8  C   UNL     1       0.357   8.756  21.897  0.00  0.00    +0.000 A 
ATOM      9  C   UNL     1      -0.475   9.428  22.795  0.00  0.00    +0.000 A 
ATOM     10  C   UNL     1      -0.958  10.694  22.479  0.00  0.00    +0.000 A 
ATOM     11  C   UNL     1      -0.655  11.258  21.239  0.00  0.00    +0.000 A 
ATOM     12  C   UNL     1       0.200  10.595  20.355  0.00  0.00    +0.000 A 
BRANCH  10  13
ATOM     13  O   UNL     1      -1.756  11.286  23.430  0.00  0.00    +0.000 OA
BRANCH  13  14
ATOM     14  C   UNL     1      -2.231  12.559  23.221  0.00  0.00    +0.000 A 
ATOM     15  C   UNL     1      -3.544  12.645  22.752  0.00  0.00    +0.000 A 
ATOM     16  C   UNL     1      -4.110  13.894  22.493  0.00  0.00    +0.000 A 
ATOM     17  C   UNL     1      -3.358  15.044  22.705  0.00  0.00    +0.000 A 
ATOM     18  F   UNL     1      -3.895  16.241  22.438  0.00  0.00    +0.000 F 
ATOM     19  C   UNL     1      -2.063  14.973  23.204  0.00  0.00    +0.000 A 
ATOM     20  C   UNL     1      -1.507  13.728  23.491  0.00  0.00    +0.000 A 
ENDBRANCH  13  14
ENDBRANCH  10  13
ENDBRANCH   5   7
BRANCH   1  21
ATOM     21  C   UNL     1       3.313   5.302  19.759  0.00  0.00    +0.000 C 
BRANCH  21  22
ATOM     22  N   UNL     1       3.424   4.143  18.815  0.00  0.00    +0.000 NA
BRANCH  22  23
ATOM     23  C   UNL     1       2.127   3.896  18.119  0.00  0.00    +0.000 C 
BRANCH  23  25
ATOM     24  N   UNL     1       2.362   1.508  18.594  0.00  0.00    +0.000 N 
ATOM     25  C   UNL     1       1.496   2.550  18.446  0.00  0.00    +0.000 C 
ATOM     26  O   UNL     1       0.282   2.383  18.523  0.00  0.00    +0.000 OA
ATOM     27  H   UNL     1       1.983   0.603  18.832  0.00  0.00    +0.000 HD
ATOM     28  H   UNL     1       3.363   1.649  18.598  0.00  0.00    +0.000 HD
ENDBRANCH  23  25
ENDBRANCH  22  23
BRANCH  22  29
ATOM     29  C   UNL     1       4.443   4.306  17.746  0.00  0.00    +0.000 C 
BRANCH  29  30
ATOM     30  C   UNL     1       5.925   4.215  18.184  0.00  0.00    +0.000 C 
BRANCH  30  31
ATOM     31  N   UNL     1       6.577   5.507  18.220  0.00  0.00    +0.000 N 
ATOM     32  C   UNL     1       6.833   6.282  17.023  0.00  0.00    +0.000 C 
ATOM     33  C   UNL     1       7.588   7.487  17.564  0.00  0.00    +0.000 C 
ATOM     34  N   UNL     1       8.169   6.981  18.777  0.00  0.00    +0.000 N 
ATOM     35  C   UNL     1       7.494   5.850  19.211  0.00  0.00    +0.000 C 
ATOM     36  O   UNL     1       7.692   5.270  20.263  0.00  0.00    +0.000 OA
ATOM     37  H   UNL     1       8.797   7.470  19.401  0.00  0.00    +0.000 HD
ENDBRANCH  30  31
ENDBRANCH  29  30
ENDBRANCH  22  29
ENDBRANCH  21  22
ENDBRANCH   1  21
TORSDOF 10
ENDMDL
MODEL 4
REMARK VINA RESULT:      -8.2      1.084      1.595
REMARK  Name = 
REMARK  10 active torsions:
REMARK  status: ('A' for Active; 'I' for Inactive)
REMARK    1  A    between atoms: C_2  and  C_4
REMARK    2  A    between atoms: C_4  and  N_5
REMARK    3  A    between atoms: N_5  and  C_6
REMARK    4  A    between atoms: N_5  and  C_14
REMARK    5  A    between atoms: C_6  and  C_7
REMARK    6  A    between atoms: C_7  and  N_8
REMARK    7  A    between atoms: C_14  and  C_15
REMARK    8  A    between atoms: C_19  and  C_20
REMARK    9  A    between atoms: C_23  and  O_24
REMARK   10  A    between atoms: O_24  and  C_25
REMARK                            x       y       z     vdW  Elec       q    Type
REMARK                         _______ _______ _______ _____ _____    ______ ____
ROOT
ATOM      1  C   UNL     1       4.247   4.970  19.393  0.00  0.00    +0.000 A 
ATOM      2  C   UNL     1       3.582   3.979  20.111  0.00  0.00    +0.000 A 
ATOM      3  C   UNL     1       2.274   4.164  20.529  0.00  0.00    +0.000 A 
ATOM      4  C   UNL     1       1.669   5.388  20.321  0.00  0.00    +0.000 A 
ATOM      5  C   UNL     1       2.406   6.403  19.727  0.00  0.00    +0.000 A 
ATOM      6  N   UNL     1       3.664   6.193  19.240  0.00  0.00    +0.000 NA
ENDROOT
BRANCH   5   7
ATOM      7  C   UNL     1       1.876   7.776  19.622  0.00  0.00    +0.000 A 
ATOM      8  C   UNL     1       1.242   8.408  20.713  0.00  0.00    +0.000 A 
ATOM      9  C   UNL     1       0.740   9.707  20.612  0.00  0.00    +0.000 A 
ATOM     10  C   UNL     1       0.873  10.411  19.420  0.00  0.00    +0.000 A 
ATOM     11  C   UNL     1       1.456   9.791  18.314  0.00  0.00    +0.000 A 
ATOM     12  C   UNL     1       1.981   8.501  18.427  0.00  0.00    +0.000 A 
BRANCH  10  13
ATOM     13  O   UNL     1       0.365  11.689  19.418  0.00  0.00    +0.000 OA
BRANCH  13  14
ATOM     14  C   UNL     1      -0.997  11.877  19.392  0.00  0.00    +0.000 A 
ATOM     15  C   UNL     1      -1.533  12.568  20.483  0.00  0.00    +0.000 A 
ATOM     16  C   UNL     1      -2.908  12.794  20.556  0.00  0.00    +0.000 A 
ATOM     17  C   UNL     1      -3.733  12.329  19.539  0.00  0.00    +0.000 A 
ATOM     18  F   UNL     1      -5.054  12.529  19.619  0.00  0.00    +0.000 F 
ATOM     19  C   UNL     1      -3.209  11.672  18.433  0.00  0.00    +0.000 A 
ATOM     20  C   UNL     1      -1.833  11.470  18.345  0.00  0.00    +0.000 A 
ENDBRANCH  13  14
ENDBRANCH  10  13
ENDBRANCH   5   7
BRANCH   1  21
ATOM     21  C   UNL     1       5.678   4.826  18.853  0.00  0.00    +0.000 C 
BRANCH  21  22
ATOM     22  N   UNL     1       6.120   5.650  17.682  0.00  0.00    +0.000 NA
BRANCH  22  23
ATOM     23  C   UNL     1       7.567   5.999  17.793  0.00  0.00    +0.000 C 
BRANCH  23  25
ATOM     24  N   UNL     1       8.610   7.861  18.989  0.00  0.00    +0.000 N 
ATOM     25  C   UNL     1       7.834   7.492  17.931  0.00  0.00    +0.000 C 
ATOM     26  O   UNL     1       7.345   8.329  17.179  0.00  0.00    +0.000 OA
ATOM     27  H   UNL     1       8.827   8.841  19.102  0.00  0.00    +0.000 HD
ATOM     28  H   UNL     1       9.069   7.175  19.573  0.00  0.00    +0.000 HD
ENDBRANCH  23  25
ENDBRANCH  22  23
BRANCH  22  29
ATOM     29  C   UNL     1       5.953   4.993  16.360  0.00  0.00    +0.000 C 
BRANCH  29  30
ATOM     30  C   UNL     1       7.206   4.937  15.452  0.00  0.00    +0.000 C 
BRANCH  30  31
ATOM     31  N   UNL     1       6.882   4.661  14.068  0.00  0.00    +0.000 N 
ATOM     32  C   UNL     1       6.108   3.504  13.667  0.00  0.00    +0.000 C 
ATOM     33  C   UNL     1       6.108   3.615  12.150  0.00  0.00    +0.000 C 
ATOM     34  N   UNL     1       7.299   4.376  11.886  0.00  0.00    +0.000 N 
ATOM     35  C   UNL     1       7.697   5.074  13.017  0.00  0.00    +0.000 C 
ATOM     36  O   UNL     1       8.605   5.883  13.064  0.00  0.00    +0.000 OA
ATOM     37  H   UNL     1       7.680   4.614  10.981  0.00  0.00    +0.000 HD
ENDBRANCH  30  31
ENDBRANCH  29  30
ENDBRANCH  22  29
ENDBRANCH  21  22
ENDBRANCH   1  21
TORSDOF 10
ENDMDL
MODEL 5
REMARK VINA RESULT:      -8.2      2.744      4.709
REMARK  Name = 
REMARK  10 active torsions:
REMARK  status: ('A' for Active; 'I' for Inactive)
REMARK    1  A    between atoms: C_2  and  C_4
REMARK    2  A    between atoms: C_4  and  N_5
REMARK    3  A    between atoms: N_5  and  C_6
REMARK    4  A    between atoms: N_5  and  C_14
REMARK    5  A    between atoms: C_6  and  C_7
REMARK    6  A    between atoms: C_7  and  N_8
REMARK    7  A    between atoms: C_14  and  C_15
REMARK    8  A    between atoms: C_19  and  C_20
REMARK    9  A    between atoms: C_23  and  O_24
REMARK   10  A    between atoms: O_24  and  C_25
REMARK                            x       y       z     vdW  Elec       q    Type
REMARK                         _______ _______ _______ _____ _____    ______ ____
ROOT
ATOM      1  C   UNL     1       2.624   7.036  19.439  0.00  0.00    +0.000 A 
ATOM      2  C   UNL     1       2.489   7.219  18.065  0.00  0.00    +0.000 A 
ATOM      3  C   UNL     1       1.891   8.361  17.558  0.00  0.00    +0.000 A 
ATOM      4  C   UNL     1       1.331   9.272  18.432  0.00  0.00    +0.000 A 
ATOM      5  C   UNL     1       1.360   8.993  19.792  0.00  0.00    +0.000 A 
ATOM      6  N   UNL     1       2.023   7.911  20.294  0.00  0.00    +0.000 NA
ENDROOT
BRANCH   5   7
ATOM      7  C   UNL     1       0.642   9.840  20.763  0.00  0.00    +0.000 A 
ATOM      8  C   UNL     1       0.576  11.242  20.614  0.00  0.00    +0.000 A 
ATOM      9  C   UNL     1      -0.103  12.042  21.534  0.00  0.00    +0.000 A 
ATOM     10  C   UNL     1      -0.746  11.457  22.620  0.00  0.00    +0.000 A 
ATOM     11  C   UNL     1      -0.656  10.078  22.814  0.00  0.00    +0.000 A 
ATOM     12  C   UNL     1       0.001   9.277  21.876  0.00  0.00    +0.000 A 
BRANCH  10  13
ATOM     13  O   UNL     1      -1.404  12.321  23.464  0.00  0.00    +0.000 OA
BRANCH  13  14
ATOM     14  C   UNL     1      -2.697  12.694  23.181  0.00  0.00    +0.000 A 
ATOM     15  C   UNL     1      -3.637  12.421  24.178  0.00  0.00    +0.000 A 
ATOM     16  C   UNL     1      -4.979  12.747  23.977  0.00  0.00    +0.000 A 
ATOM     17  C   UNL     1      -5.368  13.342  22.783  0.00  0.00    +0.000 A 
ATOM     18  F   UNL     1      -6.658  13.636  22.583  0.00  0.00    +0.000 F 
ATOM     19  C   UNL     1      -4.437  13.650  21.798  0.00  0.00    +0.000 A 
ATOM     20  C   UNL     1      -3.093  13.351  22.010  0.00  0.00    +0.000 A 
ENDBRANCH  13  14
ENDBRANCH  10  13
ENDBRANCH   5   7
BRANCH   1  21
ATOM     21  C   UNL     1       3.315   5.823  20.080  0.00  0.00    +0.000 C 
BRANCH  21  22
ATOM     22  N   UNL     1       2.949   4.437  19.641  0.00  0.00    +0.000 NA
BRANCH  22  23
ATOM     23  C   UNL     1       1.488   4.340  19.350  0.00  0.00    +0.000 C 
BRANCH  23  25
ATOM     24  N   UNL     1       0.783   2.796  21.111  0.00  0.00    +0.000 N 
ATOM     25  C   UNL     1       0.861   3.018  19.768  0.00  0.00    +0.000 C 
ATOM     26  O   UNL     1       0.492   2.170  18.962  0.00  0.00    +0.000 OA
ATOM     27  H   UNL     1       0.353   1.939  21.428  0.00  0.00    +0.000 HD
ATOM     28  H   UNL     1       1.022   3.514  21.780  0.00  0.00    +0.000 HD
ENDBRANCH  23  25
ENDBRANCH  22  23
BRANCH  22  29
ATOM     29  C   UNL     1       3.647   3.968  18.417  0.00  0.00    +0.000 C 
BRANCH  29  30
ATOM     30  C   UNL     1       5.170   3.716  18.544  0.00  0.00    +0.000 C 
BRANCH  30  31
ATOM     31  N   UNL     1       5.918   4.242  17.421  0.00  0.00    +0.000 N 
ATOM     32  C   UNL     1       5.510   4.030  16.048  0.00  0.00    +0.000 C 
ATOM     33  C   UNL     1       6.633   4.689  15.263  0.00  0.00    +0.000 C 
ATOM     34  N   UNL     1       7.740   4.629  16.177  0.00  0.00    +0.000 N 
ATOM     35  C   UNL     1       7.293   4.456  17.479  0.00  0.00    +0.000 C 
ATOM     36  O   UNL     1       7.994   4.477  18.474  0.00  0.00    +0.000 OA
ATOM     37  H   UNL     1       8.692   4.919  16.000  0.00  0.00    +0.000 HD
ENDBRANCH  30  31
ENDBRANCH  29  30
ENDBRANCH  22  29
ENDBRANCH  21  22
ENDBRANCH   1  21
TORSDOF 10
ENDMDL
MODEL 6
REMARK VINA RESULT:      -8.1      2.930      5.261
REMARK  Name = 
REMARK  10 active torsions:
REMARK  status: ('A' for Active; 'I' for Inactive)
REMARK    1  A    between atoms: C_2  and  C_4
REMARK    2  A    between atoms: C_4  and  N_5
REMARK    3  A    between atoms: N_5  and  C_6
REMARK    4  A    between atoms: N_5  and  C_14
REMARK    5  A    between atoms: C_6  and  C_7
REMARK    6  A    between atoms: C_7  and  N_8
REMARK    7  A    between atoms: C_14  and  C_15
REMARK    8  A    between atoms: C_19  and  C_20
REMARK    9  A    between atoms: C_23  and  O_24
REMARK   10  A    between atoms: O_24  and  C_25
REMARK                            x       y       z     vdW  Elec       q    Type
REMARK                         _______ _______ _______ _____ _____    ______ ____
ROOT
ATOM      1  C   UNL     1       3.005   6.721  19.116  0.00  0.00    +0.000 A 
ATOM      2  C   UNL     1       2.950   7.090  17.774  0.00  0.00    +0.000 A 
ATOM      3  C   UNL     1       2.358   8.282  17.390  0.00  0.00    +0.000 A 
ATOM      4  C   UNL     1       1.723   9.054  18.343  0.00  0.00    +0.000 A 
ATOM      5  C   UNL     1       1.674   8.591  19.651  0.00  0.00    +0.000 A 
ATOM      6  N   UNL     1       2.330   7.461  20.042  0.00  0.00    +0.000 NA
ENDROOT
BRANCH   5   7
ATOM      7  C   UNL     1       0.877   9.285  20.680  0.00  0.00    +0.000 A 
ATOM      8  C   UNL     1       0.695  10.685  20.654  0.00  0.00    +0.000 A 
ATOM      9  C   UNL     1      -0.059  11.340  21.629  0.00  0.00    +0.000 A 
ATOM     10  C   UNL     1      -0.662  10.608  22.647  0.00  0.00    +0.000 A 
ATOM     11  C   UNL     1      -0.459   9.229  22.720  0.00  0.00    +0.000 A 
ATOM     12  C   UNL     1       0.274   8.574  21.726  0.00  0.00    +0.000 A 
BRANCH  10  13
ATOM     13  O   UNL     1      -1.399  11.335  23.553  0.00  0.00    +0.000 OA
BRANCH  13  14
ATOM     14  C   UNL     1      -2.064  12.465  23.135  0.00  0.00    +0.000 A 
ATOM     15  C   UNL     1      -1.458  13.680  23.468  0.00  0.00    +0.000 A 
ATOM     16  C   UNL     1      -2.064  14.882  23.104  0.00  0.00    +0.000 A 
ATOM     17  C   UNL     1      -3.269  14.860  22.410  0.00  0.00    +0.000 A 
ATOM     18  F   UNL     1      -3.860  16.013  22.078  0.00  0.00    +0.000 F 
ATOM     19  C   UNL     1      -3.863  13.658  22.043  0.00  0.00    +0.000 A 
ATOM     20  C   UNL     1      -3.244  12.457  22.382  0.00  0.00    +0.000 A 
ENDBRANCH  13  14
ENDBRANCH  10  13
ENDBRANCH   5   7
BRANCH   1  21
ATOM     21  C   UNL     1       3.684   5.443  19.629  0.00  0.00    +0.000 C 
BRANCH  21  22
ATOM     22  N   UNL     1       4.672   4.723  18.762  0.00  0.00    +0.000 NA
BRANCH  22  23
ATOM     23  C   UNL     1       6.060   5.205  19.024  0.00  0.00    +0.000 C 
BRANCH  23  25
ATOM     24  N   UNL     1       8.042   4.296  17.915  0.00  0.00    +0.000 N 
ATOM     25  C   UNL     1       6.977   5.140  17.811  0.00  0.00    +0.000 C 
ATOM     26  O   UNL     1       6.814   5.835  16.813  0.00  0.00    +0.000 OA
ATOM     27  H   UNL     1       8.661   4.209  17.122  0.00  0.00    +0.000 HD
ATOM     28  H   UNL     1       8.147   3.672  18.704  0.00  0.00    +0.000 HD
ENDBRANCH  23  25
ENDBRANCH  22  23
BRANCH  22  29
ATOM     29  C   UNL     1       4.704   3.249  18.946  0.00  0.00    +0.000 C 
BRANCH  29  30
ATOM     30  C   UNL     1       3.971   2.692  20.191  0.00  0.00    +0.000 C 
BRANCH  30  31
ATOM     31  N   UNL     1       2.559   2.471  19.956  0.00  0.00    +0.000 N 
ATOM     32  C   UNL     1       1.986   2.462  18.625  0.00  0.00    +0.000 C 
ATOM     33  C   UNL     1       0.502   2.278  18.906  0.00  0.00    +0.000 C 
ATOM     34  N   UNL     1       0.362   2.799  20.238  0.00  0.00    +0.000 N 
ATOM     35  C   UNL     1       1.586   2.821  20.889  0.00  0.00    +0.000 C 
ATOM     36  O   UNL     1       1.758   3.109  22.059  0.00  0.00    +0.000 OA
ATOM     37  H   UNL     1      -0.496   2.904  20.762  0.00  0.00    +0.000 HD
ENDBRANCH  30  31
ENDBRANCH  29  30
ENDBRANCH  22  29
ENDBRANCH  21  22
ENDBRANCH   1  21
TORSDOF 10
ENDMDL
MODEL 7
REMARK VINA RESULT:      -8.0      2.923      5.301
REMARK  Name = 
REMARK  10 active torsions:
REMARK  status: ('A' for Active; 'I' for Inactive)
REMARK    1  A    between atoms: C_2  and  C_4
REMARK    2  A    between atoms: C_4  and  N_5
REMARK    3  A    between atoms: N_5  and  C_6
REMARK    4  A    between atoms: N_5  and  C_14
REMARK    5  A    between atoms: C_6  and  C_7
REMARK    6  A    between atoms: C_7  and  N_8
REMARK    7  A    between atoms: C_14  and  C_15
REMARK    8  A    between atoms: C_19  and  C_20
REMARK    9  A    between atoms: C_23  and  O_24
REMARK   10  A    between atoms: O_24  and  C_25
REMARK                            x       y       z     vdW  Elec       q    Type
REMARK                         _______ _______ _______ _____ _____    ______ ____
ROOT
ATOM      1  C   UNL     1       2.876   6.775  19.216  0.00  0.00    +0.000 A 
ATOM      2  C   UNL     1       2.832   7.119  17.868  0.00  0.00    +0.000 A 
ATOM      3  C   UNL     1       2.260   8.313  17.459  0.00  0.00    +0.000 A 
ATOM      4  C   UNL     1       1.634   9.113  18.395  0.00  0.00    +0.000 A 
ATOM      5  C   UNL     1       1.573   8.675  19.711  0.00  0.00    +0.000 A 
ATOM      6  N   UNL     1       2.210   7.541  20.126  0.00  0.00    +0.000 NA
ENDROOT
BRANCH   5   7
ATOM      7  C   UNL     1       0.784   9.400  20.725  0.00  0.00    +0.000 A 
ATOM      8  C   UNL     1       0.719  10.810  20.741  0.00  0.00    +0.000 A 
ATOM      9  C   UNL     1      -0.028  11.495  21.701  0.00  0.00    +0.000 A 
ATOM     10  C   UNL     1      -0.742  10.784  22.661  0.00  0.00    +0.000 A 
ATOM     11  C   UNL     1      -0.657   9.391  22.693  0.00  0.00    +0.000 A 
ATOM     12  C   UNL     1       0.070   8.709  21.714  0.00  0.00    +0.000 A 
BRANCH  10  13
ATOM     13  O   UNL     1      -1.462  11.541  23.554  0.00  0.00    +0.000 OA
BRANCH  13  14
ATOM     14  C   UNL     1      -2.662  12.091  23.166  0.00  0.00    +0.000 A 
ATOM     15  C   UNL     1      -3.567  12.357  24.197  0.00  0.00    +0.000 A 
ATOM     16  C   UNL     1      -4.818  12.899  23.902  0.00  0.00    +0.000 A 
ATOM     17  C   UNL     1      -5.152  13.171  22.580  0.00  0.00    +0.000 A 
ATOM     18  F   UNL     1      -6.360  13.672  22.296  0.00  0.00    +0.000 F 
ATOM     19  C   UNL     1      -4.248  12.943  21.550  0.00  0.00    +0.000 A 
ATOM     20  C   UNL     1      -2.988  12.428  21.847  0.00  0.00    +0.000 A 
ENDBRANCH  13  14
ENDBRANCH  10  13
ENDBRANCH   5   7
BRANCH   1  21
ATOM     21  C   UNL     1       3.532   5.495  19.755  0.00  0.00    +0.000 C 
BRANCH  21  22
ATOM     22  N   UNL     1       4.602   4.812  18.958  0.00  0.00    +0.000 NA
BRANCH  22  23
ATOM     23  C   UNL     1       5.951   5.348  19.307  0.00  0.00    +0.000 C 
BRANCH  23  25
ATOM     24  N   UNL     1       6.142   5.795  16.910  0.00  0.00    +0.000 N 
ATOM     25  C   UNL     1       6.668   6.022  18.146  0.00  0.00    +0.000 C 
ATOM     26  O   UNL     1       7.690   6.687  18.289  0.00  0.00    +0.000 OA
ATOM     27  H   UNL     1       6.578   6.242  16.116  0.00  0.00    +0.000 HD
ATOM     28  H   UNL     1       5.266   5.304  16.790  0.00  0.00    +0.000 HD
ENDBRANCH  23  25
ENDBRANCH  22  23
BRANCH  22  29
ATOM     29  C   UNL     1       4.679   3.341  19.151  0.00  0.00    +0.000 C 
BRANCH  29  30
ATOM     30  C   UNL     1       3.875   2.757  20.338  0.00  0.00    +0.000 C 
BRANCH  30  31
ATOM     31  N   UNL     1       2.495   2.480  19.997  0.00  0.00    +0.000 N 
ATOM     32  C   UNL     1       2.008   2.529  18.633  0.00  0.00    +0.000 C 
ATOM     33  C   UNL     1       0.522   2.251  18.803  0.00  0.00    +0.000 C 
ATOM     34  N   UNL     1       0.270   2.677  20.152  0.00  0.00    +0.000 N 
ATOM     35  C   UNL     1       1.447   2.718  20.883  0.00  0.00    +0.000 C 
ATOM     36  O   UNL     1       1.530   2.937  22.077  0.00  0.00    +0.000 OA
ATOM     37  H   UNL     1      -0.624   2.703  20.624  0.00  0.00    +0.000 HD
ENDBRANCH  30  31
ENDBRANCH  29  30
ENDBRANCH  22  29
ENDBRANCH  21  22
ENDBRANCH   1  21
TORSDOF 10
ENDMDL
MODEL 8
REMARK VINA RESULT:      -8.0      1.956      3.891
REMARK  Name = 
REMARK  10 active torsions:
REMARK  status: ('A' for Active; 'I' for Inactive)
REMARK    1  A    between atoms: C_2  and  C_4
REMARK    2  A    between atoms: C_4  and  N_5
REMARK    3  A    between atoms: N_5  and  C_6
REMARK    4  A    between atoms: N_5  and  C_14
REMARK    5  A    between atoms: C_6  and  C_7
REMARK    6  A    between atoms: C_7  and  N_8
REMARK    7  A    between atoms: C_14  and  C_15
REMARK    8  A    between atoms: C_19  and  C_20
REMARK    9  A    between atoms: C_23  and  O_24
REMARK   10  A    between atoms: O_24  and  C_25
REMARK                            x       y       z     vdW  Elec       q    Type
REMARK                         _______ _______ _______ _____ _____    ______ ____
ROOT
ATOM      1  C   UNL     1       4.068   5.447  19.500  0.00  0.00    +0.000 A 
ATOM      2  C   UNL     1       3.624   4.531  20.450  0.00  0.00    +0.000 A 
ATOM      3  C   UNL     1       2.400   4.697  21.077  0.00  0.00    +0.000 A 
ATOM      4  C   UNL     1       1.667   5.841  20.828  0.00  0.00    +0.000 A 
ATOM      5  C   UNL     1       2.201   6.802  19.980  0.00  0.00    +0.000 A 
ATOM      6  N   UNL     1       3.367   6.598  19.300  0.00  0.00    +0.000 NA
ENDROOT
BRANCH   5   7
ATOM      7  C   UNL     1       1.548   8.112  19.799  0.00  0.00    +0.000 A 
ATOM      8  C   UNL     1       1.696   8.854  18.607  0.00  0.00    +0.000 A 
ATOM      9  C   UNL     1       1.077  10.093  18.438  0.00  0.00    +0.000 A 
ATOM     10  C   UNL     1       0.283  10.616  19.453  0.00  0.00    +0.000 A 
ATOM     11  C   UNL     1       0.158   9.923  20.658  0.00  0.00    +0.000 A 
ATOM     12  C   UNL     1       0.757   8.670  20.814  0.00  0.00    +0.000 A 
BRANCH  10  13
ATOM     13  O   UNL     1      -0.300  11.834  19.192  0.00  0.00    +0.000 OA
BRANCH  13  14
ATOM     14  C   UNL     1      -1.672  11.939  19.167  0.00  0.00    +0.000 A 
ATOM     15  C   UNL     1      -2.241  12.671  20.212  0.00  0.00    +0.000 A 
ATOM     16  C   UNL     1      -3.626  12.820  20.284  0.00  0.00    +0.000 A 
ATOM     17  C   UNL     1      -4.429  12.236  19.311  0.00  0.00    +0.000 A 
ATOM     18  F   UNL     1      -5.759  12.362  19.391  0.00  0.00    +0.000 F 
ATOM     19  C   UNL     1      -3.873  11.535  18.247  0.00  0.00    +0.000 A 
ATOM     20  C   UNL     1      -2.488  11.411  18.159  0.00  0.00    +0.000 A 
ENDBRANCH  13  14
ENDBRANCH  10  13
ENDBRANCH   5   7
BRANCH   1  21
ATOM     21  C   UNL     1       5.388   5.311  18.727  0.00  0.00    +0.000 C 
BRANCH  21  22
ATOM     22  N   UNL     1       5.371   5.220  17.230  0.00  0.00    +0.000 NA
BRANCH  22  23
ATOM     23  C   UNL     1       6.495   4.371  16.736  0.00  0.00    +0.000 C 
BRANCH  23  25
ATOM     24  N   UNL     1       6.573   3.783  14.363  0.00  0.00    +0.000 N 
ATOM     25  C   UNL     1       6.932   4.691  15.314  0.00  0.00    +0.000 C 
ATOM     26  O   UNL     1       7.612   5.672  15.030  0.00  0.00    +0.000 OA
ATOM     27  H   UNL     1       6.826   3.971  13.404  0.00  0.00    +0.000 HD
ATOM     28  H   UNL     1       5.959   3.009  14.576  0.00  0.00    +0.000 HD
ENDBRANCH  23  25
ENDBRANCH  22  23
BRANCH  22  29
ATOM     29  C   UNL     1       4.130   4.639  16.657  0.00  0.00    +0.000 C 
BRANCH  29  30
ATOM     30  C   UNL     1       4.011   3.095  16.686  0.00  0.00    +0.000 C 
BRANCH  30  31
ATOM     31  N   UNL     1       2.855   2.638  17.427  0.00  0.00    +0.000 N 
ATOM     32  C   UNL     1       1.705   3.485  17.673  0.00  0.00    +0.000 C 
ATOM     33  C   UNL     1       0.821   2.599  18.538  0.00  0.00    +0.000 C 
ATOM     34  N   UNL     1       1.764   1.702  19.145  0.00  0.00    +0.000 N 
ATOM     35  C   UNL     1       2.943   1.662  18.417  0.00  0.00    +0.000 C 
ATOM     36  O   UNL     1       3.879   0.912  18.629  0.00  0.00    +0.000 OA
ATOM     37  H   UNL     1       1.569   0.991  19.837  0.00  0.00    +0.000 HD
ENDBRANCH  30  31
ENDBRANCH  29  30
ENDBRANCH  22  29
ENDBRANCH  21  22
ENDBRANCH   1  21
TORSDOF 10
ENDMDL
MODEL 9
REMARK VINA RESULT:      -7.9      2.712      4.566
REMARK  Name = 
REMARK  10 active torsions:
REMARK  status: ('A' for Active; 'I' for Inactive)
REMARK    1  A    between atoms: C_2  and  C_4
REMARK    2  A    between atoms: C_4  and  N_5
REMARK    3  A    between atoms: N_5  and  C_6
REMARK    4  A    between atoms: N_5  and  C_14
REMARK    5  A    between atoms: C_6  and  C_7
REMARK    6  A    between atoms: C_7  and  N_8
REMARK    7  A    between atoms: C_14  and  C_15
REMARK    8  A    between atoms: C_19  and  C_20
REMARK    9  A    between atoms: C_23  and  O_24
REMARK   10  A    between atoms: O_24  and  C_25
REMARK                            x       y       z     vdW  Elec       q    Type
REMARK                         _______ _______ _______ _____ _____    ______ ____
ROOT
ATOM      1  C   UNL     1       2.021   6.980  19.670  0.00  0.00    +0.000 A 
ATOM      2  C   UNL     1       2.238   7.290  18.330  0.00  0.00    +0.000 A 
ATOM      3  C   UNL     1       2.047   8.579  17.860  0.00  0.00    +0.000 A 
ATOM      4  C   UNL     1       1.533   9.536  18.714  0.00  0.00    +0.000 A 
ATOM      5  C   UNL     1       1.196   9.162  20.008  0.00  0.00    +0.000 A 
ATOM      6  N   UNL     1       1.464   7.914  20.492  0.00  0.00    +0.000 NA
ENDROOT
BRANCH   5   7
ATOM      7  C   UNL     1       0.497  10.090  20.916  0.00  0.00    +0.000 A 
ATOM      8  C   UNL     1       0.531  11.487  20.715  0.00  0.00    +0.000 A 
ATOM      9  C   UNL     1      -0.131  12.363  21.576  0.00  0.00    +0.000 A 
ATOM     10  C   UNL     1      -0.857  11.863  22.652  0.00  0.00    +0.000 A 
ATOM     11  C   UNL     1      -0.868  10.489  22.898  0.00  0.00    +0.000 A 
ATOM     12  C   UNL     1      -0.227   9.613  22.018  0.00  0.00    +0.000 A 
BRANCH  10  13
ATOM     13  O   UNL     1      -1.489  12.800  23.436  0.00  0.00    +0.000 OA
BRANCH  13  14
ATOM     14  C   UNL     1      -2.807  13.109  23.193  0.00  0.00    +0.000 A 
ATOM     15  C   UNL     1      -3.391  14.012  24.086  0.00  0.00    +0.000 A 
ATOM     16  C   UNL     1      -4.729  14.376  23.932  0.00  0.00    +0.000 A 
ATOM     17  C   UNL     1      -5.471  13.834  22.889  0.00  0.00    +0.000 A 
ATOM     18  F   UNL     1      -6.760  14.167  22.754  0.00  0.00    +0.000 F 
ATOM     19  C   UNL     1      -4.893  12.962  21.975  0.00  0.00    +0.000 A 
ATOM     20  C   UNL     1      -3.548  12.620  22.110  0.00  0.00    +0.000 A 
ENDBRANCH  13  14
ENDBRANCH  10  13
ENDBRANCH   5   7
BRANCH   1  21
ATOM     21  C   UNL     1       2.254   5.590  20.280  0.00  0.00    +0.000 C 
BRANCH  21  22
ATOM     22  N   UNL     1       3.411   4.757  19.817  0.00  0.00    +0.000 NA
BRANCH  22  23
ATOM     23  C   UNL     1       3.010   3.867  18.688  0.00  0.00    +0.000 C 
BRANCH  23  25
ATOM     24  N   UNL     1       3.733   1.538  18.502  0.00  0.00    +0.000 N 
ATOM     25  C   UNL     1       2.853   2.405  19.079  0.00  0.00    +0.000 C 
ATOM     26  O   UNL     1       1.962   2.005  19.822  0.00  0.00    +0.000 OA
ATOM     27  H   UNL     1       3.674   0.561  18.753  0.00  0.00    +0.000 HD
ATOM     28  H   UNL     1       4.508   1.866  17.942  0.00  0.00    +0.000 HD
ENDBRANCH  23  25
ENDBRANCH  22  23
BRANCH  22  29
ATOM     29  C   UNL     1       4.583   5.533  19.337  0.00  0.00    +0.000 C 
BRANCH  29  30
ATOM     30  C   UNL     1       5.832   4.715  18.924  0.00  0.00    +0.000 C 
BRANCH  30  31
ATOM     31  N   UNL     1       6.266   5.002  17.573  0.00  0.00    +0.000 N 
ATOM     32  C   UNL     1       5.332   5.218  16.486  0.00  0.00    +0.000 C 
ATOM     33  C   UNL     1       6.253   5.395  15.289  0.00  0.00    +0.000 C 
ATOM     34  N   UNL     1       7.439   4.689  15.690  0.00  0.00    +0.000 N 
ATOM     35  C   UNL     1       7.481   4.544  17.069  0.00  0.00    +0.000 C 
ATOM     36  O   UNL     1       8.414   4.085  17.702  0.00  0.00    +0.000 OA
ATOM     37  H   UNL     1       8.268   4.530  15.135  0.00  0.00    +0.000 HD
ENDBRANCH  30  31
ENDBRANCH  29  30
ENDBRANCH  22  29
ENDBRANCH  21  22
ENDBRANCH   1  21
TORSDOF 10
ENDMDL
