MODEL 1
REMARK VINA RESULT:      -8.6      0.000      0.000
REMARK  Name = 
REMARK  10 active torsions:
REMARK  status: ('A' for Active; 'I' for Inactive)
REMARK    1  A    between atoms: C_1  and  O_2
REMARK    2  A    between atoms: O_2  and  C_3
REMARK    3  A    between atoms: C_6  and  C_7
REMARK    4  A    between atoms: C_7  and  C_9
REMARK    5  A    between atoms: C_10  and  C_11
REMARK    6  A    between atoms: C_14  and  C_15
REMARK    7  A    between atoms: N_17  and  C_18
REMARK    8  A    between atoms: C_18  and  C_19
REMARK    9  A    between atoms: C_19  and  C_20
REMARK   10  A    between atoms: C_28  and  O_29
REMARK                            x       y       z     vdW  Elec       q    Type
REMARK                         _______ _______ _______ _____ _____    ______ ____
ROOT
ATOM      1  C   UNL     1       8.199   7.938  18.505  0.00  0.00    +0.000 A 
ATOM      2  C   UNL     1       7.306   8.274  17.485  0.00  0.00    +0.000 A 
ATOM      3  C   UNL     1       6.459   7.300  16.944  0.00  0.00    +0.000 A 
ATOM      4  C   UNL     1       6.488   5.976  17.413  0.00  0.00    +0.000 A 
ATOM      5  C   UNL     1       7.387   5.646  18.436  0.00  0.00    +0.000 A 
ATOM      6  C   UNL     1       8.236   6.622  18.975  0.00  0.00    +0.000 A 
ENDROOT
BRANCH   4   7
ATOM      7  C   UNL     1       5.536   5.000  16.791  0.00  0.00    +0.000 C 
ATOM      8  O   UNL     1       5.188   5.150  15.624  0.00  0.00    +0.000 OA
ATOM      9  N   UNL     1       5.078   3.949  17.564  0.00  0.00    +0.000 N 
ATOM     10  H   UNL     1       5.419   3.800  18.499  0.00  0.00    +0.000 HD
BRANCH   9  11
ATOM     11  C   UNL     1       4.169   2.967  16.993  0.00  0.00    +0.000 C 
BRANCH  11  12
ATOM     12  C   UNL     1       3.741   1.906  18.008  0.00  0.00    +0.000 C 
BRANCH  12  13
ATOM     13  C   UNL     1       2.881   2.494  19.099  0.00  0.00    +0.000 A 
ATOM     14  C   UNL     1       3.280   2.413  20.440  0.00  0.00    +0.000 A 
ATOM     15  C   UNL     1       2.459   2.911  21.454  0.00  0.00    +0.000 A 
ATOM     16  C   UNL     1       1.232   3.491  21.137  0.00  0.00    +0.000 A 
ATOM     17  C   UNL     1       0.827   3.581  19.807  0.00  0.00    +0.000 A 
ATOM     18  C   UNL     1       1.647   3.083  18.792  0.00  0.00    +0.000 A 
ENDBRANCH  12  13
ENDBRANCH  11  12
ENDBRANCH   9  11
ENDBRANCH   4   7
BRANCH   1  20
ATOM     19  C   UNL     1       8.993  10.236  18.693  0.00  0.00    +0.000 C 
ATOM     20  C   UNL     1       9.058   8.960  19.101  0.00  0.00    +0.000 C 
BRANCH  19  21
ATOM     21  C   UNL     1       9.843  11.272  19.336  0.00  0.00    +0.000 C 
ATOM     22  O   UNL     1      10.256  11.146  20.485  0.00  0.00    +0.000 OA
BRANCH  21  26
ATOM     23  C   UNL     1      10.774  14.818  17.071  0.00  0.00    +0.000 A 
ATOM     24  C   UNL     1       9.685  14.772  17.943  0.00  0.00    +0.000 A 
ATOM     25  C   UNL     1       9.403  13.612  18.675  0.00  0.00    +0.000 A 
ATOM     26  C   UNL     1      10.212  12.476  18.542  0.00  0.00    +0.000 A 
ATOM     27  C   UNL     1      11.289  12.527  17.649  0.00  0.00    +0.000 A 
ATOM     28  C   UNL     1      11.579  13.690  16.929  0.00  0.00    +0.000 A 
BRANCH  23  30
ATOM     29  C   UNL     1      10.944  17.186  17.196  0.00  0.00    +0.000 C 
ATOM     30  O   UNL     1      10.939  16.001  16.408  0.00  0.00    +0.000 OA
ENDBRANCH  23  30
BRANCH  27  31
ATOM     31  O   UNL     1      12.094  11.454  17.386  0.00  0.00    +0.000 OA
ATOM     32  H   UNL     1      12.659  11.333  18.172  0.00  0.00    +0.000 HD
ENDBRANCH  27  31
ENDBRANCH  21  26
ENDBRANCH  19  21
ENDBRANCH   1  20
TORSDOF 9
ENDMDL
MODEL 2
REMARK VINA RESULT:      -8.5      7.089      9.286
REMARK  Name = 
REMARK  10 active torsions:
REMARK  status: ('A' for Active; 'I' for Inactive)
REMARK    1  A    between atoms: C_1  and  O_2
REMARK    2  A    between atoms: O_2  and  C_3
REMARK    3  A    between atoms: C_6  and  C_7
REMARK    4  A    between atoms: C_7  and  C_9
REMARK    5  A    between atoms: C_10  and  C_11
REMARK    6  A    between atoms: C_14  and  C_15
REMARK    7  A    between atoms: N_17  and  C_18
REMARK    8  A    between atoms: C_18  and  C_19
REMARK    9  A    between atoms: C_19  and  C_20
REMARK   10  A    between atoms: C_28  and  O_29
REMARK                            x       y       z     vdW  Elec       q    Type
REMARK                         _______ _______ _______ _____ _____    ______ ____
ROOT
ATOM      1  C   UNL     1       1.304   9.442  19.157  0.00  0.00    +0.000 A 
ATOM      2  C   UNL     1       1.403   8.463  20.147  0.00  0.00    +0.000 A 
ATOM      3  C   UNL     1       2.163   7.309  19.919  0.00  0.00    +0.000 A 
ATOM      4  C   UNL     1       2.836   7.115  18.702  0.00  0.00    +0.000 A 
ATOM      5  C   UNL     1       2.731   8.101  17.712  0.00  0.00    +0.000 A 
ATOM      6  C   UNL     1       1.968   9.255  17.941  0.00  0.00    +0.000 A 
ENDROOT
BRANCH   4   7
ATOM      7  C   UNL     1       3.641   5.860  18.548  0.00  0.00    +0.000 C 
ATOM      8  O   UNL     1       4.493   5.578  19.385  0.00  0.00    +0.000 OA
ATOM      9  N   UNL     1       3.390   5.051  17.456  0.00  0.00    +0.000 N 
ATOM     10  H   UNL     1       2.645   5.259  16.811  0.00  0.00    +0.000 HD
BRANCH   9  11
ATOM     11  C   UNL     1       4.133   3.813  17.279  0.00  0.00    +0.000 C 
BRANCH  11  12
ATOM     12  C   UNL     1       3.288   2.575  17.577  0.00  0.00    +0.000 C 
BRANCH  12  13
ATOM     13  C   UNL     1       2.613   2.672  18.923  0.00  0.00    +0.000 A 
ATOM     14  C   UNL     1       1.244   2.962  19.012  0.00  0.00    +0.000 A 
ATOM     15  C   UNL     1       0.631   3.103  20.259  0.00  0.00    +0.000 A 
ATOM     16  C   UNL     1       1.380   2.956  21.426  0.00  0.00    +0.000 A 
ATOM     17  C   UNL     1       2.739   2.663  21.349  0.00  0.00    +0.000 A 
ATOM     18  C   UNL     1       3.354   2.522  20.103  0.00  0.00    +0.000 A 
ENDBRANCH  12  13
ENDBRANCH  11  12
ENDBRANCH   9  11
ENDBRANCH   4   7
BRANCH   1  20
ATOM     19  C   UNL     1       0.927  11.533  20.352  0.00  0.00    +0.000 C 
ATOM     20  C   UNL     1       0.544  10.667  19.403  0.00  0.00    +0.000 C 
BRANCH  19  21
ATOM     21  C   UNL     1       0.169  12.794  20.565  0.00  0.00    +0.000 C 
ATOM     22  O   UNL     1       0.604  13.879  20.190  0.00  0.00    +0.000 OA
BRANCH  21  26
ATOM     23  C   UNL     1      -3.613  12.503  22.610  0.00  0.00    +0.000 A 
ATOM     24  C   UNL     1      -2.403  12.301  23.277  0.00  0.00    +0.000 A 
ATOM     25  C   UNL     1      -1.184  12.406  22.595  0.00  0.00    +0.000 A 
ATOM     26  C   UNL     1      -1.161  12.717  21.230  0.00  0.00    +0.000 A 
ATOM     27  C   UNL     1      -2.380  12.897  20.567  0.00  0.00    +0.000 A 
ATOM     28  C   UNL     1      -3.597  12.807  21.251  0.00  0.00    +0.000 A 
BRANCH  23  30
ATOM     29  C   UNL     1      -4.553  12.416  24.792  0.00  0.00    +0.000 C 
ATOM     30  O   UNL     1      -4.732  12.364  23.381  0.00  0.00    +0.000 OA
ENDBRANCH  23  30
BRANCH  27  31
ATOM     31  O   UNL     1      -2.475  13.127  19.223  0.00  0.00    +0.000 OA
ATOM     32  H   UNL     1      -1.753  12.622  18.804  0.00  0.00    +0.000 HD
ENDBRANCH  27  31
ENDBRANCH  21  26
ENDBRANCH  19  21
ENDBRANCH   1  20
TORSDOF 9
ENDMDL
MODEL 3
REMARK VINA RESULT:      -8.3      2.030      2.969
REMARK  Name = 
REMARK  10 active torsions:
REMARK  status: ('A' for Active; 'I' for Inactive)
REMARK    1  A    between atoms: C_1  and  O_2
REMARK    2  A    between atoms: O_2  and  C_3
REMARK    3  A    between atoms: C_6  and  C_7
REMARK    4  A    between atoms: C_7  and  C_9
REMARK    5  A    between atoms: C_10  and  C_11
REMARK    6  A    between atoms: C_14  and  C_15
REMARK    7  A    between atoms: N_17  and  C_18
REMARK    8  A    between atoms: C_18  and  C_19
REMARK    9  A    between atoms: C_19  and  C_20
REMARK   10  A    between atoms: C_28  and  O_29
REMARK                            x       y       z     vdW  Elec       q    Type
REMARK                         _______ _______ _______ _____ _____    ______ ____
ROOT
ATOM      1  C   UNL     1       7.598   7.686  17.910  0.00  0.00    +0.000 A 
ATOM      2  C   UNL     1       8.049   6.690  18.778  0.00  0.00    +0.000 A 
ATOM      3  C   UNL     1       7.321   5.503  18.924  0.00  0.00    +0.000 A 
ATOM      4  C   UNL     1       6.133   5.291  18.205  0.00  0.00    +0.000 A 
ATOM      5  C   UNL     1       5.686   6.295  17.337  0.00  0.00    +0.000 A 
ATOM      6  C   UNL     1       6.415   7.484  17.194  0.00  0.00    +0.000 A 
ENDROOT
BRANCH   4   7
ATOM      7  C   UNL     1       5.425   3.985  18.407  0.00  0.00    +0.000 C 
ATOM      8  O   UNL     1       5.490   3.420  19.494  0.00  0.00    +0.000 OA
ATOM      9  N   UNL     1       4.711   3.457  17.347  0.00  0.00    +0.000 N 
ATOM     10  H   UNL     1       4.612   3.959  16.481  0.00  0.00    +0.000 HD
BRANCH   9  11
ATOM     11  C   UNL     1       3.992   2.202  17.506  0.00  0.00    +0.000 C 
BRANCH  11  12
ATOM     12  C   UNL     1       2.484   2.407  17.656  0.00  0.00    +0.000 C 
BRANCH  12  13
ATOM     13  C   UNL     1       2.160   3.348  18.789  0.00  0.00    +0.000 A 
ATOM     14  C   UNL     1       1.990   2.861  20.092  0.00  0.00    +0.000 A 
ATOM     15  C   UNL     1       1.638   3.725  21.131  0.00  0.00    +0.000 A 
ATOM     16  C   UNL     1       1.452   5.083  20.876  0.00  0.00    +0.000 A 
ATOM     17  C   UNL     1       1.623   5.579  19.586  0.00  0.00    +0.000 A 
ATOM     18  C   UNL     1       1.975   4.716  18.547  0.00  0.00    +0.000 A 
ENDBRANCH  12  13
ENDBRANCH  11  12
ENDBRANCH   9  11
ENDBRANCH   4   7
BRANCH   1  20
ATOM     19  C   UNL     1       8.762   9.645  18.777  0.00  0.00    +0.000 C 
ATOM     20  C   UNL     1       8.375   8.911  17.724  0.00  0.00    +0.000 C 
BRANCH  19  21
ATOM     21  C   UNL     1       9.586  10.865  18.576  0.00  0.00    +0.000 C 
ATOM     22  O   UNL     1      10.265  11.026  17.566  0.00  0.00    +0.000 OA
BRANCH  21  26
ATOM     23  C   UNL     1       9.452  13.811  21.719  0.00  0.00    +0.000 A 
ATOM     24  C   UNL     1       9.369  12.445  21.992  0.00  0.00    +0.000 A 
ATOM     25  C   UNL     1       9.421  11.503  20.958  0.00  0.00    +0.000 A 
ATOM     26  C   UNL     1       9.557  11.919  19.627  0.00  0.00    +0.000 A 
ATOM     27  C   UNL     1       9.617  13.293  19.362  0.00  0.00    +0.000 A 
ATOM     28  C   UNL     1       9.581  14.233  20.397  0.00  0.00    +0.000 A 
BRANCH  23  30
ATOM     29  C   UNL     1       8.089  15.101  23.180  0.00  0.00    +0.000 C 
ATOM     30  O   UNL     1       9.381  14.629  22.811  0.00  0.00    +0.000 OA
ENDBRANCH  23  30
BRANCH  27  31
ATOM     31  O   UNL     1       9.673  13.809  18.098  0.00  0.00    +0.000 OA
ATOM     32  H   UNL     1       8.773  14.118  17.885  0.00  0.00    +0.000 HD
ENDBRANCH  27  31
ENDBRANCH  21  26
ENDBRANCH  19  21
ENDBRANCH   1  20
TORSDOF 9
ENDMDL
MODEL 4
REMARK VINA RESULT:      -8.3      7.572     10.517
REMARK  Name = 
REMARK  10 active torsions:
REMARK  status: ('A' for Active; 'I' for Inactive)
REMARK    1  A    between atoms: C_1  and  O_2
REMARK    2  A    between atoms: O_2  and  C_3
REMARK    3  A    between atoms: C_6  and  C_7
REMARK    4  A    between atoms: C_7  and  C_9
REMARK    5  A    between atoms: C_10  and  C_11
REMARK    6  A    between atoms: C_14  and  C_15
REMARK    7  A    between atoms: N_17  and  C_18
REMARK    8  A    between atoms: C_18  and  C_19
REMARK    9  A    between atoms: C_19  and  C_20
REMARK   10  A    between atoms: C_28  and  O_29
REMARK                            x       y       z     vdW  Elec       q    Type
REMARK                         _______ _______ _______ _____ _____    ______ ____
ROOT
ATOM      1  C   UNL     1       1.048   9.677  19.342  0.00  0.00    +0.000 A 
ATOM      2  C   UNL     1       1.627   9.301  18.129  0.00  0.00    +0.000 A 
ATOM      3  C   UNL     1       2.313   8.085  18.026  0.00  0.00    +0.000 A 
ATOM      4  C   UNL     1       2.431   7.225  19.130  0.00  0.00    +0.000 A 
ATOM      5  C   UNL     1       1.848   7.609  20.345  0.00  0.00    +0.000 A 
ATOM      6  C   UNL     1       1.162   8.829  20.447  0.00  0.00    +0.000 A 
ENDROOT
BRANCH   4   7
ATOM      7  C   UNL     1       3.166   5.935  18.928  0.00  0.00    +0.000 C 
ATOM      8  O   UNL     1       3.710   5.389  19.884  0.00  0.00    +0.000 OA
ATOM      9  N   UNL     1       3.205   5.395  17.656  0.00  0.00    +0.000 N 
ATOM     10  H   UNL     1       2.701   5.817  16.894  0.00  0.00    +0.000 HD
BRANCH   9  11
ATOM     11  C   UNL     1       3.889   4.134  17.420  0.00  0.00    +0.000 C 
BRANCH  11  12
ATOM     12  C   UNL     1       5.173   4.307  16.608  0.00  0.00    +0.000 C 
BRANCH  12  13
ATOM     13  C   UNL     1       6.139   5.246  17.286  0.00  0.00    +0.000 A 
ATOM     14  C   UNL     1       6.301   6.558  16.820  0.00  0.00    +0.000 A 
ATOM     15  C   UNL     1       7.234   7.410  17.416  0.00  0.00    +0.000 A 
ATOM     16  C   UNL     1       8.012   6.958  18.480  0.00  0.00    +0.000 A 
ATOM     17  C   UNL     1       7.855   5.658  18.955  0.00  0.00    +0.000 A 
ATOM     18  C   UNL     1       6.924   4.805  18.360  0.00  0.00    +0.000 A 
ENDBRANCH  12  13
ENDBRANCH  11  12
ENDBRANCH   9  11
ENDBRANCH   4   7
BRANCH   1  20
ATOM     19  C   UNL     1      -0.524  11.152  20.482  0.00  0.00    +0.000 C 
ATOM     20  C   UNL     1       0.296  10.927  19.445  0.00  0.00    +0.000 C 
BRANCH  19  21
ATOM     21  C   UNL     1      -1.250  12.444  20.596  0.00  0.00    +0.000 C 
ATOM     22  O   UNL     1      -0.907  13.435  19.959  0.00  0.00    +0.000 OA
BRANCH  21  26
ATOM     23  C   UNL     1      -4.606  12.560  23.296  0.00  0.00    +0.000 A 
ATOM     24  C   UNL     1      -3.334  12.182  23.727  0.00  0.00    +0.000 A 
ATOM     25  C   UNL     1      -2.255  12.157  22.835  0.00  0.00    +0.000 A 
ATOM     26  C   UNL     1      -2.437  12.512  21.492  0.00  0.00    +0.000 A 
ATOM     27  C   UNL     1      -3.722  12.868  21.067  0.00  0.00    +0.000 A 
ATOM     28  C   UNL     1      -4.796  12.908  21.961  0.00  0.00    +0.000 A 
BRANCH  23  30
ATOM     29  C   UNL     1      -6.924  12.671  23.817  0.00  0.00    +0.000 C 
ATOM     30  O   UNL     1      -5.577  12.536  24.258  0.00  0.00    +0.000 OA
ENDBRANCH  23  30
BRANCH  27  31
ATOM     31  O   UNL     1      -4.025  13.157  19.766  0.00  0.00    +0.000 OA
ATOM     32  H   UNL     1      -4.712  12.520  19.493  0.00  0.00    +0.000 HD
ENDBRANCH  27  31
ENDBRANCH  21  26
ENDBRANCH  19  21
ENDBRANCH   1  20
TORSDOF 9
ENDMDL
MODEL 5
REMARK VINA RESULT:      -8.3      2.151      3.051
REMARK  Name = 
REMARK  10 active torsions:
REMARK  status: ('A' for Active; 'I' for Inactive)
REMARK    1  A    between atoms: C_1  and  O_2
REMARK    2  A    between atoms: O_2  and  C_3
REMARK    3  A    between atoms: C_6  and  C_7
REMARK    4  A    between atoms: C_7  and  C_9
REMARK    5  A    between atoms: C_10  and  C_11
REMARK    6  A    between atoms: C_14  and  C_15
REMARK    7  A    between atoms: N_17  and  C_18
REMARK    8  A    between atoms: C_18  and  C_19
REMARK    9  A    between atoms: C_19  and  C_20
REMARK   10  A    between atoms: C_28  and  O_29
REMARK                            x       y       z     vdW  Elec       q    Type
REMARK                         _______ _______ _______ _____ _____    ______ ____
ROOT
ATOM      1  C   UNL     1       8.046   8.345  18.038  0.00  0.00    +0.000 A 
ATOM      2  C   UNL     1       8.410   7.287  18.873  0.00  0.00    +0.000 A 
ATOM      3  C   UNL     1       7.673   6.097  18.861  0.00  0.00    +0.000 A 
ATOM      4  C   UNL     1       6.563   5.943  18.014  0.00  0.00    +0.000 A 
ATOM      5  C   UNL     1       6.203   7.009  17.179  0.00  0.00    +0.000 A 
ATOM      6  C   UNL     1       6.941   8.201  17.194  0.00  0.00    +0.000 A 
ENDROOT
BRANCH   4   7
ATOM      7  C   UNL     1       5.841   4.630  18.051  0.00  0.00    +0.000 C 
ATOM      8  O   UNL     1       6.057   3.843  18.967  0.00  0.00    +0.000 OA
ATOM      9  N   UNL     1       4.940   4.349  17.040  0.00  0.00    +0.000 N 
ATOM     10  H   UNL     1       4.723   5.029  16.330  0.00  0.00    +0.000 HD
BRANCH   9  11
ATOM     11  C   UNL     1       4.202   3.096  17.048  0.00  0.00    +0.000 C 
BRANCH  11  12
ATOM     12  C   UNL     1       2.705   3.300  17.285  0.00  0.00    +0.000 C 
BRANCH  12  13
ATOM     13  C   UNL     1       2.375   3.351  18.755  0.00  0.00    +0.000 A 
ATOM     14  C   UNL     1       3.070   2.546  19.669  0.00  0.00    +0.000 A 
ATOM     15  C   UNL     1       2.729   2.555  21.023  0.00  0.00    +0.000 A 
ATOM     16  C   UNL     1       1.690   3.367  21.475  0.00  0.00    +0.000 A 
ATOM     17  C   UNL     1       0.996   4.175  20.578  0.00  0.00    +0.000 A 
ATOM     18  C   UNL     1       1.336   4.166  19.223  0.00  0.00    +0.000 A 
ENDBRANCH  12  13
ENDBRANCH  11  12
ENDBRANCH   9  11
ENDBRANCH   4   7
BRANCH   1  20
ATOM     19  C   UNL     1       9.273  10.130  19.157  0.00  0.00    +0.000 C 
ATOM     20  C   UNL     1       8.836   9.576  18.017  0.00  0.00    +0.000 C 
BRANCH  19  21
ATOM     21  C   UNL     1      10.109  11.358  19.120  0.00  0.00    +0.000 C 
ATOM     22  O   UNL     1      10.916  11.562  18.217  0.00  0.00    +0.000 OA
BRANCH  21  26
ATOM     23  C   UNL     1       9.495  14.186  22.314  0.00  0.00    +0.000 A 
ATOM     24  C   UNL     1       9.017  12.877  22.393  0.00  0.00    +0.000 A 
ATOM     25  C   UNL     1       9.232  11.971  21.347  0.00  0.00    +0.000 A 
ATOM     26  C   UNL     1       9.934  12.367  20.201  0.00  0.00    +0.000 A 
ATOM     27  C   UNL     1      10.390  13.687  20.123  0.00  0.00    +0.000 A 
ATOM     28  C   UNL     1      10.188  14.588  21.174  0.00  0.00    +0.000 A 
BRANCH  23  30
ATOM     29  C   UNL     1       8.128  14.573  24.220  0.00  0.00    +0.000 C 
ATOM     30  O   UNL     1       9.214  14.975  23.393  0.00  0.00    +0.000 OA
ENDBRANCH  23  30
BRANCH  27  31
ATOM     31  O   UNL     1      11.016  14.198  19.020  0.00  0.00    +0.000 OA
ATOM     32  H   UNL     1      11.974  14.133  19.191  0.00  0.00    +0.000 HD
ENDBRANCH  27  31
ENDBRANCH  21  26
ENDBRANCH  19  21
ENDBRANCH   1  20
TORSDOF 9
ENDMDL
MODEL 6
REMARK VINA RESULT:      -8.3      7.206     10.098
REMARK  Name = 
REMARK  10 active torsions:
REMARK  status: ('A' for Active; 'I' for Inactive)
REMARK    1  A    between atoms: C_1  and  O_2
REMARK    2  A    between atoms: O_2  and  C_3
REMARK    3  A    between atoms: C_6  and  C_7
REMARK    4  A    between atoms: C_7  and  C_9
REMARK    5  A    between atoms: C_10  and  C_11
REMARK    6  A    between atoms: C_14  and  C_15
REMARK    7  A    between atoms: N_17  and  C_18
REMARK    8  A    between atoms: C_18  and  C_19
REMARK    9  A    between atoms: C_19  and  C_20
REMARK   10  A    between atoms: C_28  and  O_29
REMARK                            x       y       z     vdW  Elec       q    Type
REMARK                         _______ _______ _______ _____ _____    ______ ____
ROOT
ATOM      1  C   UNL     1       1.447   9.399  19.026  0.00  0.00    +0.000 A 
ATOM      2  C   UNL     1       2.083   9.050  17.834  0.00  0.00    +0.000 A 
ATOM      3  C   UNL     1       2.716   7.807  17.714  0.00  0.00    +0.000 A 
ATOM      4  C   UNL     1       2.723   6.893  18.781  0.00  0.00    +0.000 A 
ATOM      5  C   UNL     1       2.083   7.251  19.975  0.00  0.00    +0.000 A 
ATOM      6  C   UNL     1       1.451   8.497  20.094  0.00  0.00    +0.000 A 
ENDROOT
BRANCH   4   7
ATOM      7  C   UNL     1       3.408   5.579  18.562  0.00  0.00    +0.000 C 
ATOM      8  O   UNL     1       3.634   4.844  19.519  0.00  0.00    +0.000 OA
ATOM      9  N   UNL     1       3.763   5.232  17.272  0.00  0.00    +0.000 N 
ATOM     10  H   UNL     1       3.515   5.812  16.488  0.00  0.00    +0.000 HD
BRANCH   9  11
ATOM     11  C   UNL     1       4.411   3.955  17.012  0.00  0.00    +0.000 C 
BRANCH  11  12
ATOM     12  C   UNL     1       5.802   4.119  16.399  0.00  0.00    +0.000 C 
BRANCH  12  13
ATOM     13  C   UNL     1       6.624   5.138  17.146  0.00  0.00    +0.000 A 
ATOM     14  C   UNL     1       7.207   4.815  18.380  0.00  0.00    +0.000 A 
ATOM     15  C   UNL     1       7.925   5.776  19.096  0.00  0.00    +0.000 A 
ATOM     16  C   UNL     1       8.065   7.066  18.587  0.00  0.00    +0.000 A 
ATOM     17  C   UNL     1       7.494   7.396  17.361  0.00  0.00    +0.000 A 
ATOM     18  C   UNL     1       6.775   6.437  16.643  0.00  0.00    +0.000 A 
ENDBRANCH  12  13
ENDBRANCH  11  12
ENDBRANCH   9  11
ENDBRANCH   4   7
BRANCH   1  20
ATOM     19  C   UNL     1      -0.579  10.725  19.317  0.00  0.00    +0.000 C 
ATOM     20  C   UNL     1       0.750  10.680  19.144  0.00  0.00    +0.000 C 
BRANCH  19  21
ATOM     21  C   UNL     1      -1.269  12.032  19.477  0.00  0.00    +0.000 C 
ATOM     22  O   UNL     1      -1.167  12.922  18.637  0.00  0.00    +0.000 OA
BRANCH  21  26
ATOM     23  C   UNL     1      -3.631  12.552  23.043  0.00  0.00    +0.000 A 
ATOM     24  C   UNL     1      -2.329  12.050  23.094  0.00  0.00    +0.000 A 
ATOM     25  C   UNL     1      -1.576  11.895  21.925  0.00  0.00    +0.000 A 
ATOM     26  C   UNL     1      -2.119  12.242  20.681  0.00  0.00    +0.000 A 
ATOM     27  C   UNL     1      -3.432  12.723  20.639  0.00  0.00    +0.000 A 
ATOM     28  C   UNL     1      -4.180  12.893  21.809  0.00  0.00    +0.000 A 
BRANCH  23  30
ATOM     29  C   UNL     1      -5.682  12.789  24.223  0.00  0.00    +0.000 C 
ATOM     30  O   UNL     1      -4.265  12.649  24.250  0.00  0.00    +0.000 OA
ENDBRANCH  23  30
BRANCH  27  31
ATOM     31  O   UNL     1      -4.084  13.018  19.474  0.00  0.00    +0.000 OA
ATOM     32  H   UNL     1      -3.749  12.394  18.804  0.00  0.00    +0.000 HD
ENDBRANCH  27  31
ENDBRANCH  21  26
ENDBRANCH  19  21
ENDBRANCH   1  20
TORSDOF 9
ENDMDL
MODEL 7
REMARK VINA RESULT:      -8.3      1.929      2.611
REMARK  Name = 
REMARK  10 active torsions:
REMARK  status: ('A' for Active; 'I' for Inactive)
REMARK    1  A    between atoms: C_1  and  O_2
REMARK    2  A    between atoms: O_2  and  C_3
REMARK    3  A    between atoms: C_6  and  C_7
REMARK    4  A    between atoms: C_7  and  C_9
REMARK    5  A    between atoms: C_10  and  C_11
REMARK    6  A    between atoms: C_14  and  C_15
REMARK    7  A    between atoms: N_17  and  C_18
REMARK    8  A    between atoms: C_18  and  C_19
REMARK    9  A    between atoms: C_19  and  C_20
REMARK   10  A    between atoms: C_28  and  O_29
REMARK                            x       y       z     vdW  Elec       q    Type
REMARK                         _______ _______ _______ _____ _____    ______ ____
ROOT
ATOM      1  C   UNL     1       7.767   8.196  17.840  0.00  0.00    +0.000 A 
ATOM      2  C   UNL     1       6.594   7.981  17.116  0.00  0.00    +0.000 A 
ATOM      3  C   UNL     1       5.917   6.760  17.221  0.00  0.00    +0.000 A 
ATOM      4  C   UNL     1       6.400   5.736  18.052  0.00  0.00    +0.000 A 
ATOM      5  C   UNL     1       7.579   5.958  18.775  0.00  0.00    +0.000 A 
ATOM      6  C   UNL     1       8.257   7.181  18.666  0.00  0.00    +0.000 A 
ENDROOT
BRANCH   4   7
ATOM      7  C   UNL     1       5.605   4.467  18.120  0.00  0.00    +0.000 C 
ATOM      8  O   UNL     1       5.652   3.773  19.131  0.00  0.00    +0.000 OA
ATOM      9  N   UNL     1       4.834   4.118  17.027  0.00  0.00    +0.000 N 
ATOM     10  H   UNL     1       4.752   4.726  16.229  0.00  0.00    +0.000 HD
BRANCH   9  11
ATOM     11  C   UNL     1       4.030   2.906  17.059  0.00  0.00    +0.000 C 
BRANCH  11  12
ATOM     12  C   UNL     1       2.540   3.196  17.244  0.00  0.00    +0.000 C 
BRANCH  12  13
ATOM     13  C   UNL     1       2.187   3.389  18.697  0.00  0.00    +0.000 A 
ATOM     14  C   UNL     1       2.017   2.283  19.541  0.00  0.00    +0.000 A 
ATOM     15  C   UNL     1       1.639   2.461  20.874  0.00  0.00    +0.000 A 
ATOM     16  C   UNL     1       1.426   3.745  21.374  0.00  0.00    +0.000 A 
ATOM     17  C   UNL     1       1.598   4.851  20.546  0.00  0.00    +0.000 A 
ATOM     18  C   UNL     1       1.976   4.675  19.213  0.00  0.00    +0.000 A 
ENDBRANCH  12  13
ENDBRANCH  11  12
ENDBRANCH   9  11
ENDBRANCH   4   7
BRANCH   1  20
ATOM     19  C   UNL     1       9.111   9.976  18.827  0.00  0.00    +0.000 C 
ATOM     20  C   UNL     1       8.457   9.484  17.765  0.00  0.00    +0.000 C 
BRANCH  19  21
ATOM     21  C   UNL     1       9.842  11.266  18.723  0.00  0.00    +0.000 C 
ATOM     22  O   UNL     1      10.870  11.374  18.061  0.00  0.00    +0.000 OA
BRANCH  21  26
ATOM     23  C   UNL     1       8.217  14.772  20.632  0.00  0.00    +0.000 A 
ATOM     24  C   UNL     1       8.133  14.585  19.252  0.00  0.00    +0.000 A 
ATOM     25  C   UNL     1       8.661  13.436  18.651  0.00  0.00    +0.000 A 
ATOM     26  C   UNL     1       9.285  12.453  19.430  0.00  0.00    +0.000 A 
ATOM     27  C   UNL     1       9.383  12.660  20.810  0.00  0.00    +0.000 A 
ATOM     28  C   UNL     1       8.842  13.801  21.412  0.00  0.00    +0.000 A 
BRANCH  23  30
ATOM     29  C   UNL     1       6.252  16.025  21.102  0.00  0.00    +0.000 C 
ATOM     30  O   UNL     1       7.672  15.935  21.097  0.00  0.00    +0.000 OA
ENDBRANCH  23  30
BRANCH  27  31
ATOM     31  O   UNL     1      10.038  11.804  21.651  0.00  0.00    +0.000 OA
ATOM     32  H   UNL     1      10.310  11.039  21.110  0.00  0.00    +0.000 HD
ENDBRANCH  27  31
ENDBRANCH  21  26
ENDBRANCH  19  21
ENDBRANCH   1  20
TORSDOF 9
ENDMDL
MODEL 8
REMARK VINA RESULT:      -8.3      6.840     10.144
REMARK  Name = 
REMARK  10 active torsions:
REMARK  status: ('A' for Active; 'I' for Inactive)
REMARK    1  A    between atoms: C_1  and  O_2
REMARK    2  A    between atoms: O_2  and  C_3
REMARK    3  A    between atoms: C_6  and  C_7
REMARK    4  A    between atoms: C_7  and  C_9
REMARK    5  A    between atoms: C_10  and  C_11
REMARK    6  A    between atoms: C_14  and  C_15
REMARK    7  A    between atoms: N_17  and  C_18
REMARK    8  A    between atoms: C_18  and  C_19
REMARK    9  A    between atoms: C_19  and  C_20
REMARK   10  A    between atoms: C_28  and  O_29
REMARK                            x       y       z     vdW  Elec       q    Type
REMARK                         _______ _______ _______ _____ _____    ______ ____
ROOT
ATOM      1  C   UNL     1       2.291   7.404  18.769  0.00  0.00    +0.000 A 
ATOM      2  C   UNL     1       1.988   7.194  20.115  0.00  0.00    +0.000 A 
ATOM      3  C   UNL     1       1.348   8.196  20.855  0.00  0.00    +0.000 A 
ATOM      4  C   UNL     1       1.000   9.421  20.263  0.00  0.00    +0.000 A 
ATOM      5  C   UNL     1       1.309   9.626  18.912  0.00  0.00    +0.000 A 
ATOM      6  C   UNL     1       1.951   8.622  18.173  0.00  0.00    +0.000 A 
ENDROOT
BRANCH   4   7
ATOM      7  C   UNL     1       0.303  10.432  21.122  0.00  0.00    +0.000 C 
ATOM      8  O   UNL     1       0.526  10.463  22.329  0.00  0.00    +0.000 OA
ATOM      9  N   UNL     1      -0.578  11.309  20.517  0.00  0.00    +0.000 N 
ATOM     10  H   UNL     1      -0.705  11.317  19.519  0.00  0.00    +0.000 HD
BRANCH   9  11
ATOM     11  C   UNL     1      -1.261  12.320  21.310  0.00  0.00    +0.000 C 
BRANCH  11  12
ATOM     12  C   UNL     1      -2.679  12.596  20.811  0.00  0.00    +0.000 C 
BRANCH  12  13
ATOM     13  C   UNL     1      -3.666  12.673  21.949  0.00  0.00    +0.000 A 
ATOM     14  C   UNL     1      -4.993  13.059  21.715  0.00  0.00    +0.000 A 
ATOM     15  C   UNL     1      -5.892  13.180  22.777  0.00  0.00    +0.000 A 
ATOM     16  C   UNL     1      -5.473  12.919  24.080  0.00  0.00    +0.000 A 
ATOM     17  C   UNL     1      -4.158  12.531  24.324  0.00  0.00    +0.000 A 
ATOM     18  C   UNL     1      -3.257  12.409  23.263  0.00  0.00    +0.000 A 
ENDBRANCH  12  13
ENDBRANCH  11  12
ENDBRANCH   9  11
ENDBRANCH   4   7
BRANCH   1  20
ATOM     19  C   UNL     1       3.102   5.121  18.494  0.00  0.00    +0.000 C 
ATOM     20  C   UNL     1       2.924   6.347  17.981  0.00  0.00    +0.000 C 
BRANCH  19  21
ATOM     21  C   UNL     1       3.709   4.045  17.668  0.00  0.00    +0.000 C 
ATOM     22  O   UNL     1       3.234   2.914  17.631  0.00  0.00    +0.000 OA
BRANCH  21  26
ATOM     23  C   UNL     1       7.105   4.966  15.179  0.00  0.00    +0.000 A 
ATOM     24  C   UNL     1       5.813   4.889  14.655  0.00  0.00    +0.000 A 
ATOM     25  C   UNL     1       4.722   4.595  15.482  0.00  0.00    +0.000 A 
ATOM     26  C   UNL     1       4.911   4.372  16.852  0.00  0.00    +0.000 A 
ATOM     27  C   UNL     1       6.213   4.430  17.362  0.00  0.00    +0.000 A 
ATOM     28  C   UNL     1       7.301   4.739  16.539  0.00  0.00    +0.000 A 
BRANCH  23  30
ATOM     29  C   UNL     1       7.709   5.261  12.898  0.00  0.00    +0.000 C 
ATOM     30  O   UNL     1       8.085   5.251  14.271  0.00  0.00    +0.000 OA
ENDBRANCH  23  30
BRANCH  27  31
ATOM     31  O   UNL     1       6.518   4.154  18.666  0.00  0.00    +0.000 OA
ATOM     32  H   UNL     1       6.231   3.236  18.829  0.00  0.00    +0.000 HD
ENDBRANCH  27  31
ENDBRANCH  21  26
ENDBRANCH  19  21
ENDBRANCH   1  20
TORSDOF 9
ENDMDL
MODEL 9
REMARK VINA RESULT:      -8.3      7.038      9.718
REMARK  Name = 
REMARK  10 active torsions:
REMARK  status: ('A' for Active; 'I' for Inactive)
REMARK    1  A    between atoms: C_1  and  O_2
REMARK    2  A    between atoms: O_2  and  C_3
REMARK    3  A    between atoms: C_6  and  C_7
REMARK    4  A    between atoms: C_7  and  C_9
REMARK    5  A    between atoms: C_10  and  C_11
REMARK    6  A    between atoms: C_14  and  C_15
REMARK    7  A    between atoms: N_17  and  C_18
REMARK    8  A    between atoms: C_18  and  C_19
REMARK    9  A    between atoms: C_19  and  C_20
REMARK   10  A    between atoms: C_28  and  O_29
REMARK                            x       y       z     vdW  Elec       q    Type
REMARK                         _______ _______ _______ _____ _____    ______ ____
ROOT
ATOM      1  C   UNL     1       1.065   9.045  19.287  0.00  0.00    +0.000 A 
ATOM      2  C   UNL     1       1.377   8.106  20.271  0.00  0.00    +0.000 A 
ATOM      3  C   UNL     1       2.256   7.054  19.984  0.00  0.00    +0.000 A 
ATOM      4  C   UNL     1       2.837   6.924  18.712  0.00  0.00    +0.000 A 
ATOM      5  C   UNL     1       2.517   7.869  17.729  0.00  0.00    +0.000 A 
ATOM      6  C   UNL     1       1.636   8.921  18.017  0.00  0.00    +0.000 A 
ENDROOT
BRANCH   4   7
ATOM      7  C   UNL     1       3.779   5.779  18.495  0.00  0.00    +0.000 C 
ATOM      8  O   UNL     1       4.780   5.674  19.198  0.00  0.00    +0.000 OA
ATOM      9  N   UNL     1       3.484   4.867  17.499  0.00  0.00    +0.000 N 
ATOM     10  H   UNL     1       2.628   4.927  16.972  0.00  0.00    +0.000 HD
BRANCH   9  11
ATOM     11  C   UNL     1       4.360   3.729  17.269  0.00  0.00    +0.000 C 
BRANCH  11  12
ATOM     12  C   UNL     1       3.766   2.418  17.784  0.00  0.00    +0.000 C 
BRANCH  12  13
ATOM     13  C   UNL     1       2.897   2.639  18.997  0.00  0.00    +0.000 A 
ATOM     14  C   UNL     1       3.444   2.564  20.285  0.00  0.00    +0.000 A 
ATOM     15  C   UNL     1       2.629   2.717  21.409  0.00  0.00    +0.000 A 
ATOM     16  C   UNL     1       1.262   2.943  21.255  0.00  0.00    +0.000 A 
ATOM     17  C   UNL     1       0.709   3.024  19.979  0.00  0.00    +0.000 A 
ATOM     18  C   UNL     1       1.523   2.871  18.855  0.00  0.00    +0.000 A 
ENDBRANCH  12  13
ENDBRANCH  11  12
ENDBRANCH   9  11
ENDBRANCH   4   7
BRANCH   1  20
ATOM     19  C   UNL     1       0.059  11.198  18.742  0.00  0.00    +0.000 C 
ATOM     20  C   UNL     1       0.179  10.168  19.592  0.00  0.00    +0.000 C 
BRANCH  19  21
ATOM     21  C   UNL     1      -0.876  12.313  19.046  0.00  0.00    +0.000 C 
ATOM     22  O   UNL     1      -0.474  13.400  19.450  0.00  0.00    +0.000 OA
BRANCH  21  26
ATOM     23  C   UNL     1      -5.062  11.655  18.260  0.00  0.00    +0.000 A 
ATOM     24  C   UNL     1      -4.079  11.288  17.340  0.00  0.00    +0.000 A 
ATOM     25  C   UNL     1      -2.723  11.505  17.617  0.00  0.00    +0.000 A 
ATOM     26  C   UNL     1      -2.333  12.095  18.826  0.00  0.00    +0.000 A 
ATOM     27  C   UNL     1      -3.328  12.478  19.731  0.00  0.00    +0.000 A 
ATOM     28  C   UNL     1      -4.681  12.248  19.462  0.00  0.00    +0.000 A 
BRANCH  23  30
ATOM     29  C   UNL     1      -7.347  12.313  18.313  0.00  0.00    +0.000 C 
ATOM     30  O   UNL     1      -6.347  11.400  17.872  0.00  0.00    +0.000 OA
ENDBRANCH  23  30
BRANCH  27  31
ATOM     31  O   UNL     1      -3.063  13.130  20.904  0.00  0.00    +0.000 OA
ATOM     32  H   UNL     1      -3.910  13.197  21.382  0.00  0.00    +0.000 HD
ENDBRANCH  27  31
ENDBRANCH  21  26
ENDBRANCH  19  21
ENDBRANCH   1  20
TORSDOF 9
ENDMDL
