MODEL 1
REMARK VINA RESULT:      -8.2      0.000      0.000
REMARK  Name = 
REMARK  2 active torsions:
REMARK  status: ('A' for Active; 'I' for Inactive)
REMARK    1  A    between atoms: C_1  and  C_2
REMARK    2  A    between atoms: C_10  and  C_12
REMARK                            x       y       z     vdW  Elec       q    Type
REMARK                         _______ _______ _______ _____ _____    ______ ____
ROOT
ATOM      1  C   UNL     1       5.170   2.948  12.180  0.00  0.00    +0.000 C 
ATOM      2  C   UNL     1       6.152   3.858  12.850  0.00  0.00    +0.000 A 
ATOM      3  C   UNL     1       7.195   4.421  12.215  0.00  0.00    +0.000 A 
ATOM      4  C   UNL     1       8.073   5.287  13.051  0.00  0.00    +0.000 A 
ATOM      5  N   UNL     1       7.943   5.525  14.320  0.00  0.00    +0.000 NA
ATOM      6  C   UNL     1       6.876   4.927  14.930  0.00  0.00    +0.000 A 
ATOM      7  N   UNL     1       6.498   4.965  16.193  0.00  0.00    +0.000 NA
ATOM      8  C   UNL     1       5.340   4.245  16.203  0.00  0.00    +0.000 A 
ATOM      9  N   UNL     1       4.654   4.133  17.384  0.00  0.00    +0.000 N 
ATOM     10  C   UNL     1       3.380   3.625  17.477  0.00  0.00    +0.000 C 
ATOM     11  O   UNL     1       2.680   3.267  16.532  0.00  0.00    +0.000 OA
ATOM     12  N   UNL     1       5.006   3.699  15.039  0.00  0.00    +0.000 NA
ATOM     13  N   UNL     1       5.978   4.125  14.215  0.00  0.00    +0.000 N 
ATOM     14  H   UNL     1       5.126   4.538  18.180  0.00  0.00    +0.000 HD
ENDROOT
BRANCH  10  15
ATOM     15  C   UNL     1       2.785   3.479  18.840  0.00  0.00    +0.000 A 
ATOM     16  C   UNL     1       1.628   4.250  19.075  0.00  0.00    +0.000 A 
ATOM     17  C   UNL     1       0.991   4.246  20.316  0.00  0.00    +0.000 A 
ATOM     18  C   UNL     1       1.504   3.471  21.348  0.00  0.00    +0.000 A 
ATOM     19  C   UNL     1       2.649   2.702  21.135  0.00  0.00    +0.000 A 
ATOM     20  C   UNL     1       3.294   2.701  19.887  0.00  0.00    +0.000 A 
ATOM     21 CL   UNL     1       4.726   1.743  19.766  0.00  0.00    +0.000 Cl
ENDBRANCH  10  15
TORSDOF 1
ENDMDL
MODEL 2
REMARK VINA RESULT:      -8.1      1.294      1.531
REMARK  Name = 
REMARK  2 active torsions:
REMARK  status: ('A' for Active; 'I' for Inactive)
REMARK    1  A    between atoms: C_1  and  C_2
REMARK    2  A    between atoms: C_10  and  C_12
REMARK                            x       y       z     vdW  Elec       q    Type
REMARK                         _______ _______ _______ _____ _____    ______ ____
ROOT
ATOM      1  C   UNL     1       5.136   2.893  12.132  0.00  0.00    +0.000 C 
ATOM      2  C   UNL     1       6.133   3.817  12.759  0.00  0.00    +0.000 A 
ATOM      3  C   UNL     1       7.191   4.323  12.101  0.00  0.00    +0.000 A 
ATOM      4  C   UNL     1       8.082   5.215  12.895  0.00  0.00    +0.000 A 
ATOM      5  N   UNL     1       7.951   5.525  14.148  0.00  0.00    +0.000 NA
ATOM      6  C   UNL     1       6.868   4.982  14.783  0.00  0.00    +0.000 A 
ATOM      7  N   UNL     1       6.485   5.097  16.039  0.00  0.00    +0.000 NA
ATOM      8  C   UNL     1       5.312   4.403  16.081  0.00  0.00    +0.000 A 
ATOM      9  N   UNL     1       4.617   4.369  17.262  0.00  0.00    +0.000 N 
ATOM     10  C   UNL     1       3.332   3.893  17.373  0.00  0.00    +0.000 C 
ATOM     11  O   UNL     1       2.630   3.499  16.445  0.00  0.00    +0.000 OA
ATOM     12  N   UNL     1       4.972   3.801  14.946  0.00  0.00    +0.000 NA
ATOM     13  N   UNL     1       5.958   4.161  14.107  0.00  0.00    +0.000 N 
ATOM     14  H   UNL     1       5.093   4.807  18.037  0.00  0.00    +0.000 HD
ENDROOT
BRANCH  10  15
ATOM     15  C   UNL     1       2.727   3.834  18.738  0.00  0.00    +0.000 A 
ATOM     16  C   UNL     1       2.397   2.541  19.193  0.00  0.00    +0.000 A 
ATOM     17  C   UNL     1       1.786   2.338  20.430  0.00  0.00    +0.000 A 
ATOM     18  C   UNL     1       1.491   3.430  21.236  0.00  0.00    +0.000 A 
ATOM     19  C   UNL     1       1.810   4.718  20.804  0.00  0.00    +0.000 A 
ATOM     20  C   UNL     1       2.426   4.928  19.559  0.00  0.00    +0.000 A 
ATOM     21 CL   UNL     1       2.726   6.571  19.120  0.00  0.00    +0.000 Cl
ENDBRANCH  10  15
TORSDOF 1
ENDMDL
MODEL 3
REMARK VINA RESULT:      -7.4      4.741      7.831
REMARK  Name = 
REMARK  2 active torsions:
REMARK  status: ('A' for Active; 'I' for Inactive)
REMARK    1  A    between atoms: C_1  and  C_2
REMARK    2  A    between atoms: C_10  and  C_12
REMARK                            x       y       z     vdW  Elec       q    Type
REMARK                         _______ _______ _______ _____ _____    ______ ____
ROOT
ATOM      1  C   UNL     1      -0.065   8.509  21.674  0.00  0.00    +0.000 C 
ATOM      2  C   UNL     1       0.146   9.551  20.621  0.00  0.00    +0.000 A 
ATOM      3  C   UNL     1      -0.465  10.749  20.631  0.00  0.00    +0.000 A 
ATOM      4  C   UNL     1      -0.140  11.652  19.491  0.00  0.00    +0.000 A 
ATOM      5  N   UNL     1       0.644  11.387  18.492  0.00  0.00    +0.000 NA
ATOM      6  C   UNL     1       1.238  10.155  18.515  0.00  0.00    +0.000 A 
ATOM      7  N   UNL     1       2.058   9.600  17.644  0.00  0.00    +0.000 NA
ATOM      8  C   UNL     1       2.376   8.405  18.220  0.00  0.00    +0.000 A 
ATOM      9  N   UNL     1       3.269   7.589  17.576  0.00  0.00    +0.000 N 
ATOM     10  C   UNL     1       3.829   6.473  18.151  0.00  0.00    +0.000 C 
ATOM     11  O   UNL     1       3.655   6.099  19.309  0.00  0.00    +0.000 OA
ATOM     12  N   UNL     1       1.751   8.146  19.363  0.00  0.00    +0.000 NA
ATOM     13  N   UNL     1       1.019   9.255  19.565  0.00  0.00    +0.000 N 
ATOM     14  H   UNL     1       3.557   7.922  16.667  0.00  0.00    +0.000 HD
ENDROOT
BRANCH  10  15
ATOM     15  C   UNL     1       4.722   5.626  17.303  0.00  0.00    +0.000 A 
ATOM     16  C   UNL     1       5.941   6.227  16.928  0.00  0.00    +0.000 A 
ATOM     17  C   UNL     1       6.852   5.569  16.102  0.00  0.00    +0.000 A 
ATOM     18  C   UNL     1       6.558   4.296  15.633  0.00  0.00    +0.000 A 
ATOM     19  C   UNL     1       5.357   3.684  15.994  0.00  0.00    +0.000 A 
ATOM     20  C   UNL     1       4.435   4.341  16.825  0.00  0.00    +0.000 A 
ATOM     21 CL   UNL     1       2.966   3.496  17.160  0.00  0.00    +0.000 Cl
ENDBRANCH  10  15
TORSDOF 1
ENDMDL
MODEL 4
REMARK VINA RESULT:      -7.4      5.894      8.630
REMARK  Name = 
REMARK  2 active torsions:
REMARK  status: ('A' for Active; 'I' for Inactive)
REMARK    1  A    between atoms: C_1  and  C_2
REMARK    2  A    between atoms: C_10  and  C_12
REMARK                            x       y       z     vdW  Elec       q    Type
REMARK                         _______ _______ _______ _____ _____    ______ ____
ROOT
ATOM      1  C   UNL     1       0.553  12.112  18.976  0.00  0.00    +0.000 C 
ATOM      2  C   UNL     1       0.164  11.715  20.366  0.00  0.00    +0.000 A 
ATOM      3  C   UNL     1      -0.537  12.508  21.196  0.00  0.00    +0.000 A 
ATOM      4  C   UNL     1      -0.818  11.947  22.547  0.00  0.00    +0.000 A 
ATOM      5  N   UNL     1      -0.435  10.794  23.001  0.00  0.00    +0.000 NA
ATOM      6  C   UNL     1       0.283  10.022  22.130  0.00  0.00    +0.000 A 
ATOM      7  N   UNL     1       0.816   8.829  22.306  0.00  0.00    +0.000 NA
ATOM      8  C   UNL     1       1.347   8.531  21.086  0.00  0.00    +0.000 A 
ATOM      9  N   UNL     1       1.945   7.311  20.916  0.00  0.00    +0.000 N 
ATOM     10  C   UNL     1       2.319   6.812  19.691  0.00  0.00    +0.000 C 
ATOM     11  O   UNL     1       2.120   7.353  18.605  0.00  0.00    +0.000 OA
ATOM     12  N   UNL     1       1.241   9.494  20.176  0.00  0.00    +0.000 NA
ATOM     13  N   UNL     1       0.564  10.454  20.829  0.00  0.00    +0.000 N 
ATOM     14  H   UNL     1       2.012   6.759  21.759  0.00  0.00    +0.000 HD
ENDROOT
BRANCH  10  15
ATOM     15  C   UNL     1       3.041   5.504  19.661  0.00  0.00    +0.000 A 
ATOM     16  C   UNL     1       4.384   5.570  19.234  0.00  0.00    +0.000 A 
ATOM     17  C   UNL     1       5.166   4.421  19.116  0.00  0.00    +0.000 A 
ATOM     18  C   UNL     1       4.618   3.183  19.422  0.00  0.00    +0.000 A 
ATOM     19  C   UNL     1       3.291   3.097  19.847  0.00  0.00    +0.000 A 
ATOM     20  C   UNL     1       2.498   4.250  19.968  0.00  0.00    +0.000 A 
ATOM     21 CL   UNL     1       0.860   4.006  20.458  0.00  0.00    +0.000 Cl
ENDBRANCH  10  15
TORSDOF 1
ENDMDL
MODEL 5
REMARK VINA RESULT:      -7.4      5.665      8.832
REMARK  Name = 
REMARK  2 active torsions:
REMARK  status: ('A' for Active; 'I' for Inactive)
REMARK    1  A    between atoms: C_1  and  C_2
REMARK    2  A    between atoms: C_10  and  C_12
REMARK                            x       y       z     vdW  Elec       q    Type
REMARK                         _______ _______ _______ _____ _____    ______ ____
ROOT
ATOM      1  C   UNL     1      -0.578  12.142  19.479  0.00  0.00    +0.000 C 
ATOM      2  C   UNL     1      -0.525  11.355  20.751  0.00  0.00    +0.000 A 
ATOM      3  C   UNL     1      -1.154  11.726  21.880  0.00  0.00    +0.000 A 
ATOM      4  C   UNL     1      -0.975  10.821  23.050  0.00  0.00    +0.000 A 
ATOM      5  N   UNL     1      -0.259   9.739  23.090  0.00  0.00    +0.000 NA
ATOM      6  C   UNL     1       0.371   9.402  21.925  0.00  0.00    +0.000 A 
ATOM      7  N   UNL     1       1.169   8.385  21.663  0.00  0.00    +0.000 NA
ATOM      8  C   UNL     1       1.437   8.522  20.333  0.00  0.00    +0.000 A 
ATOM      9  N   UNL     1       2.219   7.574  19.726  0.00  0.00    +0.000 N 
ATOM     10  C   UNL     1       2.380   7.481  18.364  0.00  0.00    +0.000 C 
ATOM     11  O   UNL     1       1.814   8.180  17.526  0.00  0.00    +0.000 OA
ATOM     12  N   UNL     1       0.914   9.601  19.761  0.00  0.00    +0.000 NA
ATOM     13  N   UNL     1       0.230  10.174  20.765  0.00  0.00    +0.000 N 
ATOM     14  H   UNL     1       2.603   6.884  20.356  0.00  0.00    +0.000 HD
ENDROOT
BRANCH  10  15
ATOM     15  C   UNL     1       3.331   6.453  17.843  0.00  0.00    +0.000 A 
ATOM     16  C   UNL     1       4.547   6.961  17.340  0.00  0.00    +0.000 A 
ATOM     17  C   UNL     1       5.511   6.121  16.781  0.00  0.00    +0.000 A 
ATOM     18  C   UNL     1       5.274   4.754  16.715  0.00  0.00    +0.000 A 
ATOM     19  C   UNL     1       4.077   4.233  17.208  0.00  0.00    +0.000 A 
ATOM     20  C   UNL     1       3.102   5.073  17.771  0.00  0.00    +0.000 A 
ATOM     21 CL   UNL     1       1.647   4.311  18.303  0.00  0.00    +0.000 Cl
ENDBRANCH  10  15
TORSDOF 1
ENDMDL
MODEL 6
REMARK VINA RESULT:      -7.3      4.909      7.926
REMARK  Name = 
REMARK  2 active torsions:
REMARK  status: ('A' for Active; 'I' for Inactive)
REMARK    1  A    between atoms: C_1  and  C_2
REMARK    2  A    between atoms: C_10  and  C_12
REMARK                            x       y       z     vdW  Elec       q    Type
REMARK                         _______ _______ _______ _____ _____    ______ ____
ROOT
ATOM      1  C   UNL     1      -0.007   8.424  21.633  0.00  0.00    +0.000 C 
ATOM      2  C   UNL     1       0.176   9.498  20.606  0.00  0.00    +0.000 A 
ATOM      3  C   UNL     1      -0.471  10.677  20.643  0.00  0.00    +0.000 A 
ATOM      4  C   UNL     1      -0.170  11.617  19.527  0.00  0.00    +0.000 A 
ATOM      5  N   UNL     1       0.625  11.400  18.525  0.00  0.00    +0.000 NA
ATOM      6  C   UNL     1       1.256  10.187  18.520  0.00  0.00    +0.000 A 
ATOM      7  N   UNL     1       2.095   9.678  17.639  0.00  0.00    +0.000 NA
ATOM      8  C   UNL     1       2.447   8.480  18.186  0.00  0.00    +0.000 A 
ATOM      9  N   UNL     1       3.366   7.708  17.526  0.00  0.00    +0.000 N 
ATOM     10  C   UNL     1       3.959   6.595  18.075  0.00  0.00    +0.000 C 
ATOM     11  O   UNL     1       3.793   6.187  19.223  0.00  0.00    +0.000 OA
ATOM     12  N   UNL     1       1.826   8.174  19.320  0.00  0.00    +0.000 NA
ATOM     13  N   UNL     1       1.061   9.255  19.547  0.00  0.00    +0.000 N 
ATOM     14  H   UNL     1       3.647   8.071  16.627  0.00  0.00    +0.000 HD
ENDROOT
BRANCH  10  15
ATOM     15  C   UNL     1       4.879   5.796  17.211  0.00  0.00    +0.000 A 
ATOM     16  C   UNL     1       4.357   4.569  16.753  0.00  0.00    +0.000 A 
ATOM     17  C   UNL     1       5.121   3.700  15.973  0.00  0.00    +0.000 A 
ATOM     18  C   UNL     1       6.424   4.043  15.638  0.00  0.00    +0.000 A 
ATOM     19  C   UNL     1       6.958   5.255  16.081  0.00  0.00    +0.000 A 
ATOM     20  C   UNL     1       6.194   6.134  16.867  0.00  0.00    +0.000 A 
ATOM     21 CL   UNL     1       6.985   7.578  17.389  0.00  0.00    +0.000 Cl
ENDBRANCH  10  15
TORSDOF 1
ENDMDL
MODEL 7
REMARK VINA RESULT:      -7.2      5.570      8.433
REMARK  Name = 
REMARK  2 active torsions:
REMARK  status: ('A' for Active; 'I' for Inactive)
REMARK    1  A    between atoms: C_1  and  C_2
REMARK    2  A    between atoms: C_10  and  C_12
REMARK                            x       y       z     vdW  Elec       q    Type
REMARK                         _______ _______ _______ _____ _____    ______ ____
ROOT
ATOM      1  C   UNL     1      -0.412   9.781  22.588  0.00  0.00    +0.000 C 
ATOM      2  C   UNL     1      -0.191  10.700  21.427  0.00  0.00    +0.000 A 
ATOM      3  C   UNL     1      -0.626  11.972  21.394  0.00  0.00    +0.000 A 
ATOM      4  C   UNL     1      -0.324  12.729  20.148  0.00  0.00    +0.000 A 
ATOM      5  N   UNL     1       0.288  12.278  19.096  0.00  0.00    +0.000 NA
ATOM      6  C   UNL     1       0.705  10.977  19.166  0.00  0.00    +0.000 A 
ATOM      7  N   UNL     1       1.329  10.245  18.264  0.00  0.00    +0.000 NA
ATOM      8  C   UNL     1       1.548   9.062  18.908  0.00  0.00    +0.000 A 
ATOM      9  N   UNL     1       2.235   8.078  18.246  0.00  0.00    +0.000 N 
ATOM     10  C   UNL     1       2.704   6.939  18.855  0.00  0.00    +0.000 C 
ATOM     11  O   UNL     1       2.623   6.682  20.054  0.00  0.00    +0.000 OA
ATOM     12  N   UNL     1       1.039   8.985  20.132  0.00  0.00    +0.000 NA
ATOM     13  N   UNL     1       0.496  10.201  20.312  0.00  0.00    +0.000 N 
ATOM     14  H   UNL     1       2.452   8.297  17.285  0.00  0.00    +0.000 HD
ENDROOT
BRANCH  10  15
ATOM     15  C   UNL     1       3.360   5.908  17.995  0.00  0.00    +0.000 A 
ATOM     16  C   UNL     1       4.531   6.335  17.335  0.00  0.00    +0.000 A 
ATOM     17  C   UNL     1       5.225   5.493  16.466  0.00  0.00    +0.000 A 
ATOM     18  C   UNL     1       4.756   4.206  16.238  0.00  0.00    +0.000 A 
ATOM     19  C   UNL     1       3.599   3.765  16.882  0.00  0.00    +0.000 A 
ATOM     20  C   UNL     1       2.896   4.608  17.759  0.00  0.00    +0.000 A 
ATOM     21 CL   UNL     1       1.455   3.960  18.455  0.00  0.00    +0.000 Cl
ENDBRANCH  10  15
TORSDOF 1
ENDMDL
MODEL 8
REMARK VINA RESULT:      -7.1      5.792      8.446
REMARK  Name = 
REMARK  2 active torsions:
REMARK  status: ('A' for Active; 'I' for Inactive)
REMARK    1  A    between atoms: C_1  and  C_2
REMARK    2  A    between atoms: C_10  and  C_12
REMARK                            x       y       z     vdW  Elec       q    Type
REMARK                         _______ _______ _______ _____ _____    ______ ____
ROOT
ATOM      1  C   UNL     1       1.149  12.016  18.921  0.00  0.00    +0.000 C 
ATOM      2  C   UNL     1       0.576  11.698  20.267  0.00  0.00    +0.000 A 
ATOM      3  C   UNL     1      -0.113  12.583  21.008  0.00  0.00    +0.000 A 
ATOM      4  C   UNL     1      -0.594  12.089  22.329  0.00  0.00    +0.000 A 
ATOM      5  N   UNL     1      -0.393  10.911  22.835  0.00  0.00    +0.000 NA
ATOM      6  C   UNL     1       0.320  10.044  22.054  0.00  0.00    +0.000 A 
ATOM      7  N   UNL     1       0.694   8.803  22.299  0.00  0.00    +0.000 NA
ATOM      8  C   UNL     1       1.311   8.420  21.145  0.00  0.00    +0.000 A 
ATOM      9  N   UNL     1       1.783   7.137  21.054  0.00  0.00    +0.000 N 
ATOM     10  C   UNL     1       2.223   6.571  19.881  0.00  0.00    +0.000 C 
ATOM     11  O   UNL     1       2.199   7.105  18.774  0.00  0.00    +0.000 OA
ATOM     12  N   UNL     1       1.410   9.367  20.218  0.00  0.00    +0.000 NA
ATOM     13  N   UNL     1       0.781  10.411  20.784  0.00  0.00    +0.000 N 
ATOM     14  H   UNL     1       1.699   6.601  21.905  0.00  0.00    +0.000 HD
ENDROOT
BRANCH  10  15
ATOM     15  C   UNL     1       2.792   5.191  19.943  0.00  0.00    +0.000 A 
ATOM     16  C   UNL     1       2.077   4.283  20.750  0.00  0.00    +0.000 A 
ATOM     17  C   UNL     1       2.516   2.971  20.935  0.00  0.00    +0.000 A 
ATOM     18  C   UNL     1       3.684   2.546  20.317  0.00  0.00    +0.000 A 
ATOM     19  C   UNL     1       4.407   3.430  19.514  0.00  0.00    +0.000 A 
ATOM     20  C   UNL     1       3.969   4.752  19.324  0.00  0.00    +0.000 A 
ATOM     21 CL   UNL     1       4.976   5.759  18.346  0.00  0.00    +0.000 Cl
ENDBRANCH  10  15
TORSDOF 1
ENDMDL
MODEL 9
REMARK VINA RESULT:      -7.1      4.935      6.955
REMARK  Name = 
REMARK  2 active torsions:
REMARK  status: ('A' for Active; 'I' for Inactive)
REMARK    1  A    between atoms: C_1  and  C_2
REMARK    2  A    between atoms: C_10  and  C_12
REMARK                            x       y       z     vdW  Elec       q    Type
REMARK                         _______ _______ _______ _____ _____    ______ ____
ROOT
ATOM      1  C   UNL     1       3.973   4.656  16.799  0.00  0.00    +0.000 C 
ATOM      2  C   UNL     1       3.793   3.902  18.080  0.00  0.00    +0.000 A 
ATOM      3  C   UNL     1       4.245   2.650  18.273  0.00  0.00    +0.000 A 
ATOM      4  C   UNL     1       3.959   2.056  19.609  0.00  0.00    +0.000 A 
ATOM      5  N   UNL     1       3.303   2.613  20.580  0.00  0.00    +0.000 NA
ATOM      6  C   UNL     1       2.852   3.882  20.340  0.00  0.00    +0.000 A 
ATOM      7  N   UNL     1       2.152   4.687  21.114  0.00  0.00    +0.000 NA
ATOM      8  C   UNL     1       2.056   5.834  20.383  0.00  0.00    +0.000 A 
ATOM      9  N   UNL     1       1.414   6.909  20.938  0.00  0.00    +0.000 N 
ATOM     10  C   UNL     1       1.441   8.172  20.398  0.00  0.00    +0.000 C 
ATOM     11  O   UNL     1       2.076   8.512  19.402  0.00  0.00    +0.000 OA
ATOM     12  N   UNL     1       2.593   5.774  19.169  0.00  0.00    +0.000 NA
ATOM     13  N   UNL     1       3.105   4.532  19.126  0.00  0.00    +0.000 N 
ATOM     14  H   UNL     1       0.987   6.721  21.834  0.00  0.00    +0.000 HD
ENDROOT
BRANCH  10  15
ATOM     15  C   UNL     1       0.623   9.232  21.061  0.00  0.00    +0.000 A 
ATOM     16  C   UNL     1       0.435   9.064  22.449  0.00  0.00    +0.000 A 
ATOM     17  C   UNL     1      -0.343   9.954  23.190  0.00  0.00    +0.000 A 
ATOM     18  C   UNL     1      -0.949  11.029  22.555  0.00  0.00    +0.000 A 
ATOM     19  C   UNL     1      -0.774  11.213  21.182  0.00  0.00    +0.000 A 
ATOM     20  C   UNL     1       0.008  10.321  20.430  0.00  0.00    +0.000 A 
ATOM     21 CL   UNL     1       0.109  10.632  18.734  0.00  0.00    +0.000 Cl
ENDBRANCH  10  15
TORSDOF 1
ENDMDL
