MODEL 1
REMARK VINA RESULT:      -7.9      0.000      0.000
REMARK  Name = 
REMARK  4 active torsions:
REMARK  status: ('A' for Active; 'I' for Inactive)
REMARK    1  A    between atoms: C_9  and  N_10
REMARK    2  A    between atoms: N_16  and  N_17
REMARK    3  A    between atoms: N_17  and  C_18
REMARK    4  A    between atoms: C_21  and  N_22
REMARK                            x       y       z     vdW  Elec       q    Type
REMARK                         _______ _______ _______ _____ _____    ______ ____
ROOT
ATOM      1  O   UNL     1       8.566   5.704  19.877  0.00  0.00    +0.000 OA
ATOM      2  C   UNL     1       7.663   5.596  19.063  0.00  0.00    +0.000 C 
ATOM      3  N   UNL     1       6.551   4.815  19.236  0.00  0.00    +0.000 N 
ATOM      4  C   UNL     1       5.599   4.513  18.234  0.00  0.00    +0.000 A 
ATOM      5  C   UNL     1       5.843   4.899  16.901  0.00  0.00    +0.000 A 
ATOM      6  C   UNL     1       4.994   4.495  15.862  0.00  0.00    +0.000 A 
ATOM      7  C   UNL     1       3.866   3.729  16.147  0.00  0.00    +0.000 A 
ATOM      8  C   UNL     1       3.575   3.378  17.465  0.00  0.00    +0.000 A 
ATOM      9  C   UNL     1       4.436   3.765  18.509  0.00  0.00    +0.000 A 
ATOM     10  C   UNL     1       7.015   5.744  16.585  0.00  0.00    +0.000 C 
ATOM     11  O   UNL     1       7.433   5.916  15.455  0.00  0.00    +0.000 OA
ATOM     12  C   UNL     1       7.645   6.400  17.785  0.00  0.00    +0.000 C 
ATOM     13  N   UNL     1       7.982   7.659  17.726  0.00  0.00    +0.000 NA
ATOM     14  H   UNL     1       6.435   4.422  20.173  0.00  0.00    +0.000 HD
ENDROOT
BRANCH   9  15
ATOM     15  N   UNL     1       4.069   3.379  19.883  0.00  0.00    +0.000 N 
ATOM     16  O   UNL     1       3.121   3.969  20.421  0.00  0.00    +0.000 OA
ATOM     17  O   UNL     1       4.730   2.484  20.425  0.00  0.00    +0.000 OA
ENDBRANCH   9  15
BRANCH  13  18
ATOM     18  N   UNL     1       8.397   8.220  18.898  0.00  0.00    +0.000 N 
ATOM     19  H   UNL     1       8.851   7.626  19.605  0.00  0.00    +0.000 HD
BRANCH  18  20
ATOM     20  C   UNL     1       8.833   9.557  18.912  0.00  0.00    +0.000 A 
ATOM     21  C   UNL     1       8.685  10.404  17.806  0.00  0.00    +0.000 A 
ATOM     22  C   UNL     1       9.090  11.741  17.862  0.00  0.00    +0.000 A 
ATOM     23  C   UNL     1       9.621  12.249  19.053  0.00  0.00    +0.000 A 
ATOM     24  C   UNL     1       9.723  11.437  20.187  0.00  0.00    +0.000 A 
ATOM     25  C   UNL     1       9.320  10.100  20.111  0.00  0.00    +0.000 A 
BRANCH  23  26
ATOM     26  N   UNL     1      10.074  13.643  19.111  0.00  0.00    +0.000 N 
ATOM     27  O   UNL     1       9.744  14.398  18.185  0.00  0.00    +0.000 OA
ATOM     28  O   UNL     1      10.765  13.985  20.081  0.00  0.00    +0.000 OA
ENDBRANCH  23  26
ENDBRANCH  18  20
ENDBRANCH  13  18
TORSDOF 4
ENDMDL
MODEL 2
REMARK VINA RESULT:      -7.9      6.634      8.128
REMARK  Name = 
REMARK  4 active torsions:
REMARK  status: ('A' for Active; 'I' for Inactive)
REMARK    1  A    between atoms: C_9  and  N_10
REMARK    2  A    between atoms: N_16  and  N_17
REMARK    3  A    between atoms: N_17  and  C_18
REMARK    4  A    between atoms: C_21  and  N_22
REMARK                            x       y       z     vdW  Elec       q    Type
REMARK                         _______ _______ _______ _____ _____    ______ ____
ROOT
ATOM      1  O   UNL     1       1.508   8.882  17.848  0.00  0.00    +0.000 OA
ATOM      2  C   UNL     1       2.190   7.997  18.339  0.00  0.00    +0.000 C 
ATOM      3  N   UNL     1       3.313   7.470  17.758  0.00  0.00    +0.000 N 
ATOM      4  C   UNL     1       3.998   6.315  18.202  0.00  0.00    +0.000 A 
ATOM      5  C   UNL     1       3.441   5.523  19.225  0.00  0.00    +0.000 A 
ATOM      6  C   UNL     1       4.018   4.300  19.592  0.00  0.00    +0.000 A 
ATOM      7  C   UNL     1       5.183   3.867  18.963  0.00  0.00    +0.000 A 
ATOM      8  C   UNL     1       5.782   4.658  17.983  0.00  0.00    +0.000 A 
ATOM      9  C   UNL     1       5.196   5.879  17.598  0.00  0.00    +0.000 A 
ATOM     10  C   UNL     1       2.225   5.985  19.929  0.00  0.00    +0.000 C 
ATOM     11  O   UNL     1       1.548   5.265  20.641  0.00  0.00    +0.000 OA
ATOM     12  C   UNL     1       1.899   7.438  19.711  0.00  0.00    +0.000 C 
ATOM     13  N   UNL     1       1.554   8.179  20.728  0.00  0.00    +0.000 NA
ATOM     14  H   UNL     1       3.651   7.968  16.931  0.00  0.00    +0.000 HD
ENDROOT
BRANCH   9  15
ATOM     15  N   UNL     1       5.882   6.678  16.568  0.00  0.00    +0.000 N 
ATOM     16  O   UNL     1       6.995   7.148  16.842  0.00  0.00    +0.000 OA
ATOM     17  O   UNL     1       5.306   6.837  15.484  0.00  0.00    +0.000 OA
ENDBRANCH   9  15
BRANCH  13  18
ATOM     18  N   UNL     1       1.430   9.514  20.477  0.00  0.00    +0.000 N 
ATOM     19  H   UNL     1       1.599   9.863  19.524  0.00  0.00    +0.000 HD
BRANCH  18  20
ATOM     20  C   UNL     1       0.496  10.274  21.205  0.00  0.00    +0.000 A 
ATOM     21  C   UNL     1      -0.020  11.485  20.725  0.00  0.00    +0.000 A 
ATOM     22  C   UNL     1      -0.979  12.198  21.451  0.00  0.00    +0.000 A 
ATOM     23  C   UNL     1      -1.454  11.676  22.660  0.00  0.00    +0.000 A 
ATOM     24  C   UNL     1      -0.996  10.440  23.128  0.00  0.00    +0.000 A 
ATOM     25  C   UNL     1      -0.031   9.744  22.392  0.00  0.00    +0.000 A 
BRANCH  23  26
ATOM     26  N   UNL     1      -2.438  12.433  23.442  0.00  0.00    +0.000 N 
ATOM     27  O   UNL     1      -3.436  11.827  23.858  0.00  0.00    +0.000 OA
ATOM     28  O   UNL     1      -2.216  13.636  23.638  0.00  0.00    +0.000 OA
ENDBRANCH  23  26
ENDBRANCH  18  20
ENDBRANCH  13  18
TORSDOF 4
ENDMDL
MODEL 3
REMARK VINA RESULT:      -7.9      0.223      1.275
REMARK  Name = 
REMARK  4 active torsions:
REMARK  status: ('A' for Active; 'I' for Inactive)
REMARK    1  A    between atoms: C_9  and  N_10
REMARK    2  A    between atoms: N_16  and  N_17
REMARK    3  A    between atoms: N_17  and  C_18
REMARK    4  A    between atoms: C_21  and  N_22
REMARK                            x       y       z     vdW  Elec       q    Type
REMARK                         _______ _______ _______ _____ _____    ______ ____
ROOT
ATOM      1  O   UNL     1       8.570   5.663  19.877  0.00  0.00    +0.000 OA
ATOM      2  C   UNL     1       7.658   5.572  19.071  0.00  0.00    +0.000 C 
ATOM      3  N   UNL     1       6.535   4.809  19.253  0.00  0.00    +0.000 N 
ATOM      4  C   UNL     1       5.570   4.525  18.259  0.00  0.00    +0.000 A 
ATOM      5  C   UNL     1       5.807   4.911  16.925  0.00  0.00    +0.000 A 
ATOM      6  C   UNL     1       4.941   4.524  15.893  0.00  0.00    +0.000 A 
ATOM      7  C   UNL     1       3.804   3.774  16.187  0.00  0.00    +0.000 A 
ATOM      8  C   UNL     1       3.520   3.425  17.507  0.00  0.00    +0.000 A 
ATOM      9  C   UNL     1       4.397   3.795  18.544  0.00  0.00    +0.000 A 
ATOM     10  C   UNL     1       6.989   5.738  16.601  0.00  0.00    +0.000 C 
ATOM     11  O   UNL     1       7.399   5.906  15.466  0.00  0.00    +0.000 OA
ATOM     12  C   UNL     1       7.641   6.380  17.796  0.00  0.00    +0.000 C 
ATOM     13  N   UNL     1       7.997   7.634  17.737  0.00  0.00    +0.000 NA
ATOM     14  H   UNL     1       6.422   4.415  20.190  0.00  0.00    +0.000 HD
ENDROOT
BRANCH   9  15
ATOM     15  N   UNL     1       4.037   3.410  19.920  0.00  0.00    +0.000 N 
ATOM     16  O   UNL     1       4.708   2.526  20.471  0.00  0.00    +0.000 OA
ATOM     17  O   UNL     1       3.082   3.993  20.450  0.00  0.00    +0.000 OA
ENDBRANCH   9  15
BRANCH  13  18
ATOM     18  N   UNL     1       8.433   8.184  18.907  0.00  0.00    +0.000 N 
ATOM     19  H   UNL     1       8.968   7.603  19.566  0.00  0.00    +0.000 HD
BRANCH  18  20
ATOM     20  C   UNL     1       8.767   9.550  18.949  0.00  0.00    +0.000 A 
ATOM     21  C   UNL     1       9.426  10.126  20.043  0.00  0.00    +0.000 A 
ATOM     22  C   UNL     1       9.784  11.478  20.040  0.00  0.00    +0.000 A 
ATOM     23  C   UNL     1       9.507  12.259  18.912  0.00  0.00    +0.000 A 
ATOM     24  C   UNL     1       8.902  11.691  17.786  0.00  0.00    +0.000 A 
ATOM     25  C   UNL     1       8.546  10.339  17.809  0.00  0.00    +0.000 A 
BRANCH  23  26
ATOM     26  N   UNL     1       9.853  13.685  18.913  0.00  0.00    +0.000 N 
ATOM     27  O   UNL     1       9.938  14.259  20.009  0.00  0.00    +0.000 OA
ATOM     28  O   UNL     1      10.037  14.234  17.818  0.00  0.00    +0.000 OA
ENDBRANCH  23  26
ENDBRANCH  18  20
ENDBRANCH  13  18
TORSDOF 4
ENDMDL
MODEL 4
REMARK VINA RESULT:      -7.9      6.634      8.224
REMARK  Name = 
REMARK  4 active torsions:
REMARK  status: ('A' for Active; 'I' for Inactive)
REMARK    1  A    between atoms: C_9  and  N_10
REMARK    2  A    between atoms: N_16  and  N_17
REMARK    3  A    between atoms: N_17  and  C_18
REMARK    4  A    between atoms: C_21  and  N_22
REMARK                            x       y       z     vdW  Elec       q    Type
REMARK                         _______ _______ _______ _____ _____    ______ ____
ROOT
ATOM      1  O   UNL     1       1.465   8.860  17.954  0.00  0.00    +0.000 OA
ATOM      2  C   UNL     1       2.163   7.972  18.415  0.00  0.00    +0.000 C 
ATOM      3  N   UNL     1       3.284   7.472  17.807  0.00  0.00    +0.000 N 
ATOM      4  C   UNL     1       3.988   6.314  18.214  0.00  0.00    +0.000 A 
ATOM      5  C   UNL     1       3.453   5.492  19.226  0.00  0.00    +0.000 A 
ATOM      6  C   UNL     1       4.048   4.267  19.556  0.00  0.00    +0.000 A 
ATOM      7  C   UNL     1       5.210   3.863  18.902  0.00  0.00    +0.000 A 
ATOM      8  C   UNL     1       5.788   4.684  17.933  0.00  0.00    +0.000 A 
ATOM      9  C   UNL     1       5.183   5.906  17.586  0.00  0.00    +0.000 A 
ATOM     10  C   UNL     1       2.242   5.923  19.957  0.00  0.00    +0.000 C 
ATOM     11  O   UNL     1       1.582   5.179  20.660  0.00  0.00    +0.000 OA
ATOM     12  C   UNL     1       1.896   7.378  19.777  0.00  0.00    +0.000 C 
ATOM     13  N   UNL     1       1.557   8.090  20.816  0.00  0.00    +0.000 NA
ATOM     14  H   UNL     1       3.606   7.993  16.988  0.00  0.00    +0.000 HD
ENDROOT
BRANCH   9  15
ATOM     15  N   UNL     1       5.846   6.737  16.566  0.00  0.00    +0.000 N 
ATOM     16  O   UNL     1       6.968   7.194  16.827  0.00  0.00    +0.000 OA
ATOM     17  O   UNL     1       5.244   6.936  15.503  0.00  0.00    +0.000 OA
ENDBRANCH   9  15
BRANCH  13  18
ATOM     18  N   UNL     1       1.414   9.429  20.598  0.00  0.00    +0.000 N 
ATOM     19  H   UNL     1       1.672   9.818  19.681  0.00  0.00    +0.000 HD
BRANCH  18  20
ATOM     20  C   UNL     1       0.383  10.132  21.246  0.00  0.00    +0.000 A 
ATOM     21  C   UNL     1      -0.080   9.776  22.520  0.00  0.00    +0.000 A 
ATOM     22  C   UNL     1      -1.079  10.519  23.157  0.00  0.00    +0.000 A 
ATOM     23  C   UNL     1      -1.600  11.655  22.527  0.00  0.00    +0.000 A 
ATOM     24  C   UNL     1      -1.111  12.062  21.282  0.00  0.00    +0.000 A 
ATOM     25  C   UNL     1      -0.117  11.303  20.655  0.00  0.00    +0.000 A 
BRANCH  23  26
ATOM     26  N   UNL     1      -2.668  12.421  23.178  0.00  0.00    +0.000 N 
ATOM     27  O   UNL     1      -2.741  13.635  22.933  0.00  0.00    +0.000 OA
ATOM     28  O   UNL     1      -3.435  11.812  23.937  0.00  0.00    +0.000 OA
ENDBRANCH  23  26
ENDBRANCH  18  20
ENDBRANCH  13  18
TORSDOF 4
ENDMDL
MODEL 5
REMARK VINA RESULT:      -7.7      6.837      8.468
REMARK  Name = 
REMARK  4 active torsions:
REMARK  status: ('A' for Active; 'I' for Inactive)
REMARK    1  A    between atoms: C_9  and  N_10
REMARK    2  A    between atoms: N_16  and  N_17
REMARK    3  A    between atoms: N_17  and  C_18
REMARK    4  A    between atoms: C_21  and  N_22
REMARK                            x       y       z     vdW  Elec       q    Type
REMARK                         _______ _______ _______ _____ _____    ______ ____
ROOT
ATOM      1  O   UNL     1       1.684   8.459  21.379  0.00  0.00    +0.000 OA
ATOM      2  C   UNL     1       1.892   7.689  20.454  0.00  0.00    +0.000 C 
ATOM      3  N   UNL     1       1.924   6.325  20.573  0.00  0.00    +0.000 N 
ATOM      4  C   UNL     1       2.362   5.427  19.571  0.00  0.00    +0.000 A 
ATOM      5  C   UNL     1       2.960   5.929  18.398  0.00  0.00    +0.000 A 
ATOM      6  C   UNL     1       3.532   5.068  17.451  0.00  0.00    +0.000 A 
ATOM      7  C   UNL     1       3.482   3.690  17.646  0.00  0.00    +0.000 A 
ATOM      8  C   UNL     1       2.849   3.168  18.774  0.00  0.00    +0.000 A 
ATOM      9  C   UNL     1       2.290   4.028  19.738  0.00  0.00    +0.000 A 
ATOM     10  C   UNL     1       2.989   7.387  18.156  0.00  0.00    +0.000 C 
ATOM     11  O   UNL     1       3.688   7.913  17.308  0.00  0.00    +0.000 OA
ATOM     12  C   UNL     1       2.059   8.179  19.036  0.00  0.00    +0.000 C 
ATOM     13  N   UNL     1       1.323   9.119  18.511  0.00  0.00    +0.000 NA
ATOM     14  H   UNL     1       1.611   5.958  21.475  0.00  0.00    +0.000 HD
ENDROOT
BRANCH   9  15
ATOM     15  N   UNL     1       1.622   3.419  20.901  0.00  0.00    +0.000 N 
ATOM     16  O   UNL     1       0.571   2.792  20.706  0.00  0.00    +0.000 OA
ATOM     17  O   UNL     1       2.149   3.568  22.011  0.00  0.00    +0.000 OA
ENDBRANCH   9  15
BRANCH  13  18
ATOM     18  N   UNL     1       0.395   9.680  19.339  0.00  0.00    +0.000 N 
ATOM     19  H   UNL     1       0.710  10.181  20.180  0.00  0.00    +0.000 HD
BRANCH  18  20
ATOM     20  C   UNL     1      -0.809  10.170  18.801  0.00  0.00    +0.000 A 
ATOM     21  C   UNL     1      -1.537  11.200  19.411  0.00  0.00    +0.000 A 
ATOM     22  C   UNL     1      -2.709  11.696  18.832  0.00  0.00    +0.000 A 
ATOM     23  C   UNL     1      -3.143  11.178  17.606  0.00  0.00    +0.000 A 
ATOM     24  C   UNL     1      -2.399  10.191  16.951  0.00  0.00    +0.000 A 
ATOM     25  C   UNL     1      -1.233   9.701  17.548  0.00  0.00    +0.000 A 
BRANCH  23  26
ATOM     26  N   UNL     1      -4.387  11.673  17.006  0.00  0.00    +0.000 N 
ATOM     27  O   UNL     1      -4.581  11.445  15.804  0.00  0.00    +0.000 OA
ATOM     28  O   UNL     1      -5.171  12.294  17.738  0.00  0.00    +0.000 OA
ENDBRANCH  23  26
ENDBRANCH  18  20
ENDBRANCH  13  18
TORSDOF 4
ENDMDL
MODEL 6
REMARK VINA RESULT:      -7.7      7.460     10.143
REMARK  Name = 
REMARK  4 active torsions:
REMARK  status: ('A' for Active; 'I' for Inactive)
REMARK    1  A    between atoms: C_9  and  N_10
REMARK    2  A    between atoms: N_16  and  N_17
REMARK    3  A    between atoms: N_17  and  C_18
REMARK    4  A    between atoms: C_21  and  N_22
REMARK                            x       y       z     vdW  Elec       q    Type
REMARK                         _______ _______ _______ _____ _____    ______ ____
ROOT
ATOM      1  O   UNL     1       1.653   9.569  17.327  0.00  0.00    +0.000 OA
ATOM      2  C   UNL     1       0.841   9.922  18.168  0.00  0.00    +0.000 C 
ATOM      3  N   UNL     1      -0.392  10.447  17.883  0.00  0.00    +0.000 N 
ATOM      4  C   UNL     1      -1.261  11.049  18.823  0.00  0.00    +0.000 A 
ATOM      5  C   UNL     1      -0.812  11.285  20.137  0.00  0.00    +0.000 A 
ATOM      6  C   UNL     1      -1.592  12.004  21.052  0.00  0.00    +0.000 A 
ATOM      7  C   UNL     1      -2.851  12.468  20.676  0.00  0.00    +0.000 A 
ATOM      8  C   UNL     1      -3.339  12.201  19.397  0.00  0.00    +0.000 A 
ATOM      9  C   UNL     1      -2.551  11.496  18.468  0.00  0.00    +0.000 A 
ATOM     10  C   UNL     1       0.506  10.768  20.566  0.00  0.00    +0.000 C 
ATOM     11  O   UNL     1       1.070  11.129  21.583  0.00  0.00    +0.000 OA
ATOM     12  C   UNL     1       1.093   9.732  19.644  0.00  0.00    +0.000 C 
ATOM     13  N   UNL     1       1.627   8.654  20.147  0.00  0.00    +0.000 NA
ATOM     14  H   UNL     1      -0.672  10.396  16.901  0.00  0.00    +0.000 HD
ENDROOT
BRANCH   9  15
ATOM     15  N   UNL     1      -3.125  11.232  17.138  0.00  0.00    +0.000 N 
ATOM     16  O   UNL     1      -4.330  10.951  17.068  0.00  0.00    +0.000 OA
ATOM     17  O   UNL     1      -2.369  11.304  16.160  0.00  0.00    +0.000 OA
ENDBRANCH   9  15
BRANCH  13  18
ATOM     18  N   UNL     1       1.992   7.695  19.248  0.00  0.00    +0.000 N 
ATOM     19  H   UNL     1       2.425   7.980  18.359  0.00  0.00    +0.000 HD
BRANCH  18  20
ATOM     20  C   UNL     1       2.412   6.434  19.709  0.00  0.00    +0.000 A 
ATOM     21  C   UNL     1       1.698   5.716  20.677  0.00  0.00    +0.000 A 
ATOM     22  C   UNL     1       2.116   4.446  21.086  0.00  0.00    +0.000 A 
ATOM     23  C   UNL     1       3.247   3.871  20.495  0.00  0.00    +0.000 A 
ATOM     24  C   UNL     1       3.940   4.546  19.485  0.00  0.00    +0.000 A 
ATOM     25  C   UNL     1       3.512   5.818  19.093  0.00  0.00    +0.000 A 
BRANCH  23  26
ATOM     26  N   UNL     1       3.708   2.551  20.941  0.00  0.00    +0.000 N 
ATOM     27  O   UNL     1       3.114   2.021  21.891  0.00  0.00    +0.000 OA
ATOM     28  O   UNL     1       4.668   2.044  20.343  0.00  0.00    +0.000 OA
ENDBRANCH  23  26
ENDBRANCH  18  20
ENDBRANCH  13  18
TORSDOF 4
ENDMDL
MODEL 7
REMARK VINA RESULT:      -7.7      6.873      8.453
REMARK  Name = 
REMARK  4 active torsions:
REMARK  status: ('A' for Active; 'I' for Inactive)
REMARK    1  A    between atoms: C_9  and  N_10
REMARK    2  A    between atoms: N_16  and  N_17
REMARK    3  A    between atoms: N_17  and  C_18
REMARK    4  A    between atoms: C_21  and  N_22
REMARK                            x       y       z     vdW  Elec       q    Type
REMARK                         _______ _______ _______ _____ _____    ______ ____
ROOT
ATOM      1  O   UNL     1       1.754   8.542  21.351  0.00  0.00    +0.000 OA
ATOM      2  C   UNL     1       1.943   7.755  20.437  0.00  0.00    +0.000 C 
ATOM      3  N   UNL     1       1.970   6.393  20.579  0.00  0.00    +0.000 N 
ATOM      4  C   UNL     1       2.387   5.475  19.587  0.00  0.00    +0.000 A 
ATOM      5  C   UNL     1       2.969   5.952  18.396  0.00  0.00    +0.000 A 
ATOM      6  C   UNL     1       3.521   5.072  17.455  0.00  0.00    +0.000 A 
ATOM      7  C   UNL     1       3.467   3.698  17.676  0.00  0.00    +0.000 A 
ATOM      8  C   UNL     1       2.850   3.199  18.823  0.00  0.00    +0.000 A 
ATOM      9  C   UNL     1       2.311   4.080  19.780  0.00  0.00    +0.000 A 
ATOM     10  C   UNL     1       3.001   7.406  18.127  0.00  0.00    +0.000 C 
ATOM     11  O   UNL     1       3.689   7.912  17.259  0.00  0.00    +0.000 OA
ATOM     12  C   UNL     1       2.089   8.218  19.007  0.00  0.00    +0.000 C 
ATOM     13  N   UNL     1       1.350   9.153  18.478  0.00  0.00    +0.000 NA
ATOM     14  H   UNL     1       1.670   6.043  21.493  0.00  0.00    +0.000 HD
ENDROOT
BRANCH   9  15
ATOM     15  N   UNL     1       1.659   3.495  20.965  0.00  0.00    +0.000 N 
ATOM     16  O   UNL     1       0.578   2.910  20.805  0.00  0.00    +0.000 OA
ATOM     17  O   UNL     1       2.228   3.622  22.057  0.00  0.00    +0.000 OA
ENDBRANCH   9  15
BRANCH  13  18
ATOM     18  N   UNL     1       0.438   9.733  19.310  0.00  0.00    +0.000 N 
ATOM     19  H   UNL     1       0.769  10.231  20.147  0.00  0.00    +0.000 HD
BRANCH  18  20
ATOM     20  C   UNL     1      -0.761  10.244  18.779  0.00  0.00    +0.000 A 
ATOM     21  C   UNL     1      -1.325   9.750  17.596  0.00  0.00    +0.000 A 
ATOM     22  C   UNL     1      -2.539  10.248  17.114  0.00  0.00    +0.000 A 
ATOM     23  C   UNL     1      -3.217  11.233  17.842  0.00  0.00    +0.000 A 
ATOM     24  C   UNL     1      -2.700  11.698  19.056  0.00  0.00    +0.000 A 
ATOM     25  C   UNL     1      -1.481  11.194  19.520  0.00  0.00    +0.000 A 
BRANCH  23  26
ATOM     26  N   UNL     1      -4.476  11.781  17.327  0.00  0.00    +0.000 N 
ATOM     27  O   UNL     1      -5.192  12.422  18.111  0.00  0.00    +0.000 OA
ATOM     28  O   UNL     1      -4.753  11.570  16.138  0.00  0.00    +0.000 OA
ENDBRANCH  23  26
ENDBRANCH  18  20
ENDBRANCH  13  18
TORSDOF 4
ENDMDL
MODEL 8
REMARK VINA RESULT:      -7.6      1.270      1.531
REMARK  Name = 
REMARK  4 active torsions:
REMARK  status: ('A' for Active; 'I' for Inactive)
REMARK    1  A    between atoms: C_9  and  N_10
REMARK    2  A    between atoms: N_16  and  N_17
REMARK    3  A    between atoms: N_17  and  C_18
REMARK    4  A    between atoms: C_21  and  N_22
REMARK                            x       y       z     vdW  Elec       q    Type
REMARK                         _______ _______ _______ _____ _____    ______ ____
ROOT
ATOM      1  O   UNL     1       8.202   4.675  18.482  0.00  0.00    +0.000 OA
ATOM      2  C   UNL     1       7.000   4.732  18.278  0.00  0.00    +0.000 C 
ATOM      3  N   UNL     1       6.070   3.938  18.895  0.00  0.00    +0.000 N 
ATOM      4  C   UNL     1       4.706   3.842  18.531  0.00  0.00    +0.000 A 
ATOM      5  C   UNL     1       4.250   4.478  17.359  0.00  0.00    +0.000 A 
ATOM      6  C   UNL     1       2.942   4.288  16.892  0.00  0.00    +0.000 A 
ATOM      7  C   UNL     1       2.059   3.487  17.613  0.00  0.00    +0.000 A 
ATOM      8  C   UNL     1       2.472   2.889  18.803  0.00  0.00    +0.000 A 
ATOM      9  C   UNL     1       3.790   3.061  19.266  0.00  0.00    +0.000 A 
ATOM     10  C   UNL     1       5.163   5.361  16.602  0.00  0.00    +0.000 C 
ATOM     11  O   UNL     1       4.937   5.747  15.469  0.00  0.00    +0.000 OA
ATOM     12  C   UNL     1       6.398   5.769  17.360  0.00  0.00    +0.000 C 
ATOM     13  N   UNL     1       6.788   7.014  17.332  0.00  0.00    +0.000 NA
ATOM     14  H   UNL     1       6.424   3.372  19.670  0.00  0.00    +0.000 HD
ENDROOT
BRANCH   9  15
ATOM     15  N   UNL     1       4.164   2.417  20.537  0.00  0.00    +0.000 N 
ATOM     16  O   UNL     1       3.379   2.514  21.491  0.00  0.00    +0.000 OA
ATOM     17  O   UNL     1       5.244   1.814  20.581  0.00  0.00    +0.000 OA
ENDBRANCH   9  15
BRANCH  13  18
ATOM     18  N   UNL     1       7.818   7.334  18.168  0.00  0.00    +0.000 N 
ATOM     19  H   UNL     1       8.562   6.644  18.334  0.00  0.00    +0.000 HD
BRANCH  18  20
ATOM     20  C   UNL     1       8.249   8.670  18.258  0.00  0.00    +0.000 A 
ATOM     21  C   UNL     1       7.776   9.668  17.396  0.00  0.00    +0.000 A 
ATOM     22  C   UNL     1       8.191  10.997  17.536  0.00  0.00    +0.000 A 
ATOM     23  C   UNL     1       9.066  11.338  18.573  0.00  0.00    +0.000 A 
ATOM     24  C   UNL     1       9.504  10.368  19.480  0.00  0.00    +0.000 A 
ATOM     25  C   UNL     1       9.085   9.043  19.322  0.00  0.00    +0.000 A 
BRANCH  23  26
ATOM     26  N   UNL     1       9.527  12.725  18.708  0.00  0.00    +0.000 N 
ATOM     27  O   UNL     1       9.799  13.347  17.671  0.00  0.00    +0.000 OA
ATOM     28  O   UNL     1       9.621  13.192  19.852  0.00  0.00    +0.000 OA
ENDBRANCH  23  26
ENDBRANCH  18  20
ENDBRANCH  13  18
TORSDOF 4
ENDMDL
MODEL 9
REMARK VINA RESULT:      -7.6      6.921      9.011
REMARK  Name = 
REMARK  4 active torsions:
REMARK  status: ('A' for Active; 'I' for Inactive)
REMARK    1  A    between atoms: C_9  and  N_10
REMARK    2  A    between atoms: N_16  and  N_17
REMARK    3  A    between atoms: N_17  and  C_18
REMARK    4  A    between atoms: C_21  and  N_22
REMARK                            x       y       z     vdW  Elec       q    Type
REMARK                         _______ _______ _______ _____ _____    ______ ____
ROOT
ATOM      1  O   UNL     1       2.181   9.522  18.036  0.00  0.00    +0.000 OA
ATOM      2  C   UNL     1       1.436   9.661  18.993  0.00  0.00    +0.000 C 
ATOM      3  N   UNL     1       0.341  10.484  19.010  0.00  0.00    +0.000 N 
ATOM      4  C   UNL     1      -0.413  10.819  20.159  0.00  0.00    +0.000 A 
ATOM      5  C   UNL     1       0.041  10.420  21.432  0.00  0.00    +0.000 A 
ATOM      6  C   UNL     1      -0.602  10.852  22.600  0.00  0.00    +0.000 A 
ATOM      7  C   UNL     1      -1.733  11.661  22.510  0.00  0.00    +0.000 A 
ATOM      8  C   UNL     1      -2.232  12.027  21.260  0.00  0.00    +0.000 A 
ATOM      9  C   UNL     1      -1.578  11.611  20.084  0.00  0.00    +0.000 A 
ATOM     10  C   UNL     1       1.217   9.530  21.545  0.00  0.00    +0.000 C 
ATOM     11  O   UNL     1       1.816   9.339  22.588  0.00  0.00    +0.000 OA
ATOM     12  C   UNL     1       1.607   8.854  20.257  0.00  0.00    +0.000 C 
ATOM     13  N   UNL     1       1.901   7.584  20.262  0.00  0.00    +0.000 NA
ATOM     14  H   UNL     1       0.081  10.884  18.105  0.00  0.00    +0.000 HD
ENDROOT
BRANCH   9  15
ATOM     15  N   UNL     1      -2.159  12.015  18.793  0.00  0.00    +0.000 N 
ATOM     16  O   UNL     1      -1.395  12.458  17.923  0.00  0.00    +0.000 OA
ATOM     17  O   UNL     1      -3.382  11.890  18.647  0.00  0.00    +0.000 OA
ENDBRANCH   9  15
BRANCH  13  18
ATOM     18  N   UNL     1       2.088   7.012  19.038  0.00  0.00    +0.000 N 
ATOM     19  H   UNL     1       1.557   7.367  18.232  0.00  0.00    +0.000 HD
BRANCH  18  20
ATOM     20  C   UNL     1       3.350   6.486  18.703  0.00  0.00    +0.000 A 
ATOM     21  C   UNL     1       3.999   5.534  19.498  0.00  0.00    +0.000 A 
ATOM     22  C   UNL     1       5.234   4.998  19.119  0.00  0.00    +0.000 A 
ATOM     23  C   UNL     1       5.813   5.396  17.908  0.00  0.00    +0.000 A 
ATOM     24  C   UNL     1       5.154   6.302  17.071  0.00  0.00    +0.000 A 
ATOM     25  C   UNL     1       3.923   6.833  17.470  0.00  0.00    +0.000 A 
BRANCH  23  26
ATOM     26  N   UNL     1       7.122   4.861  17.518  0.00  0.00    +0.000 N 
ATOM     27  O   UNL     1       7.860   4.425  18.414  0.00  0.00    +0.000 OA
ATOM     28  O   UNL     1       7.415   4.877  16.314  0.00  0.00    +0.000 OA
ENDBRANCH  23  26
ENDBRANCH  18  20
ENDBRANCH  13  18
TORSDOF 4
ENDMDL
