MODEL 1
REMARK VINA RESULT:      -6.9      0.000      0.000
REMARK  Name = 
REMARK  10 active torsions:
REMARK  status: ('A' for Active; 'I' for Inactive)
REMARK    1  A    between atoms: C_1  and  C_2
REMARK    2  A    between atoms: C_5  and  C_6
REMARK    3  A    between atoms: C_7  and  C_8
REMARK    4  A    between atoms: C_8  and  C_10
REMARK    5  A    between atoms: C_10  and  O_11
REMARK    6  A    between atoms: O_11  and  C_12
REMARK    7  A    between atoms: C_12  and  C_14
REMARK    8  A    between atoms: C_14  and  C_15
REMARK    9  A    between atoms: C_15  and  C_16
REMARK   10  A    between atoms: C_16  and  N_17
REMARK                            x       y       z     vdW  Elec       q    Type
REMARK                         _______ _______ _______ _____ _____    ______ ____
ROOT
ATOM      1  O   UNL     1       5.087   4.143  18.371  0.00  0.00    +0.000 OA
ENDROOT
BRANCH   1   2
ATOM      2  C   UNL     1       5.724   4.680  17.296  0.00  0.00    +0.000 C 
ATOM      3  O   UNL     1       6.114   5.837  17.205  0.00  0.00    +0.000 OA
BRANCH   2   4
ATOM      4  C   UNL     1       5.722   3.710  16.142  0.00  0.00    +0.000 C 
BRANCH   4   5
ATOM      5  C   UNL     1       5.294   4.421  14.855  0.00  0.00    +0.000 C 
BRANCH   5   6
ATOM      6  C   UNL     1       6.386   4.401  13.781  0.00  0.00    +0.000 C 
BRANCH   6   7
ATOM      7  N   UNL     1       6.440   3.124  13.097  0.00  0.00    +0.000 N 
ATOM      8  C   UNL     1       5.602   2.818  12.071  0.00  0.00    +0.000 C 
ATOM      9  N   UNL     1       5.829   1.584  11.557  0.00  0.00    +0.000 N 
ATOM     10  O   UNL     1       4.720   3.542  11.633  0.00  0.00    +0.000 OA
ATOM     11  H   UNL     1       7.126   2.446  13.388  0.00  0.00    +0.000 HD
ATOM     12  H   UNL     1       6.616   1.015  11.820  0.00  0.00    +0.000 HD
ATOM     13  H   UNL     1       5.288   1.319  10.745  0.00  0.00    +0.000 HD
ENDBRANCH   6   7
ENDBRANCH   5   6
ENDBRANCH   4   5
ENDBRANCH   2   4
ENDBRANCH   1   2
BRANCH   1  14
ATOM     14  C   UNL     1       4.017   3.269  18.021  0.00  0.00    +0.000 C 
BRANCH  14  15
ATOM     15  C   UNL     1       2.637   3.914  17.879  0.00  0.00    +0.000 C 
ATOM     16  O   UNL     1       1.770   3.423  17.162  0.00  0.00    +0.000 OA
BRANCH  15  23
ATOM     17  C   UNL     1       2.345   8.949  17.875  0.00  0.00    +0.000 C 
ATOM     18  C   UNL     1       2.251   7.643  18.612  0.00  0.00    +0.000 A 
ATOM     19  C   UNL     1       1.933   7.622  19.971  0.00  0.00    +0.000 A 
ATOM     20  C   UNL     1       1.838   6.410  20.654  0.00  0.00    +0.000 A 
ATOM     21  C   UNL     1       2.063   5.186  19.999  0.00  0.00    +0.000 A 
ATOM     22  C   UNL     1       1.967   3.919  20.804  0.00  0.00    +0.000 C 
ATOM     23  C   UNL     1       2.389   5.197  18.627  0.00  0.00    +0.000 A 
ATOM     24  C   UNL     1       2.475   6.427  17.946  0.00  0.00    +0.000 A 
ENDBRANCH  15  23
ENDBRANCH  14  15
ENDBRANCH   1  14
TORSDOF 8
ENDMDL
MODEL 2
REMARK VINA RESULT:      -6.9      1.740      2.233
REMARK  Name = 
REMARK  10 active torsions:
REMARK  status: ('A' for Active; 'I' for Inactive)
REMARK    1  A    between atoms: C_1  and  C_2
REMARK    2  A    between atoms: C_5  and  C_6
REMARK    3  A    between atoms: C_7  and  C_8
REMARK    4  A    between atoms: C_8  and  C_10
REMARK    5  A    between atoms: C_10  and  O_11
REMARK    6  A    between atoms: O_11  and  C_12
REMARK    7  A    between atoms: C_12  and  C_14
REMARK    8  A    between atoms: C_14  and  C_15
REMARK    9  A    between atoms: C_15  and  C_16
REMARK   10  A    between atoms: C_16  and  N_17
REMARK                            x       y       z     vdW  Elec       q    Type
REMARK                         _______ _______ _______ _____ _____    ______ ____
ROOT
ATOM      1  O   UNL     1       6.046   4.187  18.222  0.00  0.00    +0.000 OA
ENDROOT
BRANCH   1   2
ATOM      2  C   UNL     1       6.822   5.187  18.717  0.00  0.00    +0.000 C 
ATOM      3  O   UNL     1       7.037   5.401  19.903  0.00  0.00    +0.000 OA
BRANCH   2   4
ATOM      4  C   UNL     1       7.239   6.126  17.615  0.00  0.00    +0.000 C 
BRANCH   4   5
ATOM      5  C   UNL     1       6.065   7.022  17.210  0.00  0.00    +0.000 C 
BRANCH   5   6
ATOM      6  C   UNL     1       5.565   6.733  15.791  0.00  0.00    +0.000 C 
BRANCH   6   7
ATOM      7  N   UNL     1       5.597   5.316  15.490  0.00  0.00    +0.000 N 
ATOM      8  C   UNL     1       6.448   4.792  14.568  0.00  0.00    +0.000 C 
ATOM      9  N   UNL     1       6.332   3.446  14.450  0.00  0.00    +0.000 N 
ATOM     10  O   UNL     1       7.240   5.429  13.889  0.00  0.00    +0.000 OA
ATOM     11  H   UNL     1       4.973   4.700  15.986  0.00  0.00    +0.000 HD
ATOM     12  H   UNL     1       5.773   2.887  15.071  0.00  0.00    +0.000 HD
ATOM     13  H   UNL     1       6.984   2.983  13.832  0.00  0.00    +0.000 HD
ENDBRANCH   6   7
ENDBRANCH   5   6
ENDBRANCH   4   5
ENDBRANCH   2   4
ENDBRANCH   1   2
BRANCH   1  14
ATOM     14  C   UNL     1       5.107   3.673  19.163  0.00  0.00    +0.000 C 
BRANCH  14  15
ATOM     15  C   UNL     1       3.630   3.841  18.804  0.00  0.00    +0.000 C 
ATOM     16  O   UNL     1       3.019   2.978  18.180  0.00  0.00    +0.000 OA
BRANCH  15  23
ATOM     17  C   UNL     1       2.475   8.646  17.799  0.00  0.00    +0.000 C 
ATOM     18  C   UNL     1       2.402   7.457  18.714  0.00  0.00    +0.000 A 
ATOM     19  C   UNL     1       1.715   7.541  19.926  0.00  0.00    +0.000 A 
ATOM     20  C   UNL     1       1.641   6.436  20.772  0.00  0.00    +0.000 A 
ATOM     21  C   UNL     1       2.255   5.217  20.434  0.00  0.00    +0.000 A 
ATOM     22  C   UNL     1       2.155   4.074  21.406  0.00  0.00    +0.000 C 
ATOM     23  C   UNL     1       2.956   5.123  19.213  0.00  0.00    +0.000 A 
ATOM     24  C   UNL     1       3.018   6.245  18.363  0.00  0.00    +0.000 A 
ENDBRANCH  15  23
ENDBRANCH  14  15
ENDBRANCH   1  14
TORSDOF 8
ENDMDL
MODEL 3
REMARK VINA RESULT:      -6.9      1.660      2.265
REMARK  Name = 
REMARK  10 active torsions:
REMARK  status: ('A' for Active; 'I' for Inactive)
REMARK    1  A    between atoms: C_1  and  C_2
REMARK    2  A    between atoms: C_5  and  C_6
REMARK    3  A    between atoms: C_7  and  C_8
REMARK    4  A    between atoms: C_8  and  C_10
REMARK    5  A    between atoms: C_10  and  O_11
REMARK    6  A    between atoms: O_11  and  C_12
REMARK    7  A    between atoms: C_12  and  C_14
REMARK    8  A    between atoms: C_14  and  C_15
REMARK    9  A    between atoms: C_15  and  C_16
REMARK   10  A    between atoms: C_16  and  N_17
REMARK                            x       y       z     vdW  Elec       q    Type
REMARK                         _______ _______ _______ _____ _____    ______ ____
ROOT
ATOM      1  O   UNL     1       5.065   5.446  16.360  0.00  0.00    +0.000 OA
ENDROOT
BRANCH   1   2
ATOM      2  C   UNL     1       6.370   5.824  16.309  0.00  0.00    +0.000 C 
ATOM      3  O   UNL     1       6.807   6.919  16.639  0.00  0.00    +0.000 OA
BRANCH   2   4
ATOM      4  C   UNL     1       7.196   4.777  15.607  0.00  0.00    +0.000 C 
BRANCH   4   5
ATOM      5  C   UNL     1       6.984   4.864  14.093  0.00  0.00    +0.000 C 
BRANCH   5   6
ATOM      6  C   UNL     1       5.806   4.010  13.613  0.00  0.00    +0.000 C 
BRANCH   6   7
ATOM      7  N   UNL     1       6.253   2.869  12.838  0.00  0.00    +0.000 N 
ATOM      8  C   UNL     1       5.547   2.395  11.778  0.00  0.00    +0.000 C 
ATOM      9  N   UNL     1       6.145   1.335  11.179  0.00  0.00    +0.000 N 
ATOM     10  O   UNL     1       4.481   2.839  11.378  0.00  0.00    +0.000 OA
ATOM     11  H   UNL     1       7.117   2.418  13.092  0.00  0.00    +0.000 HD
ATOM     12  H   UNL     1       7.071   1.022  11.414  0.00  0.00    +0.000 HD
ATOM     13  H   UNL     1       5.709   0.977  10.340  0.00  0.00    +0.000 HD
ENDBRANCH   6   7
ENDBRANCH   5   6
ENDBRANCH   4   5
ENDBRANCH   2   4
ENDBRANCH   1   2
BRANCH   1  14
ATOM     14  C   UNL     1       4.861   4.181  16.986  0.00  0.00    +0.000 C 
BRANCH  14  15
ATOM     15  C   UNL     1       4.863   4.177  18.516  0.00  0.00    +0.000 C 
ATOM     16  O   UNL     1       5.900   4.027  19.156  0.00  0.00    +0.000 OA
BRANCH  15  23
ATOM     17  C   UNL     1       1.504   7.132  20.842  0.00  0.00    +0.000 C 
ATOM     18  C   UNL     1       1.915   5.776  20.343  0.00  0.00    +0.000 A 
ATOM     19  C   UNL     1       1.075   4.675  20.520  0.00  0.00    +0.000 A 
ATOM     20  C   UNL     1       1.453   3.418  20.050  0.00  0.00    +0.000 A 
ATOM     21  C   UNL     1       2.681   3.225  19.394  0.00  0.00    +0.000 A 
ATOM     22  C   UNL     1       3.033   1.837  18.935  0.00  0.00    +0.000 C 
ATOM     23  C   UNL     1       3.538   4.330  19.213  0.00  0.00    +0.000 A 
ATOM     24  C   UNL     1       3.143   5.597  19.687  0.00  0.00    +0.000 A 
ENDBRANCH  15  23
ENDBRANCH  14  15
ENDBRANCH   1  14
TORSDOF 8
ENDMDL
MODEL 4
REMARK VINA RESULT:      -6.8      1.587      2.888
REMARK  Name = 
REMARK  10 active torsions:
REMARK  status: ('A' for Active; 'I' for Inactive)
REMARK    1  A    between atoms: C_1  and  C_2
REMARK    2  A    between atoms: C_5  and  C_6
REMARK    3  A    between atoms: C_7  and  C_8
REMARK    4  A    between atoms: C_8  and  C_10
REMARK    5  A    between atoms: C_10  and  O_11
REMARK    6  A    between atoms: O_11  and  C_12
REMARK    7  A    between atoms: C_12  and  C_14
REMARK    8  A    between atoms: C_14  and  C_15
REMARK    9  A    between atoms: C_15  and  C_16
REMARK   10  A    between atoms: C_16  and  N_17
REMARK                            x       y       z     vdW  Elec       q    Type
REMARK                         _______ _______ _______ _____ _____    ______ ____
ROOT
ATOM      1  O   UNL     1       6.878   4.493  16.669  0.00  0.00    +0.000 OA
ENDROOT
BRANCH   1   2
ATOM      2  C   UNL     1       6.711   5.350  15.626  0.00  0.00    +0.000 C 
ATOM      3  O   UNL     1       6.207   6.463  15.694  0.00  0.00    +0.000 OA
BRANCH   2   4
ATOM      4  C   UNL     1       7.057   4.672  14.325  0.00  0.00    +0.000 C 
BRANCH   4   5
ATOM      5  C   UNL     1       5.835   3.933  13.772  0.00  0.00    +0.000 C 
BRANCH   5   6
ATOM      6  C   UNL     1       5.963   3.618  12.279  0.00  0.00    +0.000 C 
BRANCH   6   7
ATOM      7  N   UNL     1       5.726   2.215  12.005  0.00  0.00    +0.000 N 
ATOM      8  C   UNL     1       6.636   1.441  11.357  0.00  0.00    +0.000 C 
ATOM      9  N   UNL     1       6.229   0.155  11.218  0.00  0.00    +0.000 N 
ATOM     10  O   UNL     1       7.713   1.823  10.922  0.00  0.00    +0.000 OA
ATOM     11  H   UNL     1       4.860   1.801  12.311  0.00  0.00    +0.000 HD
ATOM     12  H   UNL     1       5.404  -0.211  11.662  0.00  0.00    +0.000 HD
ATOM     13  H   UNL     1       6.889  -0.492  10.807  0.00  0.00    +0.000 HD
ENDBRANCH   6   7
ENDBRANCH   5   6
ENDBRANCH   4   5
ENDBRANCH   2   4
ENDBRANCH   1   2
BRANCH   1  14
ATOM     14  C   UNL     1       6.018   4.761  17.773  0.00  0.00    +0.000 C 
BRANCH  14  15
ATOM     15  C   UNL     1       4.599   4.196  17.676  0.00  0.00    +0.000 C 
ATOM     16  O   UNL     1       4.255   3.484  16.737  0.00  0.00    +0.000 OA
BRANCH  15  23
ATOM     17  C   UNL     1       1.894   2.884  21.725  0.00  0.00    +0.000 C 
ATOM     18  C   UNL     1       2.314   3.923  20.725  0.00  0.00    +0.000 A 
ATOM     19  C   UNL     1       1.811   5.222  20.804  0.00  0.00    +0.000 A 
ATOM     20  C   UNL     1       2.206   6.189  19.881  0.00  0.00    +0.000 A 
ATOM     21  C   UNL     1       3.113   5.884  18.851  0.00  0.00    +0.000 A 
ATOM     22  C   UNL     1       3.476   6.971  17.877  0.00  0.00    +0.000 C 
ATOM     23  C   UNL     1       3.625   4.573  18.759  0.00  0.00    +0.000 A 
ATOM     24  C   UNL     1       3.222   3.607  19.702  0.00  0.00    +0.000 A 
ENDBRANCH  15  23
ENDBRANCH  14  15
ENDBRANCH   1  14
TORSDOF 8
ENDMDL
MODEL 5
REMARK VINA RESULT:      -6.8      0.913      1.091
REMARK  Name = 
REMARK  10 active torsions:
REMARK  status: ('A' for Active; 'I' for Inactive)
REMARK    1  A    between atoms: C_1  and  C_2
REMARK    2  A    between atoms: C_5  and  C_6
REMARK    3  A    between atoms: C_7  and  C_8
REMARK    4  A    between atoms: C_8  and  C_10
REMARK    5  A    between atoms: C_10  and  O_11
REMARK    6  A    between atoms: O_11  and  C_12
REMARK    7  A    between atoms: C_12  and  C_14
REMARK    8  A    between atoms: C_14  and  C_15
REMARK    9  A    between atoms: C_15  and  C_16
REMARK   10  A    between atoms: C_16  and  N_17
REMARK                            x       y       z     vdW  Elec       q    Type
REMARK                         _______ _______ _______ _____ _____    ______ ____
ROOT
ATOM      1  O   UNL     1       4.248   2.872  17.401  0.00  0.00    +0.000 OA
ENDROOT
BRANCH   1   2
ATOM      2  C   UNL     1       5.098   3.790  17.932  0.00  0.00    +0.000 C 
ATOM      3  O   UNL     1       5.413   3.870  19.113  0.00  0.00    +0.000 OA
BRANCH   2   4
ATOM      4  C   UNL     1       5.463   4.829  16.903  0.00  0.00    +0.000 C 
BRANCH   4   5
ATOM      5  C   UNL     1       6.356   4.212  15.823  0.00  0.00    +0.000 C 
BRANCH   5   6
ATOM      6  C   UNL     1       5.714   4.254  14.433  0.00  0.00    +0.000 C 
BRANCH   6   7
ATOM      7  N   UNL     1       6.383   3.364  13.506  0.00  0.00    +0.000 N 
ATOM      8  C   UNL     1       5.849   3.043  12.298  0.00  0.00    +0.000 C 
ATOM      9  N   UNL     1       6.642   2.212  11.576  0.00  0.00    +0.000 N 
ATOM     10  O   UNL     1       4.771   3.431  11.872  0.00  0.00    +0.000 OA
ATOM     11  H   UNL     1       7.276   2.976  13.765  0.00  0.00    +0.000 HD
ATOM     12  H   UNL     1       7.578   1.969  11.851  0.00  0.00    +0.000 HD
ATOM     13  H   UNL     1       6.337   1.990  10.638  0.00  0.00    +0.000 HD
ENDBRANCH   6   7
ENDBRANCH   5   6
ENDBRANCH   4   5
ENDBRANCH   2   4
ENDBRANCH   1   2
BRANCH   1  14
ATOM     14  C   UNL     1       3.025   3.431  16.928  0.00  0.00    +0.000 C 
BRANCH  14  15
ATOM     15  C   UNL     1       1.941   3.669  17.981  0.00  0.00    +0.000 C 
ATOM     16  O   UNL     1       1.068   2.834  18.202  0.00  0.00    +0.000 OA
BRANCH  15  23
ATOM     17  C   UNL     1       2.515   8.679  17.893  0.00  0.00    +0.000 C 
ATOM     18  C   UNL     1       2.243   7.416  18.660  0.00  0.00    +0.000 A 
ATOM     19  C   UNL     1       2.006   7.463  20.035  0.00  0.00    +0.000 A 
ATOM     20  C   UNL     1       1.746   6.292  20.746  0.00  0.00    +0.000 A 
ATOM     21  C   UNL     1       1.719   5.041  20.104  0.00  0.00    +0.000 A 
ATOM     22  C   UNL     1       1.455   3.818  20.938  0.00  0.00    +0.000 C 
ATOM     23  C   UNL     1       1.960   4.982  18.715  0.00  0.00    +0.000 A 
ATOM     24  C   UNL     1       2.216   6.173  18.007  0.00  0.00    +0.000 A 
ENDBRANCH  15  23
ENDBRANCH  14  15
ENDBRANCH   1  14
TORSDOF 8
ENDMDL
MODEL 6
REMARK VINA RESULT:      -6.8      4.416      6.259
REMARK  Name = 
REMARK  10 active torsions:
REMARK  status: ('A' for Active; 'I' for Inactive)
REMARK    1  A    between atoms: C_1  and  C_2
REMARK    2  A    between atoms: C_5  and  C_6
REMARK    3  A    between atoms: C_7  and  C_8
REMARK    4  A    between atoms: C_8  and  C_10
REMARK    5  A    between atoms: C_10  and  O_11
REMARK    6  A    between atoms: O_11  and  C_12
REMARK    7  A    between atoms: C_12  and  C_14
REMARK    8  A    between atoms: C_14  and  C_15
REMARK    9  A    between atoms: C_15  and  C_16
REMARK   10  A    between atoms: C_16  and  N_17
REMARK                            x       y       z     vdW  Elec       q    Type
REMARK                         _______ _______ _______ _____ _____    ______ ____
ROOT
ATOM      1  O   UNL     1       7.073   4.401  18.010  0.00  0.00    +0.000 OA
ENDROOT
BRANCH   1   2
ATOM      2  C   UNL     1       7.417   5.487  18.752  0.00  0.00    +0.000 C 
ATOM      3  O   UNL     1       7.407   5.546  19.974  0.00  0.00    +0.000 OA
BRANCH   2   4
ATOM      4  C   UNL     1       7.634   6.685  17.863  0.00  0.00    +0.000 C 
BRANCH   4   5
ATOM      5  C   UNL     1       8.432   7.758  18.609  0.00  0.00    +0.000 C 
BRANCH   5   6
ATOM      6  C   UNL     1       8.216   9.161  18.031  0.00  0.00    +0.000 C 
BRANCH   6   7
ATOM      7  N   UNL     1       9.101  10.133  18.640  0.00  0.00    +0.000 N 
ATOM      8  C   UNL     1       9.046  11.455  18.328  0.00  0.00    +0.000 C 
ATOM      9  N   UNL     1       9.946  12.197  19.021  0.00  0.00    +0.000 N 
ATOM     10  O   UNL     1       8.291  11.962  17.512  0.00  0.00    +0.000 OA
ATOM     11  H   UNL     1       9.774   9.818  19.320  0.00  0.00    +0.000 HD
ATOM     12  H   UNL     1      10.498  11.826  19.776  0.00  0.00    +0.000 HD
ATOM     13  H   UNL     1       9.911  13.199  18.890  0.00  0.00    +0.000 HD
ENDBRANCH   6   7
ENDBRANCH   5   6
ENDBRANCH   4   5
ENDBRANCH   2   4
ENDBRANCH   1   2
BRANCH   1  14
ATOM     14  C   UNL     1       6.947   4.677  16.617  0.00  0.00    +0.000 C 
BRANCH  14  15
ATOM     15  C   UNL     1       5.545   4.526  16.024  0.00  0.00    +0.000 C 
ATOM     16  O   UNL     1       5.366   4.456  14.811  0.00  0.00    +0.000 OA
BRANCH  15  23
ATOM     17  C   UNL     1       2.276   1.877  18.805  0.00  0.00    +0.000 C 
ATOM     18  C   UNL     1       2.800   3.201  18.326  0.00  0.00    +0.000 A 
ATOM     19  C   UNL     1       2.219   4.391  18.769  0.00  0.00    +0.000 A 
ATOM     20  C   UNL     1       2.710   5.620  18.331  0.00  0.00    +0.000 A 
ATOM     21  C   UNL     1       3.791   5.696  17.437  0.00  0.00    +0.000 A 
ATOM     22  C   UNL     1       4.252   7.055  16.989  0.00  0.00    +0.000 C 
ATOM     23  C   UNL     1       4.383   4.500  16.980  0.00  0.00    +0.000 A 
ATOM     24  C   UNL     1       3.883   3.263  17.435  0.00  0.00    +0.000 A 
ENDBRANCH  15  23
ENDBRANCH  14  15
ENDBRANCH   1  14
TORSDOF 8
ENDMDL
MODEL 7
REMARK VINA RESULT:      -6.7      3.339      6.217
REMARK  Name = 
REMARK  10 active torsions:
REMARK  status: ('A' for Active; 'I' for Inactive)
REMARK    1  A    between atoms: C_1  and  C_2
REMARK    2  A    between atoms: C_5  and  C_6
REMARK    3  A    between atoms: C_7  and  C_8
REMARK    4  A    between atoms: C_8  and  C_10
REMARK    5  A    between atoms: C_10  and  O_11
REMARK    6  A    between atoms: O_11  and  C_12
REMARK    7  A    between atoms: C_12  and  C_14
REMARK    8  A    between atoms: C_14  and  C_15
REMARK    9  A    between atoms: C_15  and  C_16
REMARK   10  A    between atoms: C_16  and  N_17
REMARK                            x       y       z     vdW  Elec       q    Type
REMARK                         _______ _______ _______ _____ _____    ______ ____
ROOT
ATOM      1  O   UNL     1       2.889   1.937  19.107  0.00  0.00    +0.000 OA
ENDROOT
BRANCH   1   2
ATOM      2  C   UNL     1       3.572   2.275  20.234  0.00  0.00    +0.000 C 
ATOM      3  O   UNL     1       4.764   2.079  20.430  0.00  0.00    +0.000 OA
BRANCH   2   4
ATOM      4  C   UNL     1       2.622   2.757  21.301  0.00  0.00    +0.000 C 
BRANCH   4   5
ATOM      5  C   UNL     1       1.493   3.578  20.671  0.00  0.00    +0.000 C 
BRANCH   5   6
ATOM      6  C   UNL     1       1.714   5.088  20.812  0.00  0.00    +0.000 C 
BRANCH   6   7
ATOM      7  N   UNL     1       2.283   5.660  19.609  0.00  0.00    +0.000 N 
ATOM      8  C   UNL     1       2.346   7.003  19.408  0.00  0.00    +0.000 C 
ATOM      9  N   UNL     1       2.931   7.332  18.229  0.00  0.00    +0.000 N 
ATOM     10  O   UNL     1       1.926   7.857  20.174  0.00  0.00    +0.000 OA
ATOM     11  H   UNL     1       2.649   5.042  18.903  0.00  0.00    +0.000 HD
ATOM     12  H   UNL     1       3.385   6.659  17.635  0.00  0.00    +0.000 HD
ATOM     13  H   UNL     1       3.074   8.316  18.047  0.00  0.00    +0.000 HD
ENDBRANCH   6   7
ENDBRANCH   5   6
ENDBRANCH   4   5
ENDBRANCH   2   4
ENDBRANCH   1   2
BRANCH   1  14
ATOM     14  C   UNL     1       3.611   2.192  17.905  0.00  0.00    +0.000 C 
BRANCH  14  15
ATOM     15  C   UNL     1       3.670   3.651  17.449  0.00  0.00    +0.000 C 
ATOM     16  O   UNL     1       2.651   4.277  17.170  0.00  0.00    +0.000 OA
BRANCH  15  23
ATOM     17  C   UNL     1       7.693   5.761  19.638  0.00  0.00    +0.000 C 
ATOM     18  C   UNL     1       6.977   5.311  18.396  0.00  0.00    +0.000 A 
ATOM     19  C   UNL     1       7.568   5.474  17.143  0.00  0.00    +0.000 A 
ATOM     20  C   UNL     1       6.907   5.049  15.991  0.00  0.00    +0.000 A 
ATOM     21  C   UNL     1       5.636   4.452  16.059  0.00  0.00    +0.000 A 
ATOM     22  C   UNL     1       4.972   4.040  14.774  0.00  0.00    +0.000 C 
ATOM     23  C   UNL     1       5.028   4.285  17.321  0.00  0.00    +0.000 A 
ATOM     24  C   UNL     1       5.709   4.713  18.478  0.00  0.00    +0.000 A 
ENDBRANCH  15  23
ENDBRANCH  14  15
ENDBRANCH   1  14
TORSDOF 8
ENDMDL
MODEL 8
REMARK VINA RESULT:      -6.7      2.859      4.347
REMARK  Name = 
REMARK  10 active torsions:
REMARK  status: ('A' for Active; 'I' for Inactive)
REMARK    1  A    between atoms: C_1  and  C_2
REMARK    2  A    between atoms: C_5  and  C_6
REMARK    3  A    between atoms: C_7  and  C_8
REMARK    4  A    between atoms: C_8  and  C_10
REMARK    5  A    between atoms: C_10  and  O_11
REMARK    6  A    between atoms: O_11  and  C_12
REMARK    7  A    between atoms: C_12  and  C_14
REMARK    8  A    between atoms: C_14  and  C_15
REMARK    9  A    between atoms: C_15  and  C_16
REMARK   10  A    between atoms: C_16  and  N_17
REMARK                            x       y       z     vdW  Elec       q    Type
REMARK                         _______ _______ _______ _____ _____    ______ ____
ROOT
ATOM      1  O   UNL     1       1.648   3.843  18.876  0.00  0.00    +0.000 OA
ENDROOT
BRANCH   1   2
ATOM      2  C   UNL     1       2.486   2.774  18.941  0.00  0.00    +0.000 C 
ATOM      3  O   UNL     1       2.797   2.175  19.963  0.00  0.00    +0.000 OA
BRANCH   2   4
ATOM      4  C   UNL     1       3.140   2.534  17.605  0.00  0.00    +0.000 C 
BRANCH   4   5
ATOM      5  C   UNL     1       3.629   3.857  17.010  0.00  0.00    +0.000 C 
BRANCH   5   6
ATOM      6  C   UNL     1       5.125   3.839  16.683  0.00  0.00    +0.000 C 
BRANCH   6   7
ATOM      7  N   UNL     1       5.925   4.281  17.808  0.00  0.00    +0.000 N 
ATOM      8  C   UNL     1       7.245   4.579  17.683  0.00  0.00    +0.000 C 
ATOM      9  N   UNL     1       7.804   4.990  18.849  0.00  0.00    +0.000 N 
ATOM     10  O   UNL     1       7.900   4.491  16.655  0.00  0.00    +0.000 OA
ATOM     11  H   UNL     1       5.484   4.376  18.709  0.00  0.00    +0.000 HD
ATOM     12  H   UNL     1       7.268   5.179  19.678  0.00  0.00    +0.000 HD
ATOM     13  H   UNL     1       8.767   5.295  18.812  0.00  0.00    +0.000 HD
ENDBRANCH   6   7
ENDBRANCH   5   6
ENDBRANCH   4   5
ENDBRANCH   2   4
ENDBRANCH   1   2
BRANCH   1  14
ATOM     14  C   UNL     1       1.738   4.709  20.004  0.00  0.00    +0.000 C 
BRANCH  14  15
ATOM     15  C   UNL     1       2.686   5.902  19.865  0.00  0.00    +0.000 C 
ATOM     16  O   UNL     1       3.904   5.754  19.838  0.00  0.00    +0.000 OA
BRANCH  15  23
ATOM     17  C   UNL     1       0.005   9.567  22.060  0.00  0.00    +0.000 C 
ATOM     18  C   UNL     1       0.766   9.047  20.874  0.00  0.00    +0.000 A 
ATOM     19  C   UNL     1       0.905   9.830  19.727  0.00  0.00    +0.000 A 
ATOM     20  C   UNL     1       1.618   9.350  18.628  0.00  0.00    +0.000 A 
ATOM     21  C   UNL     1       2.208   8.075  18.644  0.00  0.00    +0.000 A 
ATOM     22  C   UNL     1       2.942   7.614  17.415  0.00  0.00    +0.000 C 
ATOM     23  C   UNL     1       2.071   7.274  19.797  0.00  0.00    +0.000 A 
ATOM     24  C   UNL     1       1.354   7.772  20.903  0.00  0.00    +0.000 A 
ENDBRANCH  15  23
ENDBRANCH  14  15
ENDBRANCH   1  14
TORSDOF 8
ENDMDL
MODEL 9
REMARK VINA RESULT:      -6.7      3.975      5.233
REMARK  Name = 
REMARK  10 active torsions:
REMARK  status: ('A' for Active; 'I' for Inactive)
REMARK    1  A    between atoms: C_1  and  C_2
REMARK    2  A    between atoms: C_5  and  C_6
REMARK    3  A    between atoms: C_7  and  C_8
REMARK    4  A    between atoms: C_8  and  C_10
REMARK    5  A    between atoms: C_10  and  O_11
REMARK    6  A    between atoms: O_11  and  C_12
REMARK    7  A    between atoms: C_12  and  C_14
REMARK    8  A    between atoms: C_14  and  C_15
REMARK    9  A    between atoms: C_15  and  C_16
REMARK   10  A    between atoms: C_16  and  N_17
REMARK                            x       y       z     vdW  Elec       q    Type
REMARK                         _______ _______ _______ _____ _____    ______ ____
ROOT
ATOM      1  O   UNL     1       6.160   4.485  18.527  0.00  0.00    +0.000 OA
ENDROOT
BRANCH   1   2
ATOM      2  C   UNL     1       7.382   4.881  18.078  0.00  0.00    +0.000 C 
ATOM      3  O   UNL     1       8.160   4.192  17.432  0.00  0.00    +0.000 OA
BRANCH   2   4
ATOM      4  C   UNL     1       7.740   6.230  18.646  0.00  0.00    +0.000 C 
BRANCH   4   5
ATOM      5  C   UNL     1       7.225   7.343  17.728  0.00  0.00    +0.000 C 
BRANCH   5   6
ATOM      6  C   UNL     1       8.212   8.507  17.603  0.00  0.00    +0.000 C 
BRANCH   6   7
ATOM      7  N   UNL     1       8.657   8.974  18.901  0.00  0.00    +0.000 N 
ATOM      8  C   UNL     1       9.173  10.218  19.084  0.00  0.00    +0.000 C 
ATOM      9  N   UNL     1       9.511  10.463  20.375  0.00  0.00    +0.000 N 
ATOM     10  O   UNL     1       9.342  11.053  18.208  0.00  0.00    +0.000 OA
ATOM     11  H   UNL     1       8.574   8.357  19.694  0.00  0.00    +0.000 HD
ATOM     12  H   UNL     1       9.280   9.841  21.130  0.00  0.00    +0.000 HD
ATOM     13  H   UNL     1       9.835  11.396  20.594  0.00  0.00    +0.000 HD
ENDBRANCH   6   7
ENDBRANCH   5   6
ENDBRANCH   4   5
ENDBRANCH   2   4
ENDBRANCH   1   2
BRANCH   1  14
ATOM     14  C   UNL     1       5.381   3.810  17.543  0.00  0.00    +0.000 C 
BRANCH  14  15
ATOM     15  C   UNL     1       3.877   3.731  17.810  0.00  0.00    +0.000 C 
ATOM     16  O   UNL     1       3.208   2.774  17.433  0.00  0.00    +0.000 OA
BRANCH  15  23
ATOM     17  C   UNL     1       2.474   8.575  17.830  0.00  0.00    +0.000 C 
ATOM     18  C   UNL     1       2.561   7.245  18.523  0.00  0.00    +0.000 A 
ATOM     19  C   UNL     1       2.048   7.087  19.812  0.00  0.00    +0.000 A 
ATOM     20  C   UNL     1       2.121   5.851  20.453  0.00  0.00    +0.000 A 
ATOM     21  C   UNL     1       2.712   4.740  19.826  0.00  0.00    +0.000 A 
ATOM     22  C   UNL     1       2.777   3.445  20.587  0.00  0.00    +0.000 C 
ATOM     23  C   UNL     1       3.236   4.890  18.525  0.00  0.00    +0.000 A 
ATOM     24  C   UNL     1       3.151   6.142  17.885  0.00  0.00    +0.000 A 
ENDBRANCH  15  23
ENDBRANCH  14  15
ENDBRANCH   1  14
TORSDOF 8
ENDMDL
