MODEL 1
REMARK VINA RESULT:      -8.0      0.000      0.000
REMARK  Name = 
REMARK  15 active torsions:
REMARK  status: ('A' for Active; 'I' for Inactive)
REMARK    1  A    between atoms: C_2  and  O_3
REMARK    2  A    between atoms: C_2  and  C_25
REMARK    3  A    between atoms: O_3  and  C_4
REMARK    4  A    between atoms: C_4  and  C_5
REMARK    5  A    between atoms: C_8  and  O_9
REMARK    6  A    between atoms: C_10  and  O_11
REMARK    7  A    between atoms: O_11  and  C_12
REMARK    8  A    between atoms: C_12  and  C_14
REMARK    9  A    between atoms: C_16  and  O_17
REMARK   10  A    between atoms: C_18  and  O_19
REMARK   11  A    between atoms: C_20  and  O_21
REMARK   12  A    between atoms: C_23  and  O_24
REMARK   13  A    between atoms: C_27  and  O_28
REMARK   14  A    between atoms: C_29  and  O_30
REMARK   15  A    between atoms: C_31  and  O_32
REMARK                            x       y       z     vdW  Elec       q    Type
REMARK                         _______ _______ _______ _____ _____    ______ ____
ROOT
ATOM      1  C   UNL     1       2.719   4.969  19.800  0.00  0.00    +0.000 C 
ATOM      2  O   UNL     1       2.100   3.683  19.969  0.00  0.00    +0.000 OA
ATOM      3  C   UNL     1       2.936   2.599  19.588  0.00  0.00    +0.000 C 
ATOM      4  C   UNL     1       3.304   2.661  18.104  0.00  0.00    +0.000 C 
ATOM      5  C   UNL     1       3.985   4.011  17.817  0.00  0.00    +0.000 C 
ATOM      6  C   UNL     1       3.146   5.201  18.331  0.00  0.00    +0.000 C 
ENDROOT
BRANCH   4   7
ATOM      7  O   UNL     1       4.197   1.595  17.763  0.00  0.00    +0.000 OA
ATOM      8  H   UNL     1       5.042   1.735  18.225  0.00  0.00    +0.000 HD
ENDBRANCH   4   7
BRANCH   6   9
ATOM      9  O   UNL     1       3.901   6.413  18.187  0.00  0.00    +0.000 OA
ATOM     10  H   UNL     1       3.304   7.169  18.317  0.00  0.00    +0.000 HD
ENDBRANCH   6   9
BRANCH   1  11
ATOM     11  C   UNL     1       1.700   6.015  20.292  0.00  0.00    +0.000 C 
BRANCH  11  12
ATOM     12  O   UNL     1       2.227   7.339  20.468  0.00  0.00    +0.000 OA
BRANCH  12  14
ATOM     13  O   UNL     1       1.670   8.462  18.552  0.00  0.00    +0.000 OA
ATOM     14  C   UNL     1       1.617   8.318  19.765  0.00  0.00    +0.000 C 
BRANCH  14  15
ATOM     15  C   UNL     1       0.833   9.218  20.654  0.00  0.00    +0.000 A 
ATOM     16  C   UNL     1       0.803   8.911  22.029  0.00  0.00    +0.000 A 
ATOM     17  C   UNL     1       0.111   9.743  22.903  0.00  0.00    +0.000 A 
ATOM     18  C   UNL     1      -0.541  10.873  22.423  0.00  0.00    +0.000 A 
ATOM     19  C   UNL     1      -0.523  11.169  21.067  0.00  0.00    +0.000 A 
ATOM     20  C   UNL     1       0.156  10.349  20.173  0.00  0.00    +0.000 A 
BRANCH  17  21
ATOM     21  O   UNL     1       0.047   9.492  24.245  0.00  0.00    +0.000 OA
ATOM     22  H   UNL     1      -0.079   8.536  24.377  0.00  0.00    +0.000 HD
ENDBRANCH  17  21
BRANCH  18  23
ATOM     23  O   UNL     1      -1.203  11.711  23.279  0.00  0.00    +0.000 OA
ATOM     24  H   UNL     1      -1.715  12.304  22.692  0.00  0.00    +0.000 HD
ENDBRANCH  18  23
BRANCH  19  25
ATOM     25  O   UNL     1      -1.170  12.278  20.604  0.00  0.00    +0.000 OA
ATOM     26  H   UNL     1      -1.592  12.670  21.396  0.00  0.00    +0.000 HD
ENDBRANCH  19  25
ENDBRANCH  14  15
ENDBRANCH  12  14
ENDBRANCH  11  12
ENDBRANCH   1  11
BRANCH   5  27
ATOM     27  O   UNL     1       4.403   4.162  16.429  0.00  0.00    +0.000 OA
BRANCH  27  28
ATOM     28  C   UNL     1       5.715   4.100  16.126  0.00  0.00    +0.000 C 
ATOM     29  O   UNL     1       6.230   3.326  15.333  0.00  0.00    +0.000 OA
BRANCH  28  30
ATOM     30  C   UNL     1       6.510   5.093  16.901  0.00  0.00    +0.000 A 
ATOM     31  C   UNL     1       7.181   4.626  18.048  0.00  0.00    +0.000 A 
ATOM     32  C   UNL     1       7.908   5.513  18.835  0.00  0.00    +0.000 A 
ATOM     33  C   UNL     1       7.987   6.856  18.478  0.00  0.00    +0.000 A 
ATOM     34  C   UNL     1       7.343   7.314  17.337  0.00  0.00    +0.000 A 
ATOM     35  C   UNL     1       6.597   6.448  16.544  0.00  0.00    +0.000 A 
BRANCH  32  36
ATOM     36  O   UNL     1       8.553   5.116  19.971  0.00  0.00    +0.000 OA
ATOM     37  H   UNL     1       7.993   5.340  20.735  0.00  0.00    +0.000 HD
ENDBRANCH  32  36
BRANCH  33  38
ATOM     38  O   UNL     1       8.700   7.735  19.245  0.00  0.00    +0.000 OA
ATOM     39  H   UNL     1       8.951   7.219  20.038  0.00  0.00    +0.000 HD
ENDBRANCH  33  38
BRANCH  34  40
ATOM     40  O   UNL     1       7.439   8.632  16.992  0.00  0.00    +0.000 OA
ATOM     41  H   UNL     1       7.414   8.635  16.013  0.00  0.00    +0.000 HD
ENDBRANCH  34  40
ENDBRANCH  28  30
ENDBRANCH  27  28
ENDBRANCH   5  27
TORSDOF 15
ENDMDL
MODEL 2
REMARK VINA RESULT:      -8.0      2.867      4.659
REMARK  Name = 
REMARK  15 active torsions:
REMARK  status: ('A' for Active; 'I' for Inactive)
REMARK    1  A    between atoms: C_2  and  O_3
REMARK    2  A    between atoms: C_2  and  C_25
REMARK    3  A    between atoms: O_3  and  C_4
REMARK    4  A    between atoms: C_4  and  C_5
REMARK    5  A    between atoms: C_8  and  O_9
REMARK    6  A    between atoms: C_10  and  O_11
REMARK    7  A    between atoms: O_11  and  C_12
REMARK    8  A    between atoms: C_12  and  C_14
REMARK    9  A    between atoms: C_16  and  O_17
REMARK   10  A    between atoms: C_18  and  O_19
REMARK   11  A    between atoms: C_20  and  O_21
REMARK   12  A    between atoms: C_23  and  O_24
REMARK   13  A    between atoms: C_27  and  O_28
REMARK   14  A    between atoms: C_29  and  O_30
REMARK   15  A    between atoms: C_31  and  O_32
REMARK                            x       y       z     vdW  Elec       q    Type
REMARK                         _______ _______ _______ _____ _____    ______ ____
ROOT
ATOM      1  C   UNL     1       2.156   8.618  18.951  0.00  0.00    +0.000 C 
ATOM      2  O   UNL     1       1.261   8.399  20.053  0.00  0.00    +0.000 OA
ATOM      3  C   UNL     1       1.722   7.418  20.971  0.00  0.00    +0.000 C 
ATOM      4  C   UNL     1       1.865   6.046  20.308  0.00  0.00    +0.000 C 
ATOM      5  C   UNL     1       2.820   6.170  19.107  0.00  0.00    +0.000 C 
ATOM      6  C   UNL     1       2.402   7.313  18.156  0.00  0.00    +0.000 C 
ENDROOT
BRANCH   4   7
ATOM      7  O   UNL     1       2.392   5.093  21.238  0.00  0.00    +0.000 OA
ATOM      8  H   UNL     1       2.767   4.345  20.741  0.00  0.00    +0.000 HD
ENDBRANCH   4   7
BRANCH   6   9
ATOM      9  O   UNL     1       3.413   7.490  17.153  0.00  0.00    +0.000 OA
ATOM     10  H   UNL     1       4.272   7.608  17.593  0.00  0.00    +0.000 HD
ENDBRANCH   6   9
BRANCH   1  11
ATOM     11  C   UNL     1       1.527   9.728  18.086  0.00  0.00    +0.000 C 
BRANCH  11  12
ATOM     12  O   UNL     1       0.092   9.759  18.090  0.00  0.00    +0.000 OA
BRANCH  12  14
ATOM     13  O   UNL     1       0.050  11.550  19.516  0.00  0.00    +0.000 OA
ATOM     14  C   UNL     1      -0.477  10.836  18.674  0.00  0.00    +0.000 C 
BRANCH  14  15
ATOM     15  C   UNL     1      -1.848  11.079  18.149  0.00  0.00    +0.000 A 
ATOM     16  C   UNL     1      -2.179  10.509  16.904  0.00  0.00    +0.000 A 
ATOM     17  C   UNL     1      -3.460  10.681  16.389  0.00  0.00    +0.000 A 
ATOM     18  C   UNL     1      -4.408  11.404  17.103  0.00  0.00    +0.000 A 
ATOM     19  C   UNL     1      -4.079  11.977  18.323  0.00  0.00    +0.000 A 
ATOM     20  C   UNL     1      -2.803  11.826  18.855  0.00  0.00    +0.000 A 
BRANCH  17  21
ATOM     21  O   UNL     1      -3.835  10.152  15.186  0.00  0.00    +0.000 OA
ATOM     22  H   UNL     1      -4.423   9.394  15.351  0.00  0.00    +0.000 HD
ENDBRANCH  17  21
BRANCH  18  23
ATOM     23  O   UNL     1      -5.678  11.558  16.616  0.00  0.00    +0.000 OA
ATOM     24  H   UNL     1      -5.990  12.399  17.009  0.00  0.00    +0.000 HD
ENDBRANCH  18  23
BRANCH  19  25
ATOM     25  O   UNL     1      -5.015  12.691  19.015  0.00  0.00    +0.000 OA
ATOM     26  H   UNL     1      -5.834  12.158  18.948  0.00  0.00    +0.000 HD
ENDBRANCH  19  25
ENDBRANCH  14  15
ENDBRANCH  12  14
ENDBRANCH  11  12
ENDBRANCH   1  11
BRANCH   5  27
ATOM     27  O   UNL     1       3.048   4.907  18.419  0.00  0.00    +0.000 OA
BRANCH  27  28
ATOM     28  C   UNL     1       4.214   4.258  18.604  0.00  0.00    +0.000 C 
ATOM     29  O   UNL     1       4.491   3.542  19.556  0.00  0.00    +0.000 OA
BRANCH  28  30
ATOM     30  C   UNL     1       5.179   4.526  17.502  0.00  0.00    +0.000 A 
ATOM     31  C   UNL     1       6.059   5.613  17.666  0.00  0.00    +0.000 A 
ATOM     32  C   UNL     1       6.956   5.938  16.655  0.00  0.00    +0.000 A 
ATOM     33  C   UNL     1       6.997   5.177  15.490  0.00  0.00    +0.000 A 
ATOM     34  C   UNL     1       6.145   4.093  15.335  0.00  0.00    +0.000 A 
ATOM     35  C   UNL     1       5.228   3.759  16.326  0.00  0.00    +0.000 A 
BRANCH  32  36
ATOM     36  O   UNL     1       7.810   6.999  16.754  0.00  0.00    +0.000 OA
ATOM     37  H   UNL     1       8.154   7.199  15.865  0.00  0.00    +0.000 HD
ENDBRANCH  32  36
BRANCH  33  38
ATOM     38  O   UNL     1       7.877   5.488  14.490  0.00  0.00    +0.000 OA
ATOM     39  H   UNL     1       8.597   5.974  14.942  0.00  0.00    +0.000 HD
ENDBRANCH  33  38
BRANCH  34  40
ATOM     40  O   UNL     1       6.204   3.347  14.191  0.00  0.00    +0.000 OA
ATOM     41  H   UNL     1       7.159   3.186  14.049  0.00  0.00    +0.000 HD
ENDBRANCH  34  40
ENDBRANCH  28  30
ENDBRANCH  27  28
ENDBRANCH   5  27
TORSDOF 15
ENDMDL
MODEL 3
REMARK VINA RESULT:      -7.9      2.914      4.653
REMARK  Name = 
REMARK  15 active torsions:
REMARK  status: ('A' for Active; 'I' for Inactive)
REMARK    1  A    between atoms: C_2  and  O_3
REMARK    2  A    between atoms: C_2  and  C_25
REMARK    3  A    between atoms: O_3  and  C_4
REMARK    4  A    between atoms: C_4  and  C_5
REMARK    5  A    between atoms: C_8  and  O_9
REMARK    6  A    between atoms: C_10  and  O_11
REMARK    7  A    between atoms: O_11  and  C_12
REMARK    8  A    between atoms: C_12  and  C_14
REMARK    9  A    between atoms: C_16  and  O_17
REMARK   10  A    between atoms: C_18  and  O_19
REMARK   11  A    between atoms: C_20  and  O_21
REMARK   12  A    between atoms: C_23  and  O_24
REMARK   13  A    between atoms: C_27  and  O_28
REMARK   14  A    between atoms: C_29  and  O_30
REMARK   15  A    between atoms: C_31  and  O_32
REMARK                            x       y       z     vdW  Elec       q    Type
REMARK                         _______ _______ _______ _____ _____    ______ ____
ROOT
ATOM      1  C   UNL     1       2.011   8.725  19.062  0.00  0.00    +0.000 C 
ATOM      2  O   UNL     1       1.107   8.456  20.146  0.00  0.00    +0.000 OA
ATOM      3  C   UNL     1       1.585   7.471  21.051  0.00  0.00    +0.000 C 
ATOM      4  C   UNL     1       1.780   6.118  20.363  0.00  0.00    +0.000 C 
ATOM      5  C   UNL     1       2.748   6.296  19.180  0.00  0.00    +0.000 C 
ATOM      6  C   UNL     1       2.309   7.445  18.245  0.00  0.00    +0.000 C 
ENDROOT
BRANCH   4   7
ATOM      7  O   UNL     1       2.323   5.162  21.281  0.00  0.00    +0.000 OA
ATOM      8  H   UNL     1       1.700   4.420  21.365  0.00  0.00    +0.000 HD
ENDBRANCH   4   7
BRANCH   6   9
ATOM      9  O   UNL     1       3.328   7.674  17.261  0.00  0.00    +0.000 OA
ATOM     10  H   UNL     1       3.167   7.086  16.504  0.00  0.00    +0.000 HD
ENDBRANCH   6   9
BRANCH   1  11
ATOM     11  C   UNL     1       1.361   9.833  18.211  0.00  0.00    +0.000 C 
BRANCH  11  12
ATOM     12  O   UNL     1      -0.069   9.912  18.309  0.00  0.00    +0.000 OA
BRANCH  12  14
ATOM     13  O   UNL     1       0.022  12.104  18.964  0.00  0.00    +0.000 OA
ATOM     14  C   UNL     1      -0.583  11.146  18.505  0.00  0.00    +0.000 C 
BRANCH  14  15
ATOM     15  C   UNL     1      -2.004  11.218  18.068  0.00  0.00    +0.000 A 
ATOM     16  C   UNL     1      -2.932  11.794  18.958  0.00  0.00    +0.000 A 
ATOM     17  C   UNL     1      -4.264  11.914  18.579  0.00  0.00    +0.000 A 
ATOM     18  C   UNL     1      -4.676  11.475  17.326  0.00  0.00    +0.000 A 
ATOM     19  C   UNL     1      -3.765  10.895  16.453  0.00  0.00    +0.000 A 
ATOM     20  C   UNL     1      -2.430  10.758  16.813  0.00  0.00    +0.000 A 
BRANCH  17  21
ATOM     21  O   UNL     1      -5.207  12.462  19.403  0.00  0.00    +0.000 OA
ATOM     22  H   UNL     1      -6.076  12.090  19.171  0.00  0.00    +0.000 HD
ENDBRANCH  17  21
BRANCH  18  23
ATOM     23  O   UNL     1      -5.980  11.611  16.934  0.00  0.00    +0.000 OA
ATOM     24  H   UNL     1      -6.466  10.949  17.469  0.00  0.00    +0.000 HD
ENDBRANCH  18  23
BRANCH  19  25
ATOM     25  O   UNL     1      -4.179  10.462  15.227  0.00  0.00    +0.000 OA
ATOM     26  H   UNL     1      -3.368  10.124  14.794  0.00  0.00    +0.000 HD
ENDBRANCH  19  25
ENDBRANCH  14  15
ENDBRANCH  12  14
ENDBRANCH  11  12
ENDBRANCH   1  11
BRANCH   5  27
ATOM     27  O   UNL     1       3.025   5.055  18.469  0.00  0.00    +0.000 OA
BRANCH  27  28
ATOM     28  C   UNL     1       4.195   4.422  18.683  0.00  0.00    +0.000 C 
ATOM     29  O   UNL     1       4.477   3.754  19.668  0.00  0.00    +0.000 OA
BRANCH  28  30
ATOM     30  C   UNL     1       5.157   4.641  17.568  0.00  0.00    +0.000 A 
ATOM     31  C   UNL     1       6.045   5.727  17.687  0.00  0.00    +0.000 A 
ATOM     32  C   UNL     1       6.940   6.007  16.660  0.00  0.00    +0.000 A 
ATOM     33  C   UNL     1       6.970   5.202  15.525  0.00  0.00    +0.000 A 
ATOM     34  C   UNL     1       6.110   4.120  15.414  0.00  0.00    +0.000 A 
ATOM     35  C   UNL     1       5.195   3.830  16.421  0.00  0.00    +0.000 A 
BRANCH  32  36
ATOM     36  O   UNL     1       7.802   7.065  16.716  0.00  0.00    +0.000 OA
ATOM     37  H   UNL     1       8.529   6.899  16.090  0.00  0.00    +0.000 HD
ENDBRANCH  32  36
BRANCH  33  38
ATOM     38  O   UNL     1       7.848   5.469  14.510  0.00  0.00    +0.000 OA
ATOM     39  H   UNL     1       7.301   5.430  13.698  0.00  0.00    +0.000 HD
ENDBRANCH  33  38
BRANCH  34  40
ATOM     40  O   UNL     1       6.158   3.331  14.299  0.00  0.00    +0.000 OA
ATOM     41  H   UNL     1       5.586   3.787  13.648  0.00  0.00    +0.000 HD
ENDBRANCH  34  40
ENDBRANCH  28  30
ENDBRANCH  27  28
ENDBRANCH   5  27
TORSDOF 15
ENDMDL
MODEL 4
REMARK VINA RESULT:      -7.9      2.203      3.666
REMARK  Name = 
REMARK  15 active torsions:
REMARK  status: ('A' for Active; 'I' for Inactive)
REMARK    1  A    between atoms: C_2  and  O_3
REMARK    2  A    between atoms: C_2  and  C_25
REMARK    3  A    between atoms: O_3  and  C_4
REMARK    4  A    between atoms: C_4  and  C_5
REMARK    5  A    between atoms: C_8  and  O_9
REMARK    6  A    between atoms: C_10  and  O_11
REMARK    7  A    between atoms: O_11  and  C_12
REMARK    8  A    between atoms: C_12  and  C_14
REMARK    9  A    between atoms: C_16  and  O_17
REMARK   10  A    between atoms: C_18  and  O_19
REMARK   11  A    between atoms: C_20  and  O_21
REMARK   12  A    between atoms: C_23  and  O_24
REMARK   13  A    between atoms: C_27  and  O_28
REMARK   14  A    between atoms: C_29  and  O_30
REMARK   15  A    between atoms: C_31  and  O_32
REMARK                            x       y       z     vdW  Elec       q    Type
REMARK                         _______ _______ _______ _____ _____    ______ ____
ROOT
ATOM      1  C   UNL     1       2.250   7.042  19.997  0.00  0.00    +0.000 C 
ATOM      2  O   UNL     1       1.318   6.287  20.789  0.00  0.00    +0.000 OA
ATOM      3  C   UNL     1       1.695   4.929  20.965  0.00  0.00    +0.000 C 
ATOM      4  C   UNL     1       1.764   4.183  19.630  0.00  0.00    +0.000 C 
ATOM      5  C   UNL     1       2.750   4.914  18.702  0.00  0.00    +0.000 C 
ATOM      6  C   UNL     1       2.429   6.421  18.591  0.00  0.00    +0.000 C 
ENDROOT
BRANCH   4   7
ATOM      7  O   UNL     1       2.208   2.837  19.830  0.00  0.00    +0.000 OA
ATOM      8  H   UNL     1       1.813   2.495  20.651  0.00  0.00    +0.000 HD
ENDBRANCH   4   7
BRANCH   6   9
ATOM      9  O   UNL     1       3.470   7.077  17.854  0.00  0.00    +0.000 OA
ATOM     10  H   UNL     1       4.216   7.248  18.454  0.00  0.00    +0.000 HD
ENDBRANCH   6   9
BRANCH   1  11
ATOM     11  C   UNL     1       1.713   8.486  19.942  0.00  0.00    +0.000 C 
BRANCH  11  12
ATOM     12  O   UNL     1       1.229   8.904  18.657  0.00  0.00    +0.000 OA
BRANCH  12  14
ATOM     13  O   UNL     1       2.077  11.000  18.301  0.00  0.00    +0.000 OA
ATOM     14  C   UNL     1       1.136  10.238  18.464  0.00  0.00    +0.000 C 
BRANCH  14  15
ATOM     15  C   UNL     1      -0.283  10.687  18.450  0.00  0.00    +0.000 A 
ATOM     16  C   UNL     1      -0.613  11.831  19.204  0.00  0.00    +0.000 A 
ATOM     17  C   UNL     1      -1.919  12.307  19.194  0.00  0.00    +0.000 A 
ATOM     18  C   UNL     1      -2.892  11.662  18.439  0.00  0.00    +0.000 A 
ATOM     19  C   UNL     1      -2.571  10.527  17.707  0.00  0.00    +0.000 A 
ATOM     20  C   UNL     1      -1.274  10.028  17.707  0.00  0.00    +0.000 A 
BRANCH  17  21
ATOM     21  O   UNL     1      -2.294  13.411  19.907  0.00  0.00    +0.000 OA
ATOM     22  H   UNL     1      -1.765  14.170  19.605  0.00  0.00    +0.000 HD
ENDBRANCH  17  21
BRANCH  18  23
ATOM     23  O   UNL     1      -4.174  12.138  18.403  0.00  0.00    +0.000 OA
ATOM     24  H   UNL     1      -4.343  12.452  19.316  0.00  0.00    +0.000 HD
ENDBRANCH  18  23
BRANCH  19  25
ATOM     25  O   UNL     1      -3.534   9.896  16.973  0.00  0.00    +0.000 OA
ATOM     26  H   UNL     1      -3.896  10.592  16.386  0.00  0.00    +0.000 HD
ENDBRANCH  19  25
ENDBRANCH  14  15
ENDBRANCH  12  14
ENDBRANCH  11  12
ENDBRANCH   1  11
BRANCH   5  27
ATOM     27  O   UNL     1       2.912   4.267  17.407  0.00  0.00    +0.000 OA
BRANCH  27  28
ATOM     28  C   UNL     1       3.934   3.408  17.223  0.00  0.00    +0.000 C 
ATOM     29  O   UNL     1       4.003   2.272  17.670  0.00  0.00    +0.000 OA
BRANCH  28  30
ATOM     30  C   UNL     1       5.025   4.011  16.408  0.00  0.00    +0.000 A 
ATOM     31  C   UNL     1       5.220   3.496  15.111  0.00  0.00    +0.000 A 
ATOM     32  C   UNL     1       6.248   3.990  14.317  0.00  0.00    +0.000 A 
ATOM     33  C   UNL     1       7.071   5.006  14.795  0.00  0.00    +0.000 A 
ATOM     34  C   UNL     1       6.867   5.529  16.064  0.00  0.00    +0.000 A 
ATOM     35  C   UNL     1       5.856   5.039  16.883  0.00  0.00    +0.000 A 
BRANCH  32  36
ATOM     36  O   UNL     1       6.496   3.505  13.064  0.00  0.00    +0.000 OA
ATOM     37  H   UNL     1       6.335   4.219  12.423  0.00  0.00    +0.000 HD
ENDBRANCH  32  36
BRANCH  33  38
ATOM     38  O   UNL     1       8.083   5.499  14.020  0.00  0.00    +0.000 OA
ATOM     39  H   UNL     1       8.670   4.730  13.867  0.00  0.00    +0.000 HD
ENDBRANCH  33  38
BRANCH  34  40
ATOM     40  O   UNL     1       7.675   6.534  16.516  0.00  0.00    +0.000 OA
ATOM     41  H   UNL     1       8.275   6.726  15.767  0.00  0.00    +0.000 HD
ENDBRANCH  34  40
ENDBRANCH  28  30
ENDBRANCH  27  28
ENDBRANCH   5  27
TORSDOF 15
ENDMDL
MODEL 5
REMARK VINA RESULT:      -7.8      2.229      3.524
REMARK  Name = 
REMARK  15 active torsions:
REMARK  status: ('A' for Active; 'I' for Inactive)
REMARK    1  A    between atoms: C_2  and  O_3
REMARK    2  A    between atoms: C_2  and  C_25
REMARK    3  A    between atoms: O_3  and  C_4
REMARK    4  A    between atoms: C_4  and  C_5
REMARK    5  A    between atoms: C_8  and  O_9
REMARK    6  A    between atoms: C_10  and  O_11
REMARK    7  A    between atoms: O_11  and  C_12
REMARK    8  A    between atoms: C_12  and  C_14
REMARK    9  A    between atoms: C_16  and  O_17
REMARK   10  A    between atoms: C_18  and  O_19
REMARK   11  A    between atoms: C_20  and  O_21
REMARK   12  A    between atoms: C_23  and  O_24
REMARK   13  A    between atoms: C_27  and  O_28
REMARK   14  A    between atoms: C_29  and  O_30
REMARK   15  A    between atoms: C_31  and  O_32
REMARK                            x       y       z     vdW  Elec       q    Type
REMARK                         _______ _______ _______ _____ _____    ______ ____
ROOT
ATOM      1  C   UNL     1       2.112   7.264  20.144  0.00  0.00    +0.000 C 
ATOM      2  O   UNL     1       1.410   6.229  20.851  0.00  0.00    +0.000 OA
ATOM      3  C   UNL     1       2.111   4.994  20.889  0.00  0.00    +0.000 C 
ATOM      4  C   UNL     1       2.331   4.425  19.485  0.00  0.00    +0.000 C 
ATOM      5  C   UNL     1       3.089   5.464  18.641  0.00  0.00    +0.000 C 
ATOM      6  C   UNL     1       2.407   6.849  18.683  0.00  0.00    +0.000 C 
ENDROOT
BRANCH   4   7
ATOM      7  O   UNL     1       3.095   3.215  19.548  0.00  0.00    +0.000 OA
ATOM      8  H   UNL     1       4.002   3.432  19.826  0.00  0.00    +0.000 HD
ENDBRANCH   4   7
BRANCH   6   9
ATOM      9  O   UNL     1       3.240   7.811  18.021  0.00  0.00    +0.000 OA
ATOM     10  H   UNL     1       3.278   8.617  18.564  0.00  0.00    +0.000 HD
ENDBRANCH   6   9
BRANCH   1  11
ATOM     11  C   UNL     1       1.237   8.530  20.235  0.00  0.00    +0.000 C 
BRANCH  11  12
ATOM     12  O   UNL     1       1.006   9.197  18.986  0.00  0.00    +0.000 OA
BRANCH  12  14
ATOM     13  O   UNL     1       1.265  11.413  19.501  0.00  0.00    +0.000 OA
ATOM     14  C   UNL     1       0.600  10.484  19.067  0.00  0.00    +0.000 C 
BRANCH  14  15
ATOM     15  C   UNL     1      -0.779  10.653  18.533  0.00  0.00    +0.000 A 
ATOM     16  C   UNL     1      -1.623  11.573  19.187  0.00  0.00    +0.000 A 
ATOM     17  C   UNL     1      -2.908  11.790  18.703  0.00  0.00    +0.000 A 
ATOM     18  C   UNL     1      -3.355  11.108  17.577  0.00  0.00    +0.000 A 
ATOM     19  C   UNL     1      -2.529  10.191  16.940  0.00  0.00    +0.000 A 
ATOM     20  C   UNL     1      -1.243   9.953  17.410  0.00  0.00    +0.000 A 
BRANCH  17  21
ATOM     21  O   UNL     1      -3.768  12.669  19.298  0.00  0.00    +0.000 OA
ATOM     22  H   UNL     1      -3.529  13.571  19.024  0.00  0.00    +0.000 HD
ENDBRANCH  17  21
BRANCH  18  23
ATOM     23  O   UNL     1      -4.610  11.333  17.079  0.00  0.00    +0.000 OA
ATOM     24  H   UNL     1      -4.885  12.180  17.486  0.00  0.00    +0.000 HD
ENDBRANCH  18  23
BRANCH  19  25
ATOM     25  O   UNL     1      -2.978   9.522  15.839  0.00  0.00    +0.000 OA
ATOM     26  H   UNL     1      -2.204   9.478  15.240  0.00  0.00    +0.000 HD
ENDBRANCH  19  25
ENDBRANCH  14  15
ENDBRANCH  12  14
ENDBRANCH  11  12
ENDBRANCH   1  11
BRANCH   5  27
ATOM     27  O   UNL     1       3.376   5.009  17.287  0.00  0.00    +0.000 OA
BRANCH  27  28
ATOM     28  C   UNL     1       4.585   4.481  17.013  0.00  0.00    +0.000 C 
ATOM     29  O   UNL     1       4.793   3.469  16.358  0.00  0.00    +0.000 OA
BRANCH  28  30
ATOM     30  C   UNL     1       5.688   5.271  17.629  0.00  0.00    +0.000 A 
ATOM     31  C   UNL     1       6.093   6.442  16.960  0.00  0.00    +0.000 A 
ATOM     32  C   UNL     1       7.143   7.201  17.464  0.00  0.00    +0.000 A 
ATOM     33  C   UNL     1       7.780   6.813  18.639  0.00  0.00    +0.000 A 
ATOM     34  C   UNL     1       7.370   5.670  19.311  0.00  0.00    +0.000 A 
ATOM     35  C   UNL     1       6.332   4.887  18.816  0.00  0.00    +0.000 A 
BRANCH  32  36
ATOM     36  O   UNL     1       7.591   8.329  16.838  0.00  0.00    +0.000 OA
ATOM     37  H   UNL     1       8.550   8.401  16.988  0.00  0.00    +0.000 HD
ENDBRANCH  32  36
BRANCH  33  38
ATOM     38  O   UNL     1       8.814   7.553  19.143  0.00  0.00    +0.000 OA
ATOM     39  H   UNL     1       8.690   8.442  18.751  0.00  0.00    +0.000 HD
ENDBRANCH  33  38
BRANCH  34  40
ATOM     40  O   UNL     1       7.996   5.307  20.469  0.00  0.00    +0.000 OA
ATOM     41  H   UNL     1       8.707   5.971  20.585  0.00  0.00    +0.000 HD
ENDBRANCH  34  40
ENDBRANCH  28  30
ENDBRANCH  27  28
ENDBRANCH   5  27
TORSDOF 15
ENDMDL
MODEL 6
REMARK VINA RESULT:      -7.8      1.346      2.285
REMARK  Name = 
REMARK  15 active torsions:
REMARK  status: ('A' for Active; 'I' for Inactive)
REMARK    1  A    between atoms: C_2  and  O_3
REMARK    2  A    between atoms: C_2  and  C_25
REMARK    3  A    between atoms: O_3  and  C_4
REMARK    4  A    between atoms: C_4  and  C_5
REMARK    5  A    between atoms: C_8  and  O_9
REMARK    6  A    between atoms: C_10  and  O_11
REMARK    7  A    between atoms: O_11  and  C_12
REMARK    8  A    between atoms: C_12  and  C_14
REMARK    9  A    between atoms: C_16  and  O_17
REMARK   10  A    between atoms: C_18  and  O_19
REMARK   11  A    between atoms: C_20  and  O_21
REMARK   12  A    between atoms: C_23  and  O_24
REMARK   13  A    between atoms: C_27  and  O_28
REMARK   14  A    between atoms: C_29  and  O_30
REMARK   15  A    between atoms: C_31  and  O_32
REMARK                            x       y       z     vdW  Elec       q    Type
REMARK                         _______ _______ _______ _____ _____    ______ ____
ROOT
ATOM      1  C   UNL     1       2.570   5.606  20.177  0.00  0.00    +0.000 C 
ATOM      2  O   UNL     1       2.120   4.324  20.643  0.00  0.00    +0.000 OA
ATOM      3  C   UNL     1       3.045   3.274  20.396  0.00  0.00    +0.000 C 
ATOM      4  C   UNL     1       3.292   3.079  18.898  0.00  0.00    +0.000 C 
ATOM      5  C   UNL     1       3.788   4.406  18.298  0.00  0.00    +0.000 C 
ATOM      6  C   UNL     1       2.857   5.584  18.656  0.00  0.00    +0.000 C 
ENDROOT
BRANCH   4   7
ATOM      7  O   UNL     1       4.276   2.061  18.680  0.00  0.00    +0.000 OA
ATOM      8  H   UNL     1       4.941   2.112  19.388  0.00  0.00    +0.000 HD
ENDBRANCH   4   7
BRANCH   6   9
ATOM      9  O   UNL     1       3.452   6.813  18.216  0.00  0.00    +0.000 OA
ATOM     10  H   UNL     1       2.873   7.218  17.547  0.00  0.00    +0.000 HD
ENDBRANCH   6   9
BRANCH   1  11
ATOM     11  C   UNL     1       1.475   6.621  20.558  0.00  0.00    +0.000 C 
BRANCH  11  12
ATOM     12  O   UNL     1       1.823   7.997  20.342  0.00  0.00    +0.000 OA
BRANCH  12  14
ATOM     13  O   UNL     1       0.931   8.874  22.259  0.00  0.00    +0.000 OA
ATOM     14  C   UNL     1       1.119   8.906  21.052  0.00  0.00    +0.000 C 
BRANCH  14  15
ATOM     15  C   UNL     1       0.601   9.994  20.179  0.00  0.00    +0.000 A 
ATOM     16  C   UNL     1      -0.131   9.620  19.035  0.00  0.00    +0.000 A 
ATOM     17  C   UNL     1      -0.664  10.603  18.208  0.00  0.00    +0.000 A 
ATOM     18  C   UNL     1      -0.482  11.947  18.514  0.00  0.00    +0.000 A 
ATOM     19  C   UNL     1       0.250  12.317  19.634  0.00  0.00    +0.000 A 
ATOM     20  C   UNL     1       0.799  11.352  20.471  0.00  0.00    +0.000 A 
BRANCH  17  21
ATOM     21  O   UNL     1      -1.380  10.297  17.085  0.00  0.00    +0.000 OA
ATOM     22  H   UNL     1      -1.114  10.903  16.373  0.00  0.00    +0.000 HD
ENDBRANCH  17  21
BRANCH  18  23
ATOM     23  O   UNL     1      -1.024  12.921  17.720  0.00  0.00    +0.000 OA
ATOM     24  H   UNL     1      -1.988  12.751  17.750  0.00  0.00    +0.000 HD
ENDBRANCH  18  23
BRANCH  19  25
ATOM     25  O   UNL     1       0.429  13.639  19.923  0.00  0.00    +0.000 OA
ATOM     26  H   UNL     1      -0.401  14.072  19.635  0.00  0.00    +0.000 HD
ENDBRANCH  19  25
ENDBRANCH  14  15
ENDBRANCH  12  14
ENDBRANCH  11  12
ENDBRANCH   1  11
BRANCH   5  27
ATOM     27  O   UNL     1       4.081   4.321  16.873  0.00  0.00    +0.000 OA
BRANCH  27  28
ATOM     28  C   UNL     1       5.359   4.174  16.472  0.00  0.00    +0.000 C 
ATOM     29  O   UNL     1       5.769   3.339  15.679  0.00  0.00    +0.000 OA
BRANCH  28  30
ATOM     30  C   UNL     1       6.264   5.156  17.132  0.00  0.00    +0.000 A 
ATOM     31  C   UNL     1       7.009   4.703  18.238  0.00  0.00    +0.000 A 
ATOM     32  C   UNL     1       7.841   5.583  18.921  0.00  0.00    +0.000 A 
ATOM     33  C   UNL     1       7.952   6.905  18.500  0.00  0.00    +0.000 A 
ATOM     34  C   UNL     1       7.234   7.348  17.399  0.00  0.00    +0.000 A 
ATOM     35  C   UNL     1       6.382   6.491  16.710  0.00  0.00    +0.000 A 
BRANCH  32  36
ATOM     36  O   UNL     1       8.563   5.199  20.015  0.00  0.00    +0.000 OA
ATOM     37  H   UNL     1       8.219   4.342  20.323  0.00  0.00    +0.000 HD
ENDBRANCH  32  36
BRANCH  33  38
ATOM     38  O   UNL     1       8.768   7.777  19.165  0.00  0.00    +0.000 OA
ATOM     39  H   UNL     1       9.521   7.227  19.464  0.00  0.00    +0.000 HD
ENDBRANCH  33  38
BRANCH  34  40
ATOM     40  O   UNL     1       7.360   8.646  16.989  0.00  0.00    +0.000 OA
ATOM     41  H   UNL     1       6.981   9.175  17.721  0.00  0.00    +0.000 HD
ENDBRANCH  34  40
ENDBRANCH  28  30
ENDBRANCH  27  28
ENDBRANCH   5  27
TORSDOF 15
ENDMDL
MODEL 7
REMARK VINA RESULT:      -7.8      2.100     10.124
REMARK  Name = 
REMARK  15 active torsions:
REMARK  status: ('A' for Active; 'I' for Inactive)
REMARK    1  A    between atoms: C_2  and  O_3
REMARK    2  A    between atoms: C_2  and  C_25
REMARK    3  A    between atoms: O_3  and  C_4
REMARK    4  A    between atoms: C_4  and  C_5
REMARK    5  A    between atoms: C_8  and  O_9
REMARK    6  A    between atoms: C_10  and  O_11
REMARK    7  A    between atoms: O_11  and  C_12
REMARK    8  A    between atoms: C_12  and  C_14
REMARK    9  A    between atoms: C_16  and  O_17
REMARK   10  A    between atoms: C_18  and  O_19
REMARK   11  A    between atoms: C_20  and  O_21
REMARK   12  A    between atoms: C_23  and  O_24
REMARK   13  A    between atoms: C_27  and  O_28
REMARK   14  A    between atoms: C_29  and  O_30
REMARK   15  A    between atoms: C_31  and  O_32
REMARK                            x       y       z     vdW  Elec       q    Type
REMARK                         _______ _______ _______ _____ _____    ______ ____
ROOT
ATOM      1  C   UNL     1       2.423   7.618  19.442  0.00  0.00    +0.000 C 
ATOM      2  O   UNL     1       2.143   7.802  18.045  0.00  0.00    +0.000 OA
ATOM      3  C   UNL     1       1.922   9.158  17.685  0.00  0.00    +0.000 C 
ATOM      4  C   UNL     1       0.706   9.744  18.406  0.00  0.00    +0.000 C 
ATOM      5  C   UNL     1       0.911   9.602  19.925  0.00  0.00    +0.000 C 
ATOM      6  C   UNL     1       1.270   8.154  20.324  0.00  0.00    +0.000 C 
ENDROOT
BRANCH   4   7
ATOM      7  O   UNL     1       0.545  11.128  18.076  0.00  0.00    +0.000 OA
ATOM      8  H   UNL     1       1.317  11.620  18.405  0.00  0.00    +0.000 HD
ENDBRANCH   4   7
BRANCH   6   9
ATOM      9  O   UNL     1       1.611   8.115  21.717  0.00  0.00    +0.000 OA
ATOM     10  H   UNL     1       0.857   7.753  22.213  0.00  0.00    +0.000 HD
ENDBRANCH   6   9
BRANCH   1  11
ATOM     11  C   UNL     1       2.674   6.111  19.646  0.00  0.00    +0.000 C 
BRANCH  11  12
ATOM     12  O   UNL     1       2.925   5.371  18.443  0.00  0.00    +0.000 OA
BRANCH  12  14
ATOM     13  O   UNL     1       3.930   3.485  19.266  0.00  0.00    +0.000 OA
ATOM     14  C   UNL     1       3.908   4.446  18.510  0.00  0.00    +0.000 C 
BRANCH  14  15
ATOM     15  C   UNL     1       4.983   4.721  17.518  0.00  0.00    +0.000 A 
ATOM     16  C   UNL     1       5.068   3.874  16.396  0.00  0.00    +0.000 A 
ATOM     17  C   UNL     1       6.034   4.114  15.426  0.00  0.00    +0.000 A 
ATOM     18  C   UNL     1       6.907   5.188  15.559  0.00  0.00    +0.000 A 
ATOM     19  C   UNL     1       6.832   6.016  16.671  0.00  0.00    +0.000 A 
ATOM     20  C   UNL     1       5.879   5.792  17.658  0.00  0.00    +0.000 A 
BRANCH  17  21
ATOM     21  O   UNL     1       6.163   3.323  14.319  0.00  0.00    +0.000 OA
ATOM     22  H   UNL     1       6.293   2.403  14.608  0.00  0.00    +0.000 HD
ENDBRANCH  17  21
BRANCH  18  23
ATOM     23  O   UNL     1       7.845   5.446  14.597  0.00  0.00    +0.000 OA
ATOM     24  H   UNL     1       7.423   5.159  13.762  0.00  0.00    +0.000 HD
ENDBRANCH  18  23
BRANCH  19  25
ATOM     25  O   UNL     1       7.696   7.065  16.797  0.00  0.00    +0.000 OA
ATOM     26  H   UNL     1       8.428   6.721  17.349  0.00  0.00    +0.000 HD
ENDBRANCH  19  25
ENDBRANCH  14  15
ENDBRANCH  12  14
ENDBRANCH  11  12
ENDBRANCH   1  11
BRANCH   5  27
ATOM     27  O   UNL     1      -0.184  10.157  20.709  0.00  0.00    +0.000 OA
BRANCH  27  28
ATOM     28  C   UNL     1      -0.008  11.331  21.346  0.00  0.00    +0.000 C 
ATOM     29  O   UNL     1       1.068  11.840  21.624  0.00  0.00    +0.000 OA
BRANCH  28  30
ATOM     30  C   UNL     1      -1.306  11.963  21.713  0.00  0.00    +0.000 A 
ATOM     31  C   UNL     1      -1.870  12.861  20.785  0.00  0.00    +0.000 A 
ATOM     32  C   UNL     1      -3.060  13.513  21.087  0.00  0.00    +0.000 A 
ATOM     33  C   UNL     1      -3.703  13.264  22.297  0.00  0.00    +0.000 A 
ATOM     34  C   UNL     1      -3.159  12.365  23.203  0.00  0.00    +0.000 A 
ATOM     35  C   UNL     1      -1.961  11.713  22.930  0.00  0.00    +0.000 A 
BRANCH  32  36
ATOM     36  O   UNL     1      -3.632  14.413  20.234  0.00  0.00    +0.000 OA
ATOM     37  H   UNL     1      -4.441  14.014  19.867  0.00  0.00    +0.000 HD
ENDBRANCH  32  36
BRANCH  33  38
ATOM     38  O   UNL     1      -4.874  13.900  22.602  0.00  0.00    +0.000 OA
ATOM     39  H   UNL     1      -5.506  13.174  22.785  0.00  0.00    +0.000 HD
ENDBRANCH  33  38
BRANCH  34  40
ATOM     40  O   UNL     1      -3.806  12.121  24.381  0.00  0.00    +0.000 OA
ATOM     41  H   UNL     1      -4.686  12.538  24.272  0.00  0.00    +0.000 HD
ENDBRANCH  34  40
ENDBRANCH  28  30
ENDBRANCH  27  28
ENDBRANCH   5  27
TORSDOF 15
ENDMDL
MODEL 8
REMARK VINA RESULT:      -7.7      2.754      4.392
REMARK  Name = 
REMARK  15 active torsions:
REMARK  status: ('A' for Active; 'I' for Inactive)
REMARK    1  A    between atoms: C_2  and  O_3
REMARK    2  A    between atoms: C_2  and  C_25
REMARK    3  A    between atoms: O_3  and  C_4
REMARK    4  A    between atoms: C_4  and  C_5
REMARK    5  A    between atoms: C_8  and  O_9
REMARK    6  A    between atoms: C_10  and  O_11
REMARK    7  A    between atoms: O_11  and  C_12
REMARK    8  A    between atoms: C_12  and  C_14
REMARK    9  A    between atoms: C_16  and  O_17
REMARK   10  A    between atoms: C_18  and  O_19
REMARK   11  A    between atoms: C_20  and  O_21
REMARK   12  A    between atoms: C_23  and  O_24
REMARK   13  A    between atoms: C_27  and  O_28
REMARK   14  A    between atoms: C_29  and  O_30
REMARK   15  A    between atoms: C_31  and  O_32
REMARK                            x       y       z     vdW  Elec       q    Type
REMARK                         _______ _______ _______ _____ _____    ______ ____
ROOT
ATOM      1  C   UNL     1       2.067   8.129  19.326  0.00  0.00    +0.000 C 
ATOM      2  O   UNL     1       1.136   7.742  20.350  0.00  0.00    +0.000 OA
ATOM      3  C   UNL     1       1.619   6.704  21.191  0.00  0.00    +0.000 C 
ATOM      4  C   UNL     1       1.889   5.419  20.406  0.00  0.00    +0.000 C 
ATOM      5  C   UNL     1       2.890   5.725  19.278  0.00  0.00    +0.000 C 
ATOM      6  C   UNL     1       2.441   6.930  18.422  0.00  0.00    +0.000 C 
ENDROOT
BRANCH   4   7
ATOM      7  O   UNL     1       2.434   4.411  21.265  0.00  0.00    +0.000 OA
ATOM      8  H   UNL     1       2.024   3.557  21.046  0.00  0.00    +0.000 HD
ENDBRANCH   4   7
BRANCH   6   9
ATOM      9  O   UNL     1       3.485   7.272  17.499  0.00  0.00    +0.000 OA
ATOM     10  H   UNL     1       4.313   7.392  17.995  0.00  0.00    +0.000 HD
ENDBRANCH   6   9
BRANCH   1  11
ATOM     11  C   UNL     1       1.406   9.278  18.541  0.00  0.00    +0.000 C 
BRANCH  11  12
ATOM     12  O   UNL     1       0.212   9.810  19.136  0.00  0.00    +0.000 OA
BRANCH  12  14
ATOM     13  O   UNL     1       0.543  12.050  18.804  0.00  0.00    +0.000 OA
ATOM     14  C   UNL     1      -0.151  11.047  18.732  0.00  0.00    +0.000 C 
BRANCH  14  15
ATOM     15  C   UNL     1      -1.523  11.049  18.155  0.00  0.00    +0.000 A 
ATOM     16  C   UNL     1      -2.508  11.809  18.817  0.00  0.00    +0.000 A 
ATOM     17  C   UNL     1      -3.795  11.869  18.295  0.00  0.00    +0.000 A 
ATOM     18  C   UNL     1      -4.106  11.188  17.123  0.00  0.00    +0.000 A 
ATOM     19  C   UNL     1      -3.140  10.428  16.478  0.00  0.00    +0.000 A 
ATOM     20  C   UNL     1      -1.848  10.348  16.984  0.00  0.00    +0.000 A 
BRANCH  17  21
ATOM     21  O   UNL     1      -4.789  12.589  18.896  0.00  0.00    +0.000 OA
ATOM     22  H   UNL     1      -5.625  12.098  18.806  0.00  0.00    +0.000 HD
ENDBRANCH  17  21
BRANCH  18  23
ATOM     23  O   UNL     1      -5.364  11.261  16.589  0.00  0.00    +0.000 OA
ATOM     24  H   UNL     1      -5.233  11.685  15.715  0.00  0.00    +0.000 HD
ENDBRANCH  18  23
BRANCH  19  25
ATOM     25  O   UNL     1      -3.456   9.759  15.331  0.00  0.00    +0.000 OA
ATOM     26  H   UNL     1      -4.357   9.408  15.486  0.00  0.00    +0.000 HD
ENDBRANCH  19  25
ENDBRANCH  14  15
ENDBRANCH  12  14
ENDBRANCH  11  12
ENDBRANCH   1  11
BRANCH   5  27
ATOM     27  O   UNL     1       3.238   4.555  18.482  0.00  0.00    +0.000 OA
BRANCH  27  28
ATOM     28  C   UNL     1       4.473   4.028  18.594  0.00  0.00    +0.000 C 
ATOM     29  O   UNL     1       4.857   3.287  19.488  0.00  0.00    +0.000 OA
BRANCH  28  30
ATOM     30  C   UNL     1       5.367   4.472  17.489  0.00  0.00    +0.000 A 
ATOM     31  C   UNL     1       5.355   3.710  16.304  0.00  0.00    +0.000 A 
ATOM     32  C   UNL     1       6.197   4.051  15.252  0.00  0.00    +0.000 A 
ATOM     33  C   UNL     1       7.037   5.155  15.362  0.00  0.00    +0.000 A 
ATOM     34  C   UNL     1       7.036   5.919  16.520  0.00  0.00    +0.000 A 
ATOM     35  C   UNL     1       6.214   5.588  17.592  0.00  0.00    +0.000 A 
BRANCH  32  36
ATOM     36  O   UNL     1       6.242   3.327  14.094  0.00  0.00    +0.000 OA
ATOM     37  H   UNL     1       6.128   2.387  14.317  0.00  0.00    +0.000 HD
ENDBRANCH  32  36
BRANCH  33  38
ATOM     38  O   UNL     1       7.867   5.499  14.331  0.00  0.00    +0.000 OA
ATOM     39  H   UNL     1       7.264   5.810  13.625  0.00  0.00    +0.000 HD
ENDBRANCH  33  38
BRANCH  34  40
ATOM     40  O   UNL     1       7.857   7.008  16.610  0.00  0.00    +0.000 OA
ATOM     41  H   UNL     1       7.689   7.514  15.789  0.00  0.00    +0.000 HD
ENDBRANCH  34  40
ENDBRANCH  28  30
ENDBRANCH  27  28
ENDBRANCH   5  27
TORSDOF 15
ENDMDL
MODEL 9
REMARK VINA RESULT:      -7.7      0.891      1.774
REMARK  Name = 
REMARK  15 active torsions:
REMARK  status: ('A' for Active; 'I' for Inactive)
REMARK    1  A    between atoms: C_2  and  O_3
REMARK    2  A    between atoms: C_2  and  C_25
REMARK    3  A    between atoms: O_3  and  C_4
REMARK    4  A    between atoms: C_4  and  C_5
REMARK    5  A    between atoms: C_8  and  O_9
REMARK    6  A    between atoms: C_10  and  O_11
REMARK    7  A    between atoms: O_11  and  C_12
REMARK    8  A    between atoms: C_12  and  C_14
REMARK    9  A    between atoms: C_16  and  O_17
REMARK   10  A    between atoms: C_18  and  O_19
REMARK   11  A    between atoms: C_20  and  O_21
REMARK   12  A    between atoms: C_23  and  O_24
REMARK   13  A    between atoms: C_27  and  O_28
REMARK   14  A    between atoms: C_29  and  O_30
REMARK   15  A    between atoms: C_31  and  O_32
REMARK                            x       y       z     vdW  Elec       q    Type
REMARK                         _______ _______ _______ _____ _____    ______ ____
ROOT
ATOM      1  C   UNL     1       2.567   5.851  19.910  0.00  0.00    +0.000 C 
ATOM      2  O   UNL     1       2.088   4.606  20.444  0.00  0.00    +0.000 OA
ATOM      3  C   UNL     1       3.007   3.534  20.292  0.00  0.00    +0.000 C 
ATOM      4  C   UNL     1       3.295   3.239  18.818  0.00  0.00    +0.000 C 
ATOM      5  C   UNL     1       3.825   4.520  18.149  0.00  0.00    +0.000 C 
ATOM      6  C   UNL     1       2.898   5.729  18.404  0.00  0.00    +0.000 C 
ENDROOT
BRANCH   4   7
ATOM      7  O   UNL     1       4.272   2.199  18.696  0.00  0.00    +0.000 OA
ATOM      8  H   UNL     1       4.402   1.787  19.567  0.00  0.00    +0.000 HD
ENDBRANCH   4   7
BRANCH   6   9
ATOM      9  O   UNL     1       3.521   6.920  17.903  0.00  0.00    +0.000 OA
ATOM     10  H   UNL     1       2.927   7.333  17.253  0.00  0.00    +0.000 HD
ENDBRANCH   6   9
BRANCH   1  11
ATOM     11  C   UNL     1       1.475   6.901  20.193  0.00  0.00    +0.000 C 
BRANCH  11  12
ATOM     12  O   UNL     1       1.918   8.265  20.141  0.00  0.00    +0.000 OA
BRANCH  12  14
ATOM     13  O   UNL     1       1.433   8.979  18.021  0.00  0.00    +0.000 OA
ATOM     14  C   UNL     1       1.302   9.055  19.234  0.00  0.00    +0.000 C 
BRANCH  14  15
ATOM     15  C   UNL     1       0.404  10.042  19.893  0.00  0.00    +0.000 A 
ATOM     16  C   UNL     1      -0.444  10.805  19.067  0.00  0.00    +0.000 A 
ATOM     17  C   UNL     1      -1.324  11.716  19.641  0.00  0.00    +0.000 A 
ATOM     18  C   UNL     1      -1.372  11.866  21.022  0.00  0.00    +0.000 A 
ATOM     19  C   UNL     1      -0.527  11.124  21.836  0.00  0.00    +0.000 A 
ATOM     20  C   UNL     1       0.366  10.213  21.285  0.00  0.00    +0.000 A 
BRANCH  17  21
ATOM     21  O   UNL     1      -2.168  12.483  18.887  0.00  0.00    +0.000 OA
ATOM     22  H   UNL     1      -1.747  12.653  18.026  0.00  0.00    +0.000 HD
ENDBRANCH  17  21
BRANCH  18  23
ATOM     23  O   UNL     1      -2.252  12.742  21.597  0.00  0.00    +0.000 OA
ATOM     24  H   UNL     1      -3.012  12.184  21.863  0.00  0.00    +0.000 HD
ENDBRANCH  18  23
BRANCH  19  25
ATOM     25  O   UNL     1      -0.577  11.282  23.191  0.00  0.00    +0.000 OA
ATOM     26  H   UNL     1      -1.517  11.134  23.426  0.00  0.00    +0.000 HD
ENDBRANCH  19  25
ENDBRANCH  14  15
ENDBRANCH  12  14
ENDBRANCH  11  12
ENDBRANCH   1  11
BRANCH   5  27
ATOM     27  O   UNL     1       4.157   4.340  16.742  0.00  0.00    +0.000 OA
BRANCH  27  28
ATOM     28  C   UNL     1       5.448   4.191  16.385  0.00  0.00    +0.000 C 
ATOM     29  O   UNL     1       5.884   3.357  15.604  0.00  0.00    +0.000 OA
BRANCH  28  30
ATOM     30  C   UNL     1       6.332   5.169  17.080  0.00  0.00    +0.000 A 
ATOM     31  C   UNL     1       7.042   4.709  18.206  0.00  0.00    +0.000 A 
ATOM     32  C   UNL     1       7.852   5.584  18.920  0.00  0.00    +0.000 A 
ATOM     33  C   UNL     1       7.975   6.909  18.511  0.00  0.00    +0.000 A 
ATOM     34  C   UNL     1       7.293   7.359  17.390  0.00  0.00    +0.000 A 
ATOM     35  C   UNL     1       6.463   6.506  16.670  0.00  0.00    +0.000 A 
BRANCH  32  36
ATOM     36  O   UNL     1       8.539   5.194  20.034  0.00  0.00    +0.000 OA
ATOM     37  H   UNL     1       8.698   5.980  20.586  0.00  0.00    +0.000 HD
ENDBRANCH  32  36
BRANCH  33  38
ATOM     38  O   UNL     1       8.771   7.777  19.207  0.00  0.00    +0.000 OA
ATOM     39  H   UNL     1       8.362   8.655  19.059  0.00  0.00    +0.000 HD
ENDBRANCH  33  38
BRANCH  34  40
ATOM     40  O   UNL     1       7.432   8.659  16.993  0.00  0.00    +0.000 OA
ATOM     41  H   UNL     1       7.321   8.634  16.021  0.00  0.00    +0.000 HD
ENDBRANCH  34  40
ENDBRANCH  28  30
ENDBRANCH  27  28
ENDBRANCH   5  27
TORSDOF 15
ENDMDL
