MODEL 1
REMARK VINA RESULT:      -6.2      0.000      0.000
REMARK  Name = 
REMARK  6 active torsions:
REMARK  status: ('A' for Active; 'I' for Inactive)
REMARK    1  A    between atoms: C_1  and  N_2
REMARK    2  A    between atoms: N_2  and  C_3
REMARK    3  A    between atoms: N_2  and  C_4
REMARK    4  A    between atoms: C_7  and  O_8
REMARK    5  A    between atoms: O_8  and  C_9
REMARK    6  A    between atoms: C_9  and  C_10
REMARK                            x       y       z     vdW  Elec       q    Type
REMARK                         _______ _______ _______ _____ _____    ______ ____
ROOT
ATOM      1  C   UNL     1       5.918   3.605  12.868  0.00  0.00    +0.000 A 
ATOM      2  C   UNL     1       5.312   3.437  14.124  0.00  0.00    +0.000 A 
ATOM      3  C   UNL     1       5.807   4.045  15.283  0.00  0.00    +0.000 A 
ATOM      4  C   UNL     1       6.940   4.848  15.223  0.00  0.00    +0.000 A 
ATOM      5  C   UNL     1       7.520   5.098  13.982  0.00  0.00    +0.000 A 
ATOM      6  C   UNL     1       7.014   4.479  12.827  0.00  0.00    +0.000 A 
ENDROOT
BRANCH   1   8
ATOM      7  C   UNL     1       4.087   3.239  11.253  0.00  0.00    +0.000 C 
ATOM      8  N   UNL     1       5.439   2.957  11.727  0.00  0.00    +0.000 N 
ATOM      9  C   UNL     1       5.989   1.648  11.384  0.00  0.00    +0.000 C 
ENDBRANCH   1   8
BRANCH   4  10
ATOM     10  O   UNL     1       7.550   5.423  16.304  0.00  0.00    +0.000 OA
BRANCH  10  11
ATOM     11  C   UNL     1       6.912   6.609  16.782  0.00  0.00    +0.000 C 
BRANCH  11  12
ATOM     12  C   UNL     1       5.733   6.224  17.636  0.00  0.00    +0.000 A 
ATOM     13  C   UNL     1       4.455   6.727  17.365  0.00  0.00    +0.000 A 
ATOM     14  C   UNL     1       3.370   6.359  18.162  0.00  0.00    +0.000 A 
ATOM     15  C   UNL     1       3.560   5.492  19.238  0.00  0.00    +0.000 A 
ATOM     16  I   UNL     1       1.949   4.960  20.436  0.00  0.00    +0.000 I 
ATOM     17  C   UNL     1       4.830   4.987  19.521  0.00  0.00    +0.000 A 
ATOM     18  C   UNL     1       5.913   5.356  18.723  0.00  0.00    +0.000 A 
ENDBRANCH  11  12
ENDBRANCH  10  11
ENDBRANCH   4  10
TORSDOF 4
ENDMDL
MODEL 2
REMARK VINA RESULT:      -6.2      5.213      6.616
REMARK  Name = 
REMARK  6 active torsions:
REMARK  status: ('A' for Active; 'I' for Inactive)
REMARK    1  A    between atoms: C_1  and  N_2
REMARK    2  A    between atoms: N_2  and  C_3
REMARK    3  A    between atoms: N_2  and  C_4
REMARK    4  A    between atoms: C_7  and  O_8
REMARK    5  A    between atoms: O_8  and  C_9
REMARK    6  A    between atoms: C_9  and  C_10
REMARK                            x       y       z     vdW  Elec       q    Type
REMARK                         _______ _______ _______ _____ _____    ______ ____
ROOT
ATOM      1  C   UNL     1       6.311   5.138  17.211  0.00  0.00    +0.000 A 
ATOM      2  C   UNL     1       7.206   4.941  18.276  0.00  0.00    +0.000 A 
ATOM      3  C   UNL     1       7.968   5.981  18.818  0.00  0.00    +0.000 A 
ATOM      4  C   UNL     1       7.862   7.268  18.304  0.00  0.00    +0.000 A 
ATOM      5  C   UNL     1       6.928   7.514  17.301  0.00  0.00    +0.000 A 
ATOM      6  C   UNL     1       6.171   6.461  16.764  0.00  0.00    +0.000 A 
ENDROOT
BRANCH   1   8
ATOM      7  C   UNL     1       5.949   3.584  15.327  0.00  0.00    +0.000 C 
ATOM      8  N   UNL     1       5.588   4.082  16.651  0.00  0.00    +0.000 N 
ATOM      9  C   UNL     1       4.199   3.891  17.062  0.00  0.00    +0.000 C 
ENDBRANCH   1   8
BRANCH   4  10
ATOM     10  O   UNL     1       8.616   8.336  18.706  0.00  0.00    +0.000 OA
BRANCH  10  11
ATOM     11  C   UNL     1       8.542   9.472  17.843  0.00  0.00    +0.000 C 
BRANCH  11  12
ATOM     12  C   UNL     1       8.975  10.698  18.605  0.00  0.00    +0.000 A 
ATOM     13  C   UNL     1       9.412  10.601  19.931  0.00  0.00    +0.000 A 
ATOM     14  C   UNL     1       9.814  11.743  20.625  0.00  0.00    +0.000 A 
ATOM     15  C   UNL     1       9.774  12.988  19.996  0.00  0.00    +0.000 A 
ATOM     16  I   UNL     1      10.354  14.691  21.035  0.00  0.00    +0.000 I 
ATOM     17  C   UNL     1       9.337  13.098  18.676  0.00  0.00    +0.000 A 
ATOM     18  C   UNL     1       8.935  11.955  17.985  0.00  0.00    +0.000 A 
ENDBRANCH  11  12
ENDBRANCH  10  11
ENDBRANCH   4  10
TORSDOF 4
ENDMDL
MODEL 3
REMARK VINA RESULT:      -6.2      0.058      1.142
REMARK  Name = 
REMARK  6 active torsions:
REMARK  status: ('A' for Active; 'I' for Inactive)
REMARK    1  A    between atoms: C_1  and  N_2
REMARK    2  A    between atoms: N_2  and  C_3
REMARK    3  A    between atoms: N_2  and  C_4
REMARK    4  A    between atoms: C_7  and  O_8
REMARK    5  A    between atoms: O_8  and  C_9
REMARK    6  A    between atoms: C_9  and  C_10
REMARK                            x       y       z     vdW  Elec       q    Type
REMARK                         _______ _______ _______ _____ _____    ______ ____
ROOT
ATOM      1  C   UNL     1       5.911   3.606  12.827  0.00  0.00    +0.000 A 
ATOM      2  C   UNL     1       5.280   3.483  14.076  0.00  0.00    +0.000 A 
ATOM      3  C   UNL     1       5.775   4.100  15.231  0.00  0.00    +0.000 A 
ATOM      4  C   UNL     1       6.934   4.865  15.173  0.00  0.00    +0.000 A 
ATOM      5  C   UNL     1       7.541   5.072  13.937  0.00  0.00    +0.000 A 
ATOM      6  C   UNL     1       7.035   4.445  12.787  0.00  0.00    +0.000 A 
ENDROOT
BRANCH   1   8
ATOM      7  C   UNL     1       4.056   3.179  11.255  0.00  0.00    +0.000 C 
ATOM      8  N   UNL     1       5.430   2.949  11.691  0.00  0.00    +0.000 N 
ATOM      9  C   UNL     1       6.026   1.668  11.321  0.00  0.00    +0.000 C 
ENDBRANCH   1   8
BRANCH   4  10
ATOM     10  O   UNL     1       7.543   5.444  16.252  0.00  0.00    +0.000 OA
BRANCH  10  11
ATOM     11  C   UNL     1       6.905   6.630  16.727  0.00  0.00    +0.000 C 
BRANCH  11  12
ATOM     12  C   UNL     1       5.744   6.246  17.607  0.00  0.00    +0.000 A 
ATOM     13  C   UNL     1       5.919   5.365  18.682  0.00  0.00    +0.000 A 
ATOM     14  C   UNL     1       4.836   5.019  19.492  0.00  0.00    +0.000 A 
ATOM     15  C   UNL     1       3.573   5.547  19.225  0.00  0.00    +0.000 A 
ATOM     16  I   UNL     1       1.957   5.017  20.419  0.00  0.00    +0.000 I 
ATOM     17  C   UNL     1       3.385   6.422  18.156  0.00  0.00    +0.000 A 
ATOM     18  C   UNL     1       4.468   6.767  17.347  0.00  0.00    +0.000 A 
ENDBRANCH  11  12
ENDBRANCH  10  11
ENDBRANCH   4  10
TORSDOF 4
ENDMDL
MODEL 4
REMARK VINA RESULT:      -6.1      5.499      7.262
REMARK  Name = 
REMARK  6 active torsions:
REMARK  status: ('A' for Active; 'I' for Inactive)
REMARK    1  A    between atoms: C_1  and  N_2
REMARK    2  A    between atoms: N_2  and  C_3
REMARK    3  A    between atoms: N_2  and  C_4
REMARK    4  A    between atoms: C_7  and  O_8
REMARK    5  A    between atoms: O_8  and  C_9
REMARK    6  A    between atoms: C_9  and  C_10
REMARK                            x       y       z     vdW  Elec       q    Type
REMARK                         _______ _______ _______ _____ _____    ______ ____
ROOT
ATOM      1  C   UNL     1       6.005   5.351  17.984  0.00  0.00    +0.000 A 
ATOM      2  C   UNL     1       7.137   5.512  18.802  0.00  0.00    +0.000 A 
ATOM      3  C   UNL     1       7.948   6.651  18.745  0.00  0.00    +0.000 A 
ATOM      4  C   UNL     1       7.653   7.677  17.856  0.00  0.00    +0.000 A 
ATOM      5  C   UNL     1       6.495   7.586  17.088  0.00  0.00    +0.000 A 
ATOM      6  C   UNL     1       5.692   6.436  17.152  0.00  0.00    +0.000 A 
ENDROOT
BRANCH   1   8
ATOM      7  C   UNL     1       4.419   3.830  16.860  0.00  0.00    +0.000 C 
ATOM      8  N   UNL     1       5.229   4.190  18.020  0.00  0.00    +0.000 N 
ATOM      9  C   UNL     1       4.767   3.700  19.316  0.00  0.00    +0.000 C 
ENDBRANCH   1   8
BRANCH   4  10
ATOM     10  O   UNL     1       8.421   8.793  17.667  0.00  0.00    +0.000 OA
BRANCH  10  11
ATOM     11  C   UNL     1       8.850   9.428  18.872  0.00  0.00    +0.000 C 
BRANCH  11  12
ATOM     12  C   UNL     1       9.415  10.784  18.539  0.00  0.00    +0.000 A 
ATOM     13  C   UNL     1      10.719  11.131  18.913  0.00  0.00    +0.000 A 
ATOM     14  C   UNL     1      11.232  12.389  18.596  0.00  0.00    +0.000 A 
ATOM     15  C   UNL     1      10.441  13.308  17.907  0.00  0.00    +0.000 A 
ATOM     16  I   UNL     1      11.198  15.188  17.451  0.00  0.00    +0.000 I 
ATOM     17  C   UNL     1       9.139  12.977  17.531  0.00  0.00    +0.000 A 
ATOM     18  C   UNL     1       8.628  11.719  17.850  0.00  0.00    +0.000 A 
ENDBRANCH  11  12
ENDBRANCH  10  11
ENDBRANCH   4  10
TORSDOF 4
ENDMDL
MODEL 5
REMARK VINA RESULT:      -6.1      5.032      6.632
REMARK  Name = 
REMARK  6 active torsions:
REMARK  status: ('A' for Active; 'I' for Inactive)
REMARK    1  A    between atoms: C_1  and  N_2
REMARK    2  A    between atoms: N_2  and  C_3
REMARK    3  A    between atoms: N_2  and  C_4
REMARK    4  A    between atoms: C_7  and  O_8
REMARK    5  A    between atoms: O_8  and  C_9
REMARK    6  A    between atoms: C_9  and  C_10
REMARK                            x       y       z     vdW  Elec       q    Type
REMARK                         _______ _______ _______ _____ _____    ______ ____
ROOT
ATOM      1  C   UNL     1       5.512   4.885  17.916  0.00  0.00    +0.000 A 
ATOM      2  C   UNL     1       5.135   5.853  16.969  0.00  0.00    +0.000 A 
ATOM      3  C   UNL     1       5.895   7.004  16.731  0.00  0.00    +0.000 A 
ATOM      4  C   UNL     1       7.068   7.228  17.442  0.00  0.00    +0.000 A 
ATOM      5  C   UNL     1       7.511   6.252  18.330  0.00  0.00    +0.000 A 
ATOM      6  C   UNL     1       6.737   5.103  18.562  0.00  0.00    +0.000 A 
ENDROOT
BRANCH   1   8
ATOM      7  C   UNL     1       3.660   3.399  17.241  0.00  0.00    +0.000 C 
ATOM      8  N   UNL     1       4.722   3.762  18.175  0.00  0.00    +0.000 N 
ATOM      9  C   UNL     1       4.544   3.339  19.561  0.00  0.00    +0.000 C 
ENDBRANCH   1   8
BRANCH   4  10
ATOM     10  O   UNL     1       7.840   8.353  17.342  0.00  0.00    +0.000 OA
BRANCH  10  11
ATOM     11  C   UNL     1       8.543   8.697  18.538  0.00  0.00    +0.000 C 
BRANCH  11  12
ATOM     12  C   UNL     1       8.888  10.162  18.501  0.00  0.00    +0.000 A 
ATOM     13  C   UNL     1       8.212  11.038  17.643  0.00  0.00    +0.000 A 
ATOM     14  C   UNL     1       8.539  12.395  17.621  0.00  0.00    +0.000 A 
ATOM     15  C   UNL     1       9.548  12.880  18.453  0.00  0.00    +0.000 A 
ATOM     16  I   UNL     1      10.047  14.896  18.406  0.00  0.00    +0.000 I 
ATOM     17  C   UNL     1      10.231  12.017  19.310  0.00  0.00    +0.000 A 
ATOM     18  C   UNL     1       9.904  10.661  19.330  0.00  0.00    +0.000 A 
ENDBRANCH  11  12
ENDBRANCH  10  11
ENDBRANCH   4  10
TORSDOF 4
ENDMDL
MODEL 6
REMARK VINA RESULT:      -6.1      0.235      1.149
REMARK  Name = 
REMARK  6 active torsions:
REMARK  status: ('A' for Active; 'I' for Inactive)
REMARK    1  A    between atoms: C_1  and  N_2
REMARK    2  A    between atoms: N_2  and  C_3
REMARK    3  A    between atoms: N_2  and  C_4
REMARK    4  A    between atoms: C_7  and  O_8
REMARK    5  A    between atoms: O_8  and  C_9
REMARK    6  A    between atoms: C_9  and  C_10
REMARK                            x       y       z     vdW  Elec       q    Type
REMARK                         _______ _______ _______ _____ _____    ______ ____
ROOT
ATOM      1  C   UNL     1       5.959   3.605  12.820  0.00  0.00    +0.000 A 
ATOM      2  C   UNL     1       7.094   4.428  12.730  0.00  0.00    +0.000 A 
ATOM      3  C   UNL     1       7.610   5.120  13.832  0.00  0.00    +0.000 A 
ATOM      4  C   UNL     1       6.997   5.013  15.074  0.00  0.00    +0.000 A 
ATOM      5  C   UNL     1       5.917   4.145  15.217  0.00  0.00    +0.000 A 
ATOM      6  C   UNL     1       5.408   3.459  14.103  0.00  0.00    +0.000 A 
ENDROOT
BRANCH   1   8
ATOM      7  C   UNL     1       4.062   3.246  11.281  0.00  0.00    +0.000 C 
ATOM      8  N   UNL     1       5.429   2.955  11.703  0.00  0.00    +0.000 N 
ATOM      9  C   UNL     1       5.955   1.639  11.347  0.00  0.00    +0.000 C 
ENDBRANCH   1   8
BRANCH   4  10
ATOM     10  O   UNL     1       7.371   5.705  16.193  0.00  0.00    +0.000 OA
BRANCH  10  11
ATOM     11  C   UNL     1       6.532   6.817  16.510  0.00  0.00    +0.000 C 
BRANCH  11  12
ATOM     12  C   UNL     1       5.448   6.362  17.452  0.00  0.00    +0.000 A 
ATOM     13  C   UNL     1       4.121   6.766  17.267  0.00  0.00    +0.000 A 
ATOM     14  C   UNL     1       3.124   6.335  18.144  0.00  0.00    +0.000 A 
ATOM     15  C   UNL     1       3.453   5.504  19.214  0.00  0.00    +0.000 A 
ATOM     16  I   UNL     1       1.974   4.878  20.531  0.00  0.00    +0.000 I 
ATOM     17  C   UNL     1       4.773   5.097  19.412  0.00  0.00    +0.000 A 
ATOM     18  C   UNL     1       5.767   5.529  18.534  0.00  0.00    +0.000 A 
ENDBRANCH  11  12
ENDBRANCH  10  11
ENDBRANCH   4  10
TORSDOF 4
ENDMDL
MODEL 7
REMARK VINA RESULT:      -6.1      5.248      6.976
REMARK  Name = 
REMARK  6 active torsions:
REMARK  status: ('A' for Active; 'I' for Inactive)
REMARK    1  A    between atoms: C_1  and  N_2
REMARK    2  A    between atoms: N_2  and  C_3
REMARK    3  A    between atoms: N_2  and  C_4
REMARK    4  A    between atoms: C_7  and  O_8
REMARK    5  A    between atoms: O_8  and  C_9
REMARK    6  A    between atoms: C_9  and  C_10
REMARK                            x       y       z     vdW  Elec       q    Type
REMARK                         _______ _______ _______ _____ _____    ______ ____
ROOT
ATOM      1  C   UNL     1       5.841   4.943  18.066  0.00  0.00    +0.000 A 
ATOM      2  C   UNL     1       5.775   5.956  17.094  0.00  0.00    +0.000 A 
ATOM      3  C   UNL     1       6.643   7.054  17.095  0.00  0.00    +0.000 A 
ATOM      4  C   UNL     1       7.615   7.177  18.080  0.00  0.00    +0.000 A 
ATOM      5  C   UNL     1       7.759   6.153  19.012  0.00  0.00    +0.000 A 
ATOM      6  C   UNL     1       6.879   5.058  19.002  0.00  0.00    +0.000 A 
ENDROOT
BRANCH   1   8
ATOM      7  C   UNL     1       3.924   3.779  17.035  0.00  0.00    +0.000 C 
ATOM      8  N   UNL     1       4.940   3.875  18.079  0.00  0.00    +0.000 N 
ATOM      9  C   UNL     1       4.622   3.245  19.358  0.00  0.00    +0.000 C 
ENDBRANCH   1   8
BRANCH   4  10
ATOM     10  O   UNL     1       8.459   8.245  18.218  0.00  0.00    +0.000 OA
BRANCH  10  11
ATOM     11  C   UNL     1       7.905   9.495  17.802  0.00  0.00    +0.000 C 
BRANCH  11  12
ATOM     12  C   UNL     1       8.805  10.610  18.266  0.00  0.00    +0.000 A 
ATOM     13  C   UNL     1       9.657  10.435  19.363  0.00  0.00    +0.000 A 
ATOM     14  C   UNL     1      10.489  11.475  19.782  0.00  0.00    +0.000 A 
ATOM     15  C   UNL     1      10.466  12.696  19.109  0.00  0.00    +0.000 A 
ATOM     16  I   UNL     1      11.689  14.251  19.743  0.00  0.00    +0.000 I 
ATOM     17  C   UNL     1       9.619  12.884  18.016  0.00  0.00    +0.000 A 
ATOM     18  C   UNL     1       8.788  11.844  17.600  0.00  0.00    +0.000 A 
ENDBRANCH  11  12
ENDBRANCH  10  11
ENDBRANCH   4  10
TORSDOF 4
ENDMDL
MODEL 8
REMARK VINA RESULT:      -6.1      5.366      7.284
REMARK  Name = 
REMARK  6 active torsions:
REMARK  status: ('A' for Active; 'I' for Inactive)
REMARK    1  A    between atoms: C_1  and  N_2
REMARK    2  A    between atoms: N_2  and  C_3
REMARK    3  A    between atoms: N_2  and  C_4
REMARK    4  A    between atoms: C_7  and  O_8
REMARK    5  A    between atoms: O_8  and  C_9
REMARK    6  A    between atoms: C_9  and  C_10
REMARK                            x       y       z     vdW  Elec       q    Type
REMARK                         _______ _______ _______ _____ _____    ______ ____
ROOT
ATOM      1  C   UNL     1       3.441   4.934  18.284  0.00  0.00    +0.000 A 
ATOM      2  C   UNL     1       3.598   6.172  17.638  0.00  0.00    +0.000 A 
ATOM      3  C   UNL     1       3.034   7.354  18.132  0.00  0.00    +0.000 A 
ATOM      4  C   UNL     1       2.283   7.335  19.301  0.00  0.00    +0.000 A 
ATOM      5  C   UNL     1       2.172   6.141  20.008  0.00  0.00    +0.000 A 
ATOM      6  C   UNL     1       2.740   4.962  19.500  0.00  0.00    +0.000 A 
ENDROOT
BRANCH   1   8
ATOM      7  C   UNL     1       4.924   3.826  16.653  0.00  0.00    +0.000 C 
ATOM      8  N   UNL     1       3.972   3.755  17.757  0.00  0.00    +0.000 N 
ATOM      9  C   UNL     1       3.189   2.527  17.864  0.00  0.00    +0.000 C 
ENDBRANCH   1   8
BRANCH   4  10
ATOM     10  O   UNL     1       1.626   8.414  19.825  0.00  0.00    +0.000 OA
BRANCH  10  11
ATOM     11  C   UNL     1       1.302   8.294  21.212  0.00  0.00    +0.000 C 
BRANCH  11  12
ATOM     12  C   UNL     1       0.552   9.525  21.650  0.00  0.00    +0.000 A 
ATOM     13  C   UNL     1       0.740  10.750  20.999  0.00  0.00    +0.000 A 
ATOM     14  C   UNL     1       0.037  11.882  21.412  0.00  0.00    +0.000 A 
ATOM     15  C   UNL     1      -0.853  11.795  22.483  0.00  0.00    +0.000 A 
ATOM     16  I   UNL     1      -1.885  13.484  23.111  0.00  0.00    +0.000 I 
ATOM     17  C   UNL     1      -1.046  10.581  23.143  0.00  0.00    +0.000 A 
ATOM     18  C   UNL     1      -0.342   9.450  22.728  0.00  0.00    +0.000 A 
ENDBRANCH  11  12
ENDBRANCH  10  11
ENDBRANCH   4  10
TORSDOF 4
ENDMDL
MODEL 9
REMARK VINA RESULT:      -6.0      5.570      7.709
REMARK  Name = 
REMARK  6 active torsions:
REMARK  status: ('A' for Active; 'I' for Inactive)
REMARK    1  A    between atoms: C_1  and  N_2
REMARK    2  A    between atoms: N_2  and  C_3
REMARK    3  A    between atoms: N_2  and  C_4
REMARK    4  A    between atoms: C_7  and  O_8
REMARK    5  A    between atoms: O_8  and  C_9
REMARK    6  A    between atoms: C_9  and  C_10
REMARK                            x       y       z     vdW  Elec       q    Type
REMARK                         _______ _______ _______ _____ _____    ______ ____
ROOT
ATOM      1  C   UNL     1       2.618   4.511  18.772  0.00  0.00    +0.000 A 
ATOM      2  C   UNL     1       2.954   5.649  18.020  0.00  0.00    +0.000 A 
ATOM      3  C   UNL     1       2.687   6.948  18.467  0.00  0.00    +0.000 A 
ATOM      4  C   UNL     1       2.064   7.154  19.692  0.00  0.00    +0.000 A 
ATOM      5  C   UNL     1       1.788   6.051  20.497  0.00  0.00    +0.000 A 
ATOM      6  C   UNL     1       2.059   4.753  20.036  0.00  0.00    +0.000 A 
ENDROOT
BRANCH   1   8
ATOM      7  C   UNL     1       2.320   2.074  19.030  0.00  0.00    +0.000 C 
ATOM      8  N   UNL     1       2.851   3.218  18.295  0.00  0.00    +0.000 N 
ATOM      9  C   UNL     1       4.042   2.977  17.485  0.00  0.00    +0.000 C 
ENDBRANCH   1   8
BRANCH   4  10
ATOM     10  O   UNL     1       1.689   8.373  20.184  0.00  0.00    +0.000 OA
BRANCH  10  11
ATOM     11  C   UNL     1       1.217   8.348  21.533  0.00  0.00    +0.000 C 
BRANCH  11  12
ATOM     12  C   UNL     1       0.288   9.514  21.750  0.00  0.00    +0.000 A 
ATOM     13  C   UNL     1      -0.318   9.726  22.994  0.00  0.00    +0.000 A 
ATOM     14  C   UNL     1      -1.174  10.812  23.184  0.00  0.00    +0.000 A 
ATOM     15  C   UNL     1      -1.433  11.686  22.128  0.00  0.00    +0.000 A 
ATOM     16  I   UNL     1      -2.722  13.291  22.405  0.00  0.00    +0.000 I 
ATOM     17  C   UNL     1      -0.837  11.483  20.883  0.00  0.00    +0.000 A 
ATOM     18  C   UNL     1       0.018  10.397  20.695  0.00  0.00    +0.000 A 
ENDBRANCH  11  12
ENDBRANCH  10  11
ENDBRANCH   4  10
TORSDOF 4
ENDMDL
