MODEL 1
REMARK VINA RESULT:      -6.2      0.000      0.000
REMARK  Name = 
REMARK  4 active torsions:
REMARK  status: ('A' for Active; 'I' for Inactive)
REMARK    1  A    between atoms: C_2  and  C_3
REMARK    2  A    between atoms: C_2  and  C_11
REMARK    3  A    between atoms: C_3  and  C_4
REMARK    4  A    between atoms: C_4  and  N_5
REMARK                            x       y       z     vdW  Elec       q    Type
REMARK                         _______ _______ _______ _____ _____    ______ ____
ROOT
ATOM      1  O   UNL     1       3.844   5.505  19.940  0.00  0.00    +0.000 OA
ATOM      2  C   UNL     1       3.161   5.888  18.991  0.00  0.00    +0.000 C 
ENDROOT
BRANCH   2   3
ATOM      3  C   UNL     1       2.482   7.223  19.035  0.00  0.00    +0.000 A 
ATOM      4  C   UNL     1       2.422   8.051  17.906  0.00  0.00    +0.000 A 
ATOM      5  C   UNL     1       1.725   9.259  17.946  0.00  0.00    +0.000 A 
ATOM      6  C   UNL     1       1.094   9.645  19.126  0.00  0.00    +0.000 A 
ATOM      7 BR   UNL     1       0.115  11.264  19.166  0.00  0.00    +0.000 Br
ATOM      8  C   UNL     1       1.169   8.849  20.264  0.00  0.00    +0.000 A 
ATOM      9  C   UNL     1       1.867   7.636  20.225  0.00  0.00    +0.000 A 
ENDBRANCH   2   3
BRANCH   2  10
ATOM     10  C   UNL     1       2.964   5.071  17.727  0.00  0.00    +0.000 C 
BRANCH  10  11
ATOM     11  C   UNL     1       4.238   4.450  17.167  0.00  0.00    +0.000 C 
BRANCH  11  12
ATOM     12  N   UNL     1       5.193   5.496  16.751  0.00  0.00    +0.000 NA
ATOM     13  C   UNL     1       5.531   5.407  15.315  0.00  0.00    +0.000 C 
ATOM     14  C   UNL     1       6.626   4.380  14.990  0.00  0.00    +0.000 C 
ATOM     15  O   UNL     1       7.821   4.655  15.730  0.00  0.00    +0.000 OA
ATOM     16  C   UNL     1       7.551   4.596  17.133  0.00  0.00    +0.000 C 
ATOM     17  C   UNL     1       6.440   5.576  17.541  0.00  0.00    +0.000 C 
ENDBRANCH  11  12
ENDBRANCH  10  11
ENDBRANCH   2  10
TORSDOF 4
ENDMDL
MODEL 2
REMARK VINA RESULT:      -6.2      1.725      2.105
REMARK  Name = 
REMARK  4 active torsions:
REMARK  status: ('A' for Active; 'I' for Inactive)
REMARK    1  A    between atoms: C_2  and  C_3
REMARK    2  A    between atoms: C_2  and  C_11
REMARK    3  A    between atoms: C_3  and  C_4
REMARK    4  A    between atoms: C_4  and  N_5
REMARK                            x       y       z     vdW  Elec       q    Type
REMARK                         _______ _______ _______ _____ _____    ______ ____
ROOT
ATOM      1  O   UNL     1       1.719   3.728  17.042  0.00  0.00    +0.000 OA
ATOM      2  C   UNL     1       2.573   4.103  17.844  0.00  0.00    +0.000 C 
ENDROOT
BRANCH   2   3
ATOM      3  C   UNL     1       2.308   5.272  18.742  0.00  0.00    +0.000 A 
ATOM      4  C   UNL     1       2.443   6.591  18.286  0.00  0.00    +0.000 A 
ATOM      5  C   UNL     1       2.123   7.667  19.115  0.00  0.00    +0.000 A 
ATOM      6  C   UNL     1       1.677   7.422  20.411  0.00  0.00    +0.000 A 
ATOM      7 BR   UNL     1       1.205   8.881  21.519  0.00  0.00    +0.000 Br
ATOM      8  C   UNL     1       1.566   6.120  20.889  0.00  0.00    +0.000 A 
ATOM      9  C   UNL     1       1.885   5.040  20.058  0.00  0.00    +0.000 A 
ENDBRANCH   2   3
BRANCH   2  10
ATOM     10  C   UNL     1       3.923   3.427  17.996  0.00  0.00    +0.000 C 
BRANCH  10  11
ATOM     11  C   UNL     1       4.811   3.496  16.760  0.00  0.00    +0.000 C 
BRANCH  11  12
ATOM     12  N   UNL     1       4.954   4.889  16.293  0.00  0.00    +0.000 NA
ATOM     13  C   UNL     1       5.487   4.969  14.918  0.00  0.00    +0.000 C 
ATOM     14  C   UNL     1       7.018   4.859  14.830  0.00  0.00    +0.000 C 
ATOM     15  O   UNL     1       7.648   5.867  15.629  0.00  0.00    +0.000 OA
ATOM     16  C   UNL     1       7.264   5.716  16.998  0.00  0.00    +0.000 C 
ATOM     17  C   UNL     1       5.739   5.783  17.172  0.00  0.00    +0.000 C 
ENDBRANCH  11  12
ENDBRANCH  10  11
ENDBRANCH   2  10
TORSDOF 4
ENDMDL
MODEL 3
REMARK VINA RESULT:      -6.2      4.000      6.459
REMARK  Name = 
REMARK  4 active torsions:
REMARK  status: ('A' for Active; 'I' for Inactive)
REMARK    1  A    between atoms: C_2  and  C_3
REMARK    2  A    between atoms: C_2  and  C_11
REMARK    3  A    between atoms: C_3  and  C_4
REMARK    4  A    between atoms: C_4  and  N_5
REMARK                            x       y       z     vdW  Elec       q    Type
REMARK                         _______ _______ _______ _____ _____    ______ ____
ROOT
ATOM      1  O   UNL     1       5.799   4.114  19.321  0.00  0.00    +0.000 OA
ATOM      2  C   UNL     1       5.250   4.752  18.422  0.00  0.00    +0.000 C 
ENDROOT
BRANCH   2   3
ATOM      3  C   UNL     1       5.740   4.647  17.011  0.00  0.00    +0.000 A 
ATOM      4  C   UNL     1       4.890   4.250  15.969  0.00  0.00    +0.000 A 
ATOM      5  C   UNL     1       5.345   4.226  14.650  0.00  0.00    +0.000 A 
ATOM      6  C   UNL     1       6.661   4.590  14.374  0.00  0.00    +0.000 A 
ATOM      7 BR   UNL     1       7.263   4.597  12.580  0.00  0.00    +0.000 Br
ATOM      8  C   UNL     1       7.525   4.958  15.400  0.00  0.00    +0.000 A 
ATOM      9  C   UNL     1       7.069   4.984  16.724  0.00  0.00    +0.000 A 
ENDBRANCH   2   3
BRANCH   2  10
ATOM     10  C   UNL     1       4.058   5.661  18.659  0.00  0.00    +0.000 C 
BRANCH  10  11
ATOM     11  C   UNL     1       3.170   5.253  19.829  0.00  0.00    +0.000 C 
BRANCH  11  12
ATOM     12  N   UNL     1       1.819   4.889  19.360  0.00  0.00    +0.000 NA
ATOM     13  C   UNL     1       1.066   4.114  20.368  0.00  0.00    +0.000 C 
ATOM     14  C   UNL     1       1.390   2.612  20.377  0.00  0.00    +0.000 C 
ATOM     15  O   UNL     1       1.164   2.034  19.087  0.00  0.00    +0.000 OA
ATOM     16  C   UNL     1       1.998   2.667  18.114  0.00  0.00    +0.000 C 
ATOM     17  C   UNL     1       1.759   4.185  18.062  0.00  0.00    +0.000 C 
ENDBRANCH  11  12
ENDBRANCH  10  11
ENDBRANCH   2  10
TORSDOF 4
ENDMDL
MODEL 4
REMARK VINA RESULT:      -6.2      0.723      1.118
REMARK  Name = 
REMARK  4 active torsions:
REMARK  status: ('A' for Active; 'I' for Inactive)
REMARK    1  A    between atoms: C_2  and  C_3
REMARK    2  A    between atoms: C_2  and  C_11
REMARK    3  A    between atoms: C_3  and  C_4
REMARK    4  A    between atoms: C_4  and  N_5
REMARK                            x       y       z     vdW  Elec       q    Type
REMARK                         _______ _______ _______ _____ _____    ______ ____
ROOT
ATOM      1  O   UNL     1       3.898   5.610  19.882  0.00  0.00    +0.000 OA
ATOM      2  C   UNL     1       3.177   5.969  18.951  0.00  0.00    +0.000 C 
ENDROOT
BRANCH   2   3
ATOM      3  C   UNL     1       2.434   7.267  19.026  0.00  0.00    +0.000 A 
ATOM      4  C   UNL     1       2.248   8.071  17.893  0.00  0.00    +0.000 A 
ATOM      5  C   UNL     1       1.492   9.242  17.967  0.00  0.00    +0.000 A 
ATOM      6  C   UNL     1       0.930   9.616  19.185  0.00  0.00    +0.000 A 
ATOM      7 BR   UNL     1      -0.128  11.183  19.273  0.00  0.00    +0.000 Br
ATOM      8  C   UNL     1       1.130   8.846  20.325  0.00  0.00    +0.000 A 
ATOM      9  C   UNL     1       1.886   7.670  20.252  0.00  0.00    +0.000 A 
ENDBRANCH   2   3
BRANCH   2  10
ATOM     10  C   UNL     1       2.994   5.157  17.682  0.00  0.00    +0.000 C 
BRANCH  10  11
ATOM     11  C   UNL     1       4.174   4.262  17.325  0.00  0.00    +0.000 C 
BRANCH  11  12
ATOM     12  N   UNL     1       4.899   4.790  16.153  0.00  0.00    +0.000 NA
ATOM     13  C   UNL     1       6.200   4.122  15.949  0.00  0.00    +0.000 C 
ATOM     14  C   UNL     1       7.338   4.684  16.815  0.00  0.00    +0.000 C 
ATOM     15  O   UNL     1       7.501   6.089  16.594  0.00  0.00    +0.000 OA
ATOM     16  C   UNL     1       6.296   6.780  16.931  0.00  0.00    +0.000 C 
ATOM     17  C   UNL     1       5.095   6.256  16.128  0.00  0.00    +0.000 C 
ENDBRANCH  11  12
ENDBRANCH  10  11
ENDBRANCH   2  10
TORSDOF 4
ENDMDL
MODEL 5
REMARK VINA RESULT:      -6.0      2.394      4.174
REMARK  Name = 
REMARK  4 active torsions:
REMARK  status: ('A' for Active; 'I' for Inactive)
REMARK    1  A    between atoms: C_2  and  C_3
REMARK    2  A    between atoms: C_2  and  C_11
REMARK    3  A    between atoms: C_3  and  C_4
REMARK    4  A    between atoms: C_4  and  N_5
REMARK                            x       y       z     vdW  Elec       q    Type
REMARK                         _______ _______ _______ _____ _____    ______ ____
ROOT
ATOM      1  O   UNL     1       5.557   5.335  18.483  0.00  0.00    +0.000 OA
ATOM      2  C   UNL     1       4.393   5.301  18.083  0.00  0.00    +0.000 C 
ENDROOT
BRANCH   2   3
ATOM      3  C   UNL     1       3.439   6.401  18.434  0.00  0.00    +0.000 A 
ATOM      4  C   UNL     1       2.759   6.417  19.659  0.00  0.00    +0.000 A 
ATOM      5  C   UNL     1       1.929   7.487  19.998  0.00  0.00    +0.000 A 
ATOM      6  C   UNL     1       1.769   8.539  19.100  0.00  0.00    +0.000 A 
ATOM      7 BR   UNL     1       0.675  10.006  19.579  0.00  0.00    +0.000 Br
ATOM      8  C   UNL     1       2.413   8.524  17.868  0.00  0.00    +0.000 A 
ATOM      9  C   UNL     1       3.248   7.453  17.527  0.00  0.00    +0.000 A 
ENDBRANCH   2   3
BRANCH   2  10
ATOM     10  C   UNL     1       3.846   4.182  17.216  0.00  0.00    +0.000 C 
BRANCH  10  11
ATOM     11  C   UNL     1       2.373   3.864  17.444  0.00  0.00    +0.000 C 
BRANCH  11  12
ATOM     12  N   UNL     1       2.214   2.548  18.092  0.00  0.00    +0.000 NA
ATOM     13  C   UNL     1       0.927   2.427  18.808  0.00  0.00    +0.000 C 
ATOM     14  C   UNL     1       0.931   3.039  20.217  0.00  0.00    +0.000 C 
ATOM     15  O   UNL     1       1.963   2.460  21.022  0.00  0.00    +0.000 OA
ATOM     16  C   UNL     1       3.241   2.698  20.425  0.00  0.00    +0.000 C 
ATOM     17  C   UNL     1       3.312   2.141  18.995  0.00  0.00    +0.000 C 
ENDBRANCH  11  12
ENDBRANCH  10  11
ENDBRANCH   2  10
TORSDOF 4
ENDMDL
MODEL 6
REMARK VINA RESULT:      -6.0      1.139      1.239
REMARK  Name = 
REMARK  4 active torsions:
REMARK  status: ('A' for Active; 'I' for Inactive)
REMARK    1  A    between atoms: C_2  and  C_3
REMARK    2  A    between atoms: C_2  and  C_11
REMARK    3  A    between atoms: C_3  and  C_4
REMARK    4  A    between atoms: C_4  and  N_5
REMARK                            x       y       z     vdW  Elec       q    Type
REMARK                         _______ _______ _______ _____ _____    ______ ____
ROOT
ATOM      1  O   UNL     1       2.020   4.500  18.237  0.00  0.00    +0.000 OA
ATOM      2  C   UNL     1       2.745   5.289  18.841  0.00  0.00    +0.000 C 
ENDROOT
BRANCH   2   3
ATOM      3  C   UNL     1       2.290   6.694  19.093  0.00  0.00    +0.000 A 
ATOM      4  C   UNL     1       2.238   7.643  18.063  0.00  0.00    +0.000 A 
ATOM      5  C   UNL     1       1.745   8.926  18.302  0.00  0.00    +0.000 A 
ATOM      6  C   UNL     1       1.313   9.265  19.581  0.00  0.00    +0.000 A 
ATOM      7 BR   UNL     1       0.606  10.993  19.893  0.00  0.00    +0.000 Br
ATOM      8  C   UNL     1       1.385   8.345  20.622  0.00  0.00    +0.000 A 
ATOM      9  C   UNL     1       1.878   7.056  20.383  0.00  0.00    +0.000 A 
ENDBRANCH   2   3
BRANCH   2  10
ATOM     10  C   UNL     1       4.116   4.916  19.376  0.00  0.00    +0.000 C 
BRANCH  10  11
ATOM     11  C   UNL     1       5.118   4.488  18.311  0.00  0.00    +0.000 C 
BRANCH  11  12
ATOM     12  N   UNL     1       5.072   5.398  17.150  0.00  0.00    +0.000 NA
ATOM     13  C   UNL     1       5.499   4.736  15.900  0.00  0.00    +0.000 C 
ATOM     14  C   UNL     1       7.023   4.682  15.706  0.00  0.00    +0.000 C 
ATOM     15  O   UNL     1       7.590   5.996  15.750  0.00  0.00    +0.000 OA
ATOM     16  C   UNL     1       7.319   6.604  17.015  0.00  0.00    +0.000 C 
ATOM     17  C   UNL     1       5.811   6.670  17.303  0.00  0.00    +0.000 C 
ENDBRANCH  11  12
ENDBRANCH  10  11
ENDBRANCH   2  10
TORSDOF 4
ENDMDL
MODEL 7
REMARK VINA RESULT:      -5.9      2.537      4.024
REMARK  Name = 
REMARK  4 active torsions:
REMARK  status: ('A' for Active; 'I' for Inactive)
REMARK    1  A    between atoms: C_2  and  C_3
REMARK    2  A    between atoms: C_2  and  C_11
REMARK    3  A    between atoms: C_3  and  C_4
REMARK    4  A    between atoms: C_4  and  N_5
REMARK                            x       y       z     vdW  Elec       q    Type
REMARK                         _______ _______ _______ _____ _____    ______ ____
ROOT
ATOM      1  O   UNL     1       4.843   5.566  18.069  0.00  0.00    +0.000 OA
ATOM      2  C   UNL     1       3.613   5.595  18.055  0.00  0.00    +0.000 C 
ENDROOT
BRANCH   2   3
ATOM      3  C   UNL     1       2.878   6.827  18.487  0.00  0.00    +0.000 A 
ATOM      4  C   UNL     1       2.625   7.878  17.596  0.00  0.00    +0.000 A 
ATOM      5  C   UNL     1       1.878   8.987  17.997  0.00  0.00    +0.000 A 
ATOM      6  C   UNL     1       1.393   9.048  19.300  0.00  0.00    +0.000 A 
ATOM      7 BR   UNL     1       0.347  10.533  19.830  0.00  0.00    +0.000 Br
ATOM      8  C   UNL     1       1.661   8.027  20.206  0.00  0.00    +0.000 A 
ATOM      9  C   UNL     1       2.409   6.913  19.805  0.00  0.00    +0.000 A 
ENDBRANCH   2   3
BRANCH   2  10
ATOM     10  C   UNL     1       2.761   4.424  17.601  0.00  0.00    +0.000 C 
BRANCH  10  11
ATOM     11  C   UNL     1       1.543   4.149  18.475  0.00  0.00    +0.000 C 
BRANCH  11  12
ATOM     12  N   UNL     1       1.616   2.800  19.069  0.00  0.00    +0.000 NA
ATOM     13  C   UNL     1       1.064   2.759  20.439  0.00  0.00    +0.000 C 
ATOM     14  C   UNL     1       2.049   3.214  21.527  0.00  0.00    +0.000 C 
ATOM     15  O   UNL     1       3.248   2.432  21.489  0.00  0.00    +0.000 OA
ATOM     16  C   UNL     1       3.886   2.577  20.218  0.00  0.00    +0.000 C 
ATOM     17  C   UNL     1       2.954   2.170  19.065  0.00  0.00    +0.000 C 
ENDBRANCH  11  12
ENDBRANCH  10  11
ENDBRANCH   2  10
TORSDOF 4
ENDMDL
MODEL 8
REMARK VINA RESULT:      -5.9      1.133      1.476
REMARK  Name = 
REMARK  4 active torsions:
REMARK  status: ('A' for Active; 'I' for Inactive)
REMARK    1  A    between atoms: C_2  and  C_3
REMARK    2  A    between atoms: C_2  and  C_11
REMARK    3  A    between atoms: C_3  and  C_4
REMARK    4  A    between atoms: C_4  and  N_5
REMARK                            x       y       z     vdW  Elec       q    Type
REMARK                         _______ _______ _______ _____ _____    ______ ____
ROOT
ATOM      1  O   UNL     1       2.462   5.090  17.776  0.00  0.00    +0.000 OA
ATOM      2  C   UNL     1       2.982   5.839  18.602  0.00  0.00    +0.000 C 
ENDROOT
BRANCH   2   3
ATOM      3  C   UNL     1       2.373   7.174  18.904  0.00  0.00    +0.000 A 
ATOM      4  C   UNL     1       2.215   8.148  17.909  0.00  0.00    +0.000 A 
ATOM      5  C   UNL     1       1.581   9.359  18.192  0.00  0.00    +0.000 A 
ATOM      6  C   UNL     1       1.113   9.600  19.481  0.00  0.00    +0.000 A 
ATOM      7 BR   UNL     1       0.218  11.225  19.852  0.00  0.00    +0.000 Br
ATOM      8  C   UNL     1       1.288   8.656  20.487  0.00  0.00    +0.000 A 
ATOM      9  C   UNL     1       1.922   7.440  20.204  0.00  0.00    +0.000 A 
ENDBRANCH   2   3
BRANCH   2  10
ATOM     10  C   UNL     1       4.240   5.481  19.372  0.00  0.00    +0.000 C 
BRANCH  10  11
ATOM     11  C   UNL     1       5.217   4.591  18.613  0.00  0.00    +0.000 C 
BRANCH  11  12
ATOM     12  N   UNL     1       6.341   5.384  18.076  0.00  0.00    +0.000 NA
ATOM     13  C   UNL     1       5.882   6.581  17.341  0.00  0.00    +0.000 C 
ATOM     14  C   UNL     1       5.474   6.307  15.885  0.00  0.00    +0.000 C 
ATOM     15  O   UNL     1       6.550   5.703  15.159  0.00  0.00    +0.000 OA
ATOM     16  C   UNL     1       6.913   4.460  15.765  0.00  0.00    +0.000 C 
ATOM     17  C   UNL     1       7.308   4.641  17.240  0.00  0.00    +0.000 C 
ENDBRANCH  11  12
ENDBRANCH  10  11
ENDBRANCH   2  10
TORSDOF 4
ENDMDL
MODEL 9
REMARK VINA RESULT:      -5.9      1.037      1.558
REMARK  Name = 
REMARK  4 active torsions:
REMARK  status: ('A' for Active; 'I' for Inactive)
REMARK    1  A    between atoms: C_2  and  C_3
REMARK    2  A    between atoms: C_2  and  C_11
REMARK    3  A    between atoms: C_3  and  C_4
REMARK    4  A    between atoms: C_4  and  N_5
REMARK                            x       y       z     vdW  Elec       q    Type
REMARK                         _______ _______ _______ _____ _____    ______ ____
ROOT
ATOM      1  O   UNL     1       2.901   5.731  19.903  0.00  0.00    +0.000 OA
ATOM      2  C   UNL     1       2.719   6.511  18.968  0.00  0.00    +0.000 C 
ENDROOT
BRANCH   2   3
ATOM      3  C   UNL     1       2.057   7.834  19.204  0.00  0.00    +0.000 A 
ATOM      4  C   UNL     1       1.915   8.775  18.174  0.00  0.00    +0.000 A 
ATOM      5  C   UNL     1       1.233   9.973  18.394  0.00  0.00    +0.000 A 
ATOM      6  C   UNL     1       0.702  10.235  19.654  0.00  0.00    +0.000 A 
ATOM      7 BR   UNL     1      -0.257  11.842  19.938  0.00  0.00    +0.000 Br
ATOM      8  C   UNL     1       0.861   9.326  20.694  0.00  0.00    +0.000 A 
ATOM      9  C   UNL     1       1.543   8.123  20.475  0.00  0.00    +0.000 A 
ENDBRANCH   2   3
BRANCH   2  10
ATOM     10  C   UNL     1       3.147   6.213  17.544  0.00  0.00    +0.000 C 
BRANCH  10  11
ATOM     11  C   UNL     1       4.655   6.152  17.333  0.00  0.00    +0.000 C 
BRANCH  11  12
ATOM     12  N   UNL     1       5.134   4.756  17.368  0.00  0.00    +0.000 NA
ATOM     13  C   UNL     1       6.154   4.539  18.414  0.00  0.00    +0.000 C 
ATOM     14  C   UNL     1       7.578   4.941  17.998  0.00  0.00    +0.000 C 
ATOM     15  O   UNL     1       7.978   4.246  16.812  0.00  0.00    +0.000 OA
ATOM     16  C   UNL     1       7.089   4.561  15.737  0.00  0.00    +0.000 C 
ATOM     17  C   UNL     1       5.632   4.217  16.084  0.00  0.00    +0.000 C 
ENDBRANCH  11  12
ENDBRANCH  10  11
ENDBRANCH   2  10
TORSDOF 4
ENDMDL
