MODEL 1
REMARK VINA RESULT:      -6.8      0.000      0.000
REMARK  Name = 
REMARK  5 active torsions:
REMARK  status: ('A' for Active; 'I' for Inactive)
REMARK    1  A    between atoms: C_1  and  O_2
REMARK    2  A    between atoms: O_2  and  C_3
REMARK    3  A    between atoms: C_3  and  C_5
REMARK    4  A    between atoms: C_6  and  C_7
REMARK    5  A    between atoms: N_9  and  C_10
REMARK                            x       y       z     vdW  Elec       q    Type
REMARK                         _______ _______ _______ _____ _____    ______ ____
ROOT
ATOM      1  C   UNL     1       6.272   4.456  15.995  0.00  0.00    +0.000 C 
ATOM      2  O   UNL     1       7.108   4.389  16.887  0.00  0.00    +0.000 OA
ATOM      3  N   UNL     1       4.900   4.487  16.155  0.00  0.00    +0.000 N 
ATOM      4  H   UNL     1       4.325   4.400  15.327  0.00  0.00    +0.000 HD
ENDROOT
BRANCH   3   5
ATOM      5  C   UNL     1       4.225   4.487  17.398  0.00  0.00    +0.000 A 
ATOM      6  C   UNL     1       4.352   5.515  18.336  0.00  0.00    +0.000 A 
ATOM      7  C   UNL     1       3.710   5.442  19.575  0.00  0.00    +0.000 A 
ATOM      8  C   UNL     1       2.927   4.336  19.892  0.00  0.00    +0.000 A 
ATOM      9 CL   UNL     1       2.196   4.290  21.456  0.00  0.00    +0.000 Cl
ATOM     10  C   UNL     1       2.764   3.315  18.951  0.00  0.00    +0.000 A 
ATOM     11 CL   UNL     1       1.811   1.908  19.272  0.00  0.00    +0.000 Cl
ATOM     12  C   UNL     1       3.399   3.398  17.702  0.00  0.00    +0.000 A 
ENDBRANCH   3   5
BRANCH   1  14
ATOM     13  C   UNL     1       6.033   3.663  13.726  0.00  0.00    +0.000 C 
ATOM     14  C   UNL     1       6.698   4.466  14.573  0.00  0.00    +0.000 C 
BRANCH  13  15
ATOM     15  C   UNL     1       6.414   3.595  12.309  0.00  0.00    +0.000 C 
ATOM     16  O   UNL     1       7.304   4.247  11.789  0.00  0.00    +0.000 OA
BRANCH  15  18
ATOM     17  C   UNL     1       4.300   3.167  11.409  0.00  0.00    +0.000 C 
ATOM     18  O   UNL     1       5.609   2.683  11.708  0.00  0.00    +0.000 OA
ENDBRANCH  15  18
ENDBRANCH  13  15
ENDBRANCH   1  14
TORSDOF 4
ENDMDL
MODEL 2
REMARK VINA RESULT:      -6.6      1.131      1.920
REMARK  Name = 
REMARK  5 active torsions:
REMARK  status: ('A' for Active; 'I' for Inactive)
REMARK    1  A    between atoms: C_1  and  O_2
REMARK    2  A    between atoms: O_2  and  C_3
REMARK    3  A    between atoms: C_3  and  C_5
REMARK    4  A    between atoms: C_6  and  C_7
REMARK    5  A    between atoms: N_9  and  C_10
REMARK                            x       y       z     vdW  Elec       q    Type
REMARK                         _______ _______ _______ _____ _____    ______ ____
ROOT
ATOM      1  C   UNL     1       6.292   4.523  16.727  0.00  0.00    +0.000 C 
ATOM      2  O   UNL     1       6.960   4.360  17.741  0.00  0.00    +0.000 OA
ATOM      3  N   UNL     1       4.933   4.314  16.596  0.00  0.00    +0.000 N 
ATOM      4  H   UNL     1       4.535   4.351  15.665  0.00  0.00    +0.000 HD
ENDROOT
BRANCH   3   5
ATOM      5  C   UNL     1       4.067   3.908  17.638  0.00  0.00    +0.000 A 
ATOM      6  C   UNL     1       3.719   2.574  17.866  0.00  0.00    +0.000 A 
ATOM      7  C   UNL     1       2.814   2.229  18.873  0.00  0.00    +0.000 A 
ATOM      8  C   UNL     1       2.243   3.218  19.669  0.00  0.00    +0.000 A 
ATOM      9 CL   UNL     1       1.099   2.725  20.867  0.00  0.00    +0.000 Cl
ATOM     10  C   UNL     1       2.606   4.554  19.473  0.00  0.00    +0.000 A 
ATOM     11 CL   UNL     1       1.937   5.838  20.419  0.00  0.00    +0.000 Cl
ATOM     12  C   UNL     1       3.526   4.895  18.471  0.00  0.00    +0.000 A 
ENDBRANCH   3   5
BRANCH   1  14
ATOM     13  C   UNL     1       6.603   4.289  14.343  0.00  0.00    +0.000 C 
ATOM     14  C   UNL     1       6.946   4.946  15.463  0.00  0.00    +0.000 C 
BRANCH  13  15
ATOM     15  C   UNL     1       7.227   4.630  13.058  0.00  0.00    +0.000 C 
ATOM     16  O   UNL     1       7.959   5.586  12.865  0.00  0.00    +0.000 OA
BRANCH  15  18
ATOM     17  C   UNL     1       5.466   3.340  12.222  0.00  0.00    +0.000 C 
ATOM     18  O   UNL     1       6.848   3.693  12.153  0.00  0.00    +0.000 OA
ENDBRANCH  15  18
ENDBRANCH  13  15
ENDBRANCH   1  14
TORSDOF 4
ENDMDL
MODEL 3
REMARK VINA RESULT:      -6.5      0.971      1.707
REMARK  Name = 
REMARK  5 active torsions:
REMARK  status: ('A' for Active; 'I' for Inactive)
REMARK    1  A    between atoms: C_1  and  O_2
REMARK    2  A    between atoms: O_2  and  C_3
REMARK    3  A    between atoms: C_3  and  C_5
REMARK    4  A    between atoms: C_6  and  C_7
REMARK    5  A    between atoms: N_9  and  C_10
REMARK                            x       y       z     vdW  Elec       q    Type
REMARK                         _______ _______ _______ _____ _____    ______ ____
ROOT
ATOM      1  C   UNL     1       6.237   4.664  15.974  0.00  0.00    +0.000 C 
ATOM      2  O   UNL     1       6.942   5.215  16.810  0.00  0.00    +0.000 OA
ATOM      3  N   UNL     1       4.973   4.143  16.178  0.00  0.00    +0.000 N 
ATOM      4  H   UNL     1       4.563   3.591  15.436  0.00  0.00    +0.000 HD
ENDROOT
BRANCH   3   5
ATOM      5  C   UNL     1       4.258   4.196  17.397  0.00  0.00    +0.000 A 
ATOM      6  C   UNL     1       4.004   3.069  18.183  0.00  0.00    +0.000 A 
ATOM      7  C   UNL     1       3.243   3.163  19.351  0.00  0.00    +0.000 A 
ATOM      8  C   UNL     1       2.725   4.392  19.751  0.00  0.00    +0.000 A 
ATOM      9 CL   UNL     1       1.757   4.429  21.182  0.00  0.00    +0.000 Cl
ATOM     10  C   UNL     1       2.998   5.533  18.992  0.00  0.00    +0.000 A 
ATOM     11 CL   UNL     1       2.387   7.093  19.422  0.00  0.00    +0.000 Cl
ATOM     12  C   UNL     1       3.775   5.438  17.828  0.00  0.00    +0.000 A 
ENDBRANCH   3   5
BRANCH   1  14
ATOM     13  C   UNL     1       5.920   3.844  13.724  0.00  0.00    +0.000 C 
ATOM     14  C   UNL     1       6.738   4.462  14.591  0.00  0.00    +0.000 C 
BRANCH  13  15
ATOM     15  C   UNL     1       6.356   3.581  12.345  0.00  0.00    +0.000 C 
ATOM     16  O   UNL     1       7.308   4.109  11.798  0.00  0.00    +0.000 OA
BRANCH  15  18
ATOM     17  C   UNL     1       4.267   3.183  11.373  0.00  0.00    +0.000 C 
ATOM     18  O   UNL     1       5.517   2.654  11.817  0.00  0.00    +0.000 OA
ENDBRANCH  15  18
ENDBRANCH  13  15
ENDBRANCH   1  14
TORSDOF 4
ENDMDL
MODEL 4
REMARK VINA RESULT:      -6.5      1.015      1.032
REMARK  Name = 
REMARK  5 active torsions:
REMARK  status: ('A' for Active; 'I' for Inactive)
REMARK    1  A    between atoms: C_1  and  O_2
REMARK    2  A    between atoms: O_2  and  C_3
REMARK    3  A    between atoms: C_3  and  C_5
REMARK    4  A    between atoms: C_6  and  C_7
REMARK    5  A    between atoms: N_9  and  C_10
REMARK                            x       y       z     vdW  Elec       q    Type
REMARK                         _______ _______ _______ _____ _____    ______ ____
ROOT
ATOM      1  C   UNL     1       6.134   4.746  15.931  0.00  0.00    +0.000 C 
ATOM      2  O   UNL     1       6.761   5.427  16.732  0.00  0.00    +0.000 OA
ATOM      3  N   UNL     1       4.943   4.087  16.168  0.00  0.00    +0.000 N 
ATOM      4  H   UNL     1       4.607   3.445  15.460  0.00  0.00    +0.000 HD
ENDROOT
BRANCH   3   5
ATOM      5  C   UNL     1       4.220   4.123  17.383  0.00  0.00    +0.000 A 
ATOM      6  C   UNL     1       3.221   5.063  17.649  0.00  0.00    +0.000 A 
ATOM      7  C   UNL     1       2.575   5.095  18.888  0.00  0.00    +0.000 A 
ATOM      8  C   UNL     1       2.920   4.181  19.880  0.00  0.00    +0.000 A 
ATOM      9 CL   UNL     1       2.112   4.303  21.402  0.00  0.00    +0.000 Cl
ATOM     10  C   UNL     1       3.895   3.215  19.616  0.00  0.00    +0.000 A 
ATOM     11 CL   UNL     1       4.380   2.050  20.799  0.00  0.00    +0.000 Cl
ATOM     12  C   UNL     1       4.531   3.177  18.367  0.00  0.00    +0.000 A 
ENDBRANCH   3   5
BRANCH   1  14
ATOM     13  C   UNL     1       5.865   3.893  13.687  0.00  0.00    +0.000 C 
ATOM     14  C   UNL     1       6.664   4.526  14.561  0.00  0.00    +0.000 C 
BRANCH  13  15
ATOM     15  C   UNL     1       6.330   3.613  12.321  0.00  0.00    +0.000 C 
ATOM     16  O   UNL     1       7.303   4.122  11.792  0.00  0.00    +0.000 OA
BRANCH  15  18
ATOM     17  C   UNL     1       4.226   3.223  11.379  0.00  0.00    +0.000 C 
ATOM     18  O   UNL     1       5.490   2.694  11.780  0.00  0.00    +0.000 OA
ENDBRANCH  15  18
ENDBRANCH  13  15
ENDBRANCH   1  14
TORSDOF 4
ENDMDL
MODEL 5
REMARK VINA RESULT:      -6.5      1.145      1.145
REMARK  Name = 
REMARK  5 active torsions:
REMARK  status: ('A' for Active; 'I' for Inactive)
REMARK    1  A    between atoms: C_1  and  O_2
REMARK    2  A    between atoms: O_2  and  C_3
REMARK    3  A    between atoms: C_3  and  C_5
REMARK    4  A    between atoms: C_6  and  C_7
REMARK    5  A    between atoms: N_9  and  C_10
REMARK                            x       y       z     vdW  Elec       q    Type
REMARK                         _______ _______ _______ _____ _____    ______ ____
ROOT
ATOM      1  C   UNL     1       5.441   4.960  15.836  0.00  0.00    +0.000 C 
ATOM      2  O   UNL     1       5.831   5.862  16.567  0.00  0.00    +0.000 OA
ATOM      3  N   UNL     1       4.666   3.878  16.206  0.00  0.00    +0.000 N 
ATOM      4  H   UNL     1       4.537   3.135  15.531  0.00  0.00    +0.000 HD
ENDROOT
BRANCH   3   5
ATOM      5  C   UNL     1       4.153   3.651  17.504  0.00  0.00    +0.000 A 
ATOM      6  C   UNL     1       4.934   3.737  18.661  0.00  0.00    +0.000 A 
ATOM      7  C   UNL     1       4.394   3.447  19.916  0.00  0.00    +0.000 A 
ATOM      8  C   UNL     1       3.060   3.067  20.033  0.00  0.00    +0.000 A 
ATOM      9 CL   UNL     1       2.469   2.682  21.610  0.00  0.00    +0.000 Cl
ATOM     10  C   UNL     1       2.259   3.007  18.889  0.00  0.00    +0.000 A 
ATOM     11 CL   UNL     1       0.595   2.540  18.953  0.00  0.00    +0.000 Cl
ATOM     12  C   UNL     1       2.800   3.313  17.632  0.00  0.00    +0.000 A 
ENDBRANCH   3   5
BRANCH   1  14
ATOM     13  C   UNL     1       5.963   3.733  13.821  0.00  0.00    +0.000 C 
ATOM     14  C   UNL     1       5.837   4.936  14.405  0.00  0.00    +0.000 C 
BRANCH  13  15
ATOM     15  C   UNL     1       6.379   3.627  12.416  0.00  0.00    +0.000 C 
ATOM     16  O   UNL     1       7.269   4.278  11.896  0.00  0.00    +0.000 OA
BRANCH  15  18
ATOM     17  C   UNL     1       4.354   3.168  11.342  0.00  0.00    +0.000 C 
ATOM     18  O   UNL     1       5.605   2.680  11.828  0.00  0.00    +0.000 OA
ENDBRANCH  15  18
ENDBRANCH  13  15
ENDBRANCH   1  14
TORSDOF 4
ENDMDL
MODEL 6
REMARK VINA RESULT:      -6.4      0.955      1.127
REMARK  Name = 
REMARK  5 active torsions:
REMARK  status: ('A' for Active; 'I' for Inactive)
REMARK    1  A    between atoms: C_1  and  O_2
REMARK    2  A    between atoms: O_2  and  C_3
REMARK    3  A    between atoms: C_3  and  C_5
REMARK    4  A    between atoms: C_6  and  C_7
REMARK    5  A    between atoms: N_9  and  C_10
REMARK                            x       y       z     vdW  Elec       q    Type
REMARK                         _______ _______ _______ _____ _____    ______ ____
ROOT
ATOM      1  C   UNL     1       6.363   4.841  16.511  0.00  0.00    +0.000 C 
ATOM      2  O   UNL     1       6.930   4.358  17.483  0.00  0.00    +0.000 OA
ATOM      3  N   UNL     1       5.017   5.139  16.409  0.00  0.00    +0.000 N 
ATOM      4  H   UNL     1       4.658   5.402  15.500  0.00  0.00    +0.000 HD
ENDROOT
BRANCH   3   5
ATOM      5  C   UNL     1       4.065   4.971  17.442  0.00  0.00    +0.000 A 
ATOM      6  C   UNL     1       3.957   5.843  18.530  0.00  0.00    +0.000 A 
ATOM      7  C   UNL     1       3.039   5.602  19.555  0.00  0.00    +0.000 A 
ATOM      8  C   UNL     1       2.212   4.483  19.505  0.00  0.00    +0.000 A 
ATOM      9 CL   UNL     1       1.130   4.223  20.826  0.00  0.00    +0.000 Cl
ATOM     10  C   UNL     1       2.287   3.620  18.407  0.00  0.00    +0.000 A 
ATOM     11 CL   UNL     1       1.297   2.209  18.275  0.00  0.00    +0.000 Cl
ATOM     12  C   UNL     1       3.200   3.873  17.372  0.00  0.00    +0.000 A 
ENDBRANCH   3   5
BRANCH   1  14
ATOM     13  C   UNL     1       6.655   4.584  14.127  0.00  0.00    +0.000 C 
ATOM     14  C   UNL     1       7.122   5.121  15.266  0.00  0.00    +0.000 C 
BRANCH  13  15
ATOM     15  C   UNL     1       7.368   4.792  12.859  0.00  0.00    +0.000 C 
ATOM     16  O   UNL     1       8.124   5.718  12.622  0.00  0.00    +0.000 OA
BRANCH  15  18
ATOM     17  C   UNL     1       5.716   3.262  12.229  0.00  0.00    +0.000 C 
ATOM     18  O   UNL     1       7.034   3.773  12.027  0.00  0.00    +0.000 OA
ENDBRANCH  15  18
ENDBRANCH  13  15
ENDBRANCH   1  14
TORSDOF 4
ENDMDL
MODEL 7
REMARK VINA RESULT:      -6.3      1.665      2.335
REMARK  Name = 
REMARK  5 active torsions:
REMARK  status: ('A' for Active; 'I' for Inactive)
REMARK    1  A    between atoms: C_1  and  O_2
REMARK    2  A    between atoms: O_2  and  C_3
REMARK    3  A    between atoms: C_3  and  C_5
REMARK    4  A    between atoms: C_6  and  C_7
REMARK    5  A    between atoms: N_9  and  C_10
REMARK                            x       y       z     vdW  Elec       q    Type
REMARK                         _______ _______ _______ _____ _____    ______ ____
ROOT
ATOM      1  C   UNL     1       5.251   4.194  16.557  0.00  0.00    +0.000 C 
ATOM      2  O   UNL     1       4.180   3.936  16.023  0.00  0.00    +0.000 OA
ATOM      3  N   UNL     1       5.513   4.199  17.914  0.00  0.00    +0.000 N 
ATOM      4  H   UNL     1       6.403   4.569  18.223  0.00  0.00    +0.000 HD
ENDROOT
BRANCH   3   5
ATOM      5  C   UNL     1       4.582   3.861  18.924  0.00  0.00    +0.000 A 
ATOM      6  C   UNL     1       4.501   2.585  19.491  0.00  0.00    +0.000 A 
ATOM      7  C   UNL     1       3.526   2.284  20.445  0.00  0.00    +0.000 A 
ATOM      8  C   UNL     1       2.617   3.258  20.848  0.00  0.00    +0.000 A 
ATOM      9 CL   UNL     1       1.411   2.806  21.999  0.00  0.00    +0.000 Cl
ATOM     10  C   UNL     1       2.707   4.547  20.313  0.00  0.00    +0.000 A 
ATOM     11 CL   UNL     1       1.612   5.808  20.761  0.00  0.00    +0.000 Cl
ATOM     12  C   UNL     1       3.696   4.850  19.366  0.00  0.00    +0.000 A 
ENDBRANCH   3   5
BRANCH   1  14
ATOM     13  C   UNL     1       6.268   4.570  14.398  0.00  0.00    +0.000 C 
ATOM     14  C   UNL     1       6.419   4.594  15.732  0.00  0.00    +0.000 C 
BRANCH  13  15
ATOM     15  C   UNL     1       7.387   4.924  13.515  0.00  0.00    +0.000 C 
ATOM     16  O   UNL     1       8.290   5.693  13.799  0.00  0.00    +0.000 OA
BRANCH  15  18
ATOM     17  C   UNL     1       6.066   3.411  12.319  0.00  0.00    +0.000 C 
ATOM     18  O   UNL     1       7.229   4.239  12.354  0.00  0.00    +0.000 OA
ENDBRANCH  15  18
ENDBRANCH  13  15
ENDBRANCH   1  14
TORSDOF 4
ENDMDL
MODEL 8
REMARK VINA RESULT:      -6.3      4.738      6.575
REMARK  Name = 
REMARK  5 active torsions:
REMARK  status: ('A' for Active; 'I' for Inactive)
REMARK    1  A    between atoms: C_1  and  O_2
REMARK    2  A    between atoms: O_2  and  C_3
REMARK    3  A    between atoms: C_3  and  C_5
REMARK    4  A    between atoms: C_6  and  C_7
REMARK    5  A    between atoms: N_9  and  C_10
REMARK                            x       y       z     vdW  Elec       q    Type
REMARK                         _______ _______ _______ _____ _____    ______ ____
ROOT
ATOM      1  C   UNL     1       7.607   7.628  17.819  0.00  0.00    +0.000 C 
ATOM      2  O   UNL     1       8.059   6.863  18.662  0.00  0.00    +0.000 OA
ATOM      3  N   UNL     1       6.498   7.412  17.024  0.00  0.00    +0.000 N 
ATOM      4  H   UNL     1       6.321   8.066  16.271  0.00  0.00    +0.000 HD
ENDROOT
BRANCH   3   5
ATOM      5  C   UNL     1       5.665   6.271  17.081  0.00  0.00    +0.000 A 
ATOM      6  C   UNL     1       5.952   5.081  16.407  0.00  0.00    +0.000 A 
ATOM      7  C   UNL     1       5.067   4.000  16.448  0.00  0.00    +0.000 A 
ATOM      8  C   UNL     1       3.880   4.095  17.168  0.00  0.00    +0.000 A 
ATOM      9 CL   UNL     1       2.813   2.737  17.142  0.00  0.00    +0.000 Cl
ATOM     10  C   UNL     1       3.595   5.268  17.874  0.00  0.00    +0.000 A 
ATOM     11 CL   UNL     1       2.140   5.462  18.788  0.00  0.00    +0.000 Cl
ATOM     12  C   UNL     1       4.492   6.345  17.842  0.00  0.00    +0.000 A 
ENDBRANCH   3   5
BRANCH   1  14
ATOM     13  C   UNL     1       8.606   9.688  18.589  0.00  0.00    +0.000 C 
ATOM     14  C   UNL     1       8.290   8.916  17.537  0.00  0.00    +0.000 C 
BRANCH  13  15
ATOM     15  C   UNL     1       9.257  10.990  18.389  0.00  0.00    +0.000 C 
ATOM     16  O   UNL     1       8.782  11.924  17.765  0.00  0.00    +0.000 OA
BRANCH  15  18
ATOM     17  C   UNL     1      11.466  11.755  18.411  0.00  0.00    +0.000 C 
ATOM     18  O   UNL     1      10.456  10.954  19.024  0.00  0.00    +0.000 OA
ENDBRANCH  15  18
ENDBRANCH  13  15
ENDBRANCH   1  14
TORSDOF 4
ENDMDL
MODEL 9
REMARK VINA RESULT:      -6.3      3.581      4.851
REMARK  Name = 
REMARK  5 active torsions:
REMARK  status: ('A' for Active; 'I' for Inactive)
REMARK    1  A    between atoms: C_1  and  O_2
REMARK    2  A    between atoms: O_2  and  C_3
REMARK    3  A    between atoms: C_3  and  C_5
REMARK    4  A    between atoms: C_6  and  C_7
REMARK    5  A    between atoms: N_9  and  C_10
REMARK                            x       y       z     vdW  Elec       q    Type
REMARK                         _______ _______ _______ _____ _____    ______ ____
ROOT
ATOM      1  C   UNL     1       3.055   5.323  17.760  0.00  0.00    +0.000 C 
ATOM      2  O   UNL     1       1.934   4.832  17.811  0.00  0.00    +0.000 OA
ATOM      3  N   UNL     1       3.394   6.630  18.051  0.00  0.00    +0.000 N 
ATOM      4  H   UNL     1       4.334   6.936  17.831  0.00  0.00    +0.000 HD
ENDROOT
BRANCH   3   5
ATOM      5  C   UNL     1       2.495   7.624  18.502  0.00  0.00    +0.000 A 
ATOM      6  C   UNL     1       1.956   8.603  17.663  0.00  0.00    +0.000 A 
ATOM      7  C   UNL     1       1.116   9.599  18.167  0.00  0.00    +0.000 A 
ATOM      8  C   UNL     1       0.800   9.628  19.523  0.00  0.00    +0.000 A 
ATOM      9 CL   UNL     1      -0.209  10.911  20.087  0.00  0.00    +0.000 Cl
ATOM     10  C   UNL     1       1.306   8.636  20.368  0.00  0.00    +0.000 A 
ATOM     11 CL   UNL     1       0.963   8.607  22.063  0.00  0.00    +0.000 Cl
ATOM     12  C   UNL     1       2.138   7.629  19.856  0.00  0.00    +0.000 A 
ENDBRANCH   3   5
BRANCH   1  14
ATOM     13  C   UNL     1       5.317   5.159  16.927  0.00  0.00    +0.000 C 
ATOM     14  C   UNL     1       4.208   4.504  17.308  0.00  0.00    +0.000 C 
BRANCH  13  15
ATOM     15  C   UNL     1       6.489   4.420  16.440  0.00  0.00    +0.000 C 
ATOM     16  O   UNL     1       7.631   4.573  16.839  0.00  0.00    +0.000 OA
BRANCH  15  18
ATOM     17  C   UNL     1       6.297   3.987  14.150  0.00  0.00    +0.000 C 
ATOM     18  O   UNL     1       6.063   3.550  15.489  0.00  0.00    +0.000 OA
ENDBRANCH  15  18
ENDBRANCH  13  15
ENDBRANCH   1  14
TORSDOF 4
ENDMDL
