MODEL 1
REMARK VINA RESULT:      -7.3      0.000      0.000
REMARK  Name = 
REMARK  7 active torsions:
REMARK  status: ('A' for Active; 'I' for Inactive)
REMARK    1  A    between atoms: C_1  and  O_2
REMARK    2  A    between atoms: O_2  and  C_3
REMARK    3  A    between atoms: C_3  and  C_5
REMARK    4  A    between atoms: C_10  and  C_12
REMARK    5  A    between atoms: C_12  and  C_13
REMARK    6  A    between atoms: C_16  and  O_17
REMARK    7  A    between atoms: O_17  and  C_18
REMARK                            x       y       z     vdW  Elec       q    Type
REMARK                         _______ _______ _______ _____ _____    ______ ____
ROOT
ATOM      1  C   UNL     1       1.670   3.235  19.459  0.00  0.00    +0.000 C 
ATOM      2  C   UNL     1       0.939   3.776  20.693  0.00  0.00    +0.000 C 
ATOM      3  C   UNL     1       1.453   2.913  21.833  0.00  0.00    +0.000 C 
ATOM      4  C   UNL     1       2.864   2.531  21.410  0.00  0.00    +0.000 C 
ATOM      5  N   UNL     1       2.995   2.910  20.008  0.00  0.00    +0.000 N 
ATOM      6  C   UNL     1       4.105   2.427  19.323  0.00  0.00    +0.000 C 
ATOM      7  O   UNL     1       4.906   1.695  19.908  0.00  0.00    +0.000 OA
ENDROOT
BRANCH   1   8
ATOM      8  C   UNL     1       1.532   4.281  18.355  0.00  0.00    +0.000 C 
ATOM      9  O   UNL     1       1.172   4.062  17.207  0.00  0.00    +0.000 OA
BRANCH   8  11
ATOM     10  C   UNL     1       2.638   6.323  17.995  0.00  0.00    +0.000 C 
ATOM     11  O   UNL     1       1.835   5.515  18.857  0.00  0.00    +0.000 OA
ENDBRANCH   8  11
ENDBRANCH   1   8
BRANCH   6  12
ATOM     12  C   UNL     1       4.286   2.822  17.856  0.00  0.00    +0.000 C 
BRANCH  12  13
ATOM     13  C   UNL     1       5.184   4.011  17.543  0.00  0.00    +0.000 A 
ATOM     14  C   UNL     1       5.333   4.555  16.264  0.00  0.00    +0.000 A 
ATOM     15  C   UNL     1       6.199   5.629  16.034  0.00  0.00    +0.000 A 
ATOM     16  C   UNL     1       6.893   6.224  17.085  0.00  0.00    +0.000 A 
ATOM     17  C   UNL     1       6.725   5.728  18.374  0.00  0.00    +0.000 A 
ATOM     18  C   UNL     1       5.877   4.634  18.599  0.00  0.00    +0.000 A 
BRANCH  16  19
ATOM     19  O   UNL     1       7.727   7.244  16.722  0.00  0.00    +0.000 OA
ATOM     20  C   UNL     1       7.864   8.300  17.663  0.00  0.00    +0.000 C 
ENDBRANCH  16  19
ENDBRANCH  12  13
ENDBRANCH   6  12
TORSDOF 5
ENDMDL
MODEL 2
REMARK VINA RESULT:      -7.1      0.211      1.087
REMARK  Name = 
REMARK  7 active torsions:
REMARK  status: ('A' for Active; 'I' for Inactive)
REMARK    1  A    between atoms: C_1  and  O_2
REMARK    2  A    between atoms: O_2  and  C_3
REMARK    3  A    between atoms: C_3  and  C_5
REMARK    4  A    between atoms: C_10  and  C_12
REMARK    5  A    between atoms: C_12  and  C_13
REMARK    6  A    between atoms: C_16  and  O_17
REMARK    7  A    between atoms: O_17  and  C_18
REMARK                            x       y       z     vdW  Elec       q    Type
REMARK                         _______ _______ _______ _____ _____    ______ ____
ROOT
ATOM      1  C   UNL     1       1.684   3.184  19.385  0.00  0.00    +0.000 C 
ATOM      2  C   UNL     1       0.859   3.703  20.569  0.00  0.00    +0.000 C 
ATOM      3  C   UNL     1       1.384   2.915  21.757  0.00  0.00    +0.000 C 
ATOM      4  C   UNL     1       2.838   2.631  21.409  0.00  0.00    +0.000 C 
ATOM      5  N   UNL     1       3.004   2.978  20.001  0.00  0.00    +0.000 N 
ATOM      6  C   UNL     1       4.177   2.562  19.381  0.00  0.00    +0.000 C 
ATOM      7  O   UNL     1       5.004   1.912  20.025  0.00  0.00    +0.000 OA
ENDROOT
BRANCH   1   8
ATOM      8  C   UNL     1       1.518   4.184  18.243  0.00  0.00    +0.000 C 
ATOM      9  O   UNL     1       1.344   3.899  17.067  0.00  0.00    +0.000 OA
BRANCH   8  11
ATOM     10  C   UNL     1       2.677   6.227  18.315  0.00  0.00    +0.000 C 
ATOM     11  O   UNL     1       1.554   5.455  18.742  0.00  0.00    +0.000 OA
ENDBRANCH   8  11
ENDBRANCH   1   8
BRANCH   6  12
ATOM     12  C   UNL     1       4.395   2.927  17.912  0.00  0.00    +0.000 C 
BRANCH  12  13
ATOM     13  C   UNL     1       5.290   4.119  17.598  0.00  0.00    +0.000 A 
ATOM     14  C   UNL     1       6.174   4.689  18.520  0.00  0.00    +0.000 A 
ATOM     15  C   UNL     1       6.948   5.804  18.180  0.00  0.00    +0.000 A 
ATOM     16  C   UNL     1       6.902   6.340  16.896  0.00  0.00    +0.000 A 
ATOM     17  C   UNL     1       6.063   5.761  15.949  0.00  0.00    +0.000 A 
ATOM     18  C   UNL     1       5.268   4.659  16.298  0.00  0.00    +0.000 A 
BRANCH  16  19
ATOM     19  O   UNL     1       7.683   7.445  16.703  0.00  0.00    +0.000 OA
ATOM     20  C   UNL     1       7.892   8.266  17.844  0.00  0.00    +0.000 C 
ENDBRANCH  16  19
ENDBRANCH  12  13
ENDBRANCH   6  12
TORSDOF 5
ENDMDL
MODEL 3
REMARK VINA RESULT:      -6.9      1.837      2.634
REMARK  Name = 
REMARK  7 active torsions:
REMARK  status: ('A' for Active; 'I' for Inactive)
REMARK    1  A    between atoms: C_1  and  O_2
REMARK    2  A    between atoms: O_2  and  C_3
REMARK    3  A    between atoms: C_3  and  C_5
REMARK    4  A    between atoms: C_10  and  C_12
REMARK    5  A    between atoms: C_12  and  C_13
REMARK    6  A    between atoms: C_16  and  O_17
REMARK    7  A    between atoms: O_17  and  C_18
REMARK                            x       y       z     vdW  Elec       q    Type
REMARK                         _______ _______ _______ _____ _____    ______ ____
ROOT
ATOM      1  C   UNL     1       2.202   4.605  19.329  0.00  0.00    +0.000 C 
ATOM      2  C   UNL     1       0.995   4.358  20.241  0.00  0.00    +0.000 C 
ATOM      3  C   UNL     1       1.150   2.910  20.673  0.00  0.00    +0.000 C 
ATOM      4  C   UNL     1       2.653   2.674  20.671  0.00  0.00    +0.000 C 
ATOM      5  N   UNL     1       3.253   3.820  19.996  0.00  0.00    +0.000 N 
ATOM      6  C   UNL     1       4.592   3.713  19.637  0.00  0.00    +0.000 C 
ATOM      7  O   UNL     1       5.202   2.670  19.880  0.00  0.00    +0.000 OA
ENDROOT
BRANCH   1   8
ATOM      8  C   UNL     1       2.355   6.117  19.176  0.00  0.00    +0.000 C 
ATOM      9  O   UNL     1       2.585   6.707  18.131  0.00  0.00    +0.000 OA
BRANCH   8  11
ATOM     10  C   UNL     1       1.698   8.070  20.306  0.00  0.00    +0.000 C 
ATOM     11  O   UNL     1       2.155   6.719  20.386  0.00  0.00    +0.000 OA
ENDBRANCH   8  11
ENDBRANCH   1   8
BRANCH   6  12
ATOM     12  C   UNL     1       5.260   4.904  18.948  0.00  0.00    +0.000 C 
BRANCH  12  13
ATOM     13  C   UNL     1       5.656   4.752  17.485  0.00  0.00    +0.000 A 
ATOM     14  C   UNL     1       4.785   4.303  16.488  0.00  0.00    +0.000 A 
ATOM     15  C   UNL     1       5.218   4.155  15.166  0.00  0.00    +0.000 A 
ATOM     16  C   UNL     1       6.514   4.507  14.796  0.00  0.00    +0.000 A 
ATOM     17  C   UNL     1       7.385   4.999  15.763  0.00  0.00    +0.000 A 
ATOM     18  C   UNL     1       6.957   5.123  17.093  0.00  0.00    +0.000 A 
BRANCH  16  19
ATOM     19  O   UNL     1       6.819   4.286  13.482  0.00  0.00    +0.000 OA
ATOM     20  C   UNL     1       5.872   3.528  12.742  0.00  0.00    +0.000 C 
ENDBRANCH  16  19
ENDBRANCH  12  13
ENDBRANCH   6  12
TORSDOF 5
ENDMDL
MODEL 4
REMARK VINA RESULT:      -6.9      1.818      2.740
REMARK  Name = 
REMARK  7 active torsions:
REMARK  status: ('A' for Active; 'I' for Inactive)
REMARK    1  A    between atoms: C_1  and  O_2
REMARK    2  A    between atoms: O_2  and  C_3
REMARK    3  A    between atoms: C_3  and  C_5
REMARK    4  A    between atoms: C_10  and  C_12
REMARK    5  A    between atoms: C_12  and  C_13
REMARK    6  A    between atoms: C_16  and  O_17
REMARK    7  A    between atoms: O_17  and  C_18
REMARK                            x       y       z     vdW  Elec       q    Type
REMARK                         _______ _______ _______ _____ _____    ______ ____
ROOT
ATOM      1  C   UNL     1       2.185   4.710  19.458  0.00  0.00    +0.000 C 
ATOM      2  C   UNL     1       0.999   4.464  20.399  0.00  0.00    +0.000 C 
ATOM      3  C   UNL     1       1.119   2.994  20.765  0.00  0.00    +0.000 C 
ATOM      4  C   UNL     1       2.612   2.710  20.703  0.00  0.00    +0.000 C 
ATOM      5  N   UNL     1       3.229   3.864  20.056  0.00  0.00    +0.000 N 
ATOM      6  C   UNL     1       4.552   3.729  19.649  0.00  0.00    +0.000 C 
ATOM      7  O   UNL     1       5.133   2.656  19.827  0.00  0.00    +0.000 OA
ENDROOT
BRANCH   1   8
ATOM      8  C   UNL     1       2.383   6.221  19.364  0.00  0.00    +0.000 C 
ATOM      9  O   UNL     1       2.418   6.995  20.309  0.00  0.00    +0.000 OA
BRANCH   8  11
ATOM     10  C   UNL     1       2.553   7.985  17.820  0.00  0.00    +0.000 C 
ATOM     11  O   UNL     1       2.558   6.576  18.056  0.00  0.00    +0.000 OA
ENDBRANCH   8  11
ENDBRANCH   1   8
BRANCH   6  12
ATOM     12  C   UNL     1       5.237   4.925  18.988  0.00  0.00    +0.000 C 
BRANCH  12  13
ATOM     13  C   UNL     1       5.694   4.778  17.542  0.00  0.00    +0.000 A 
ATOM     14  C   UNL     1       7.011   4.984  17.120  0.00  0.00    +0.000 A 
ATOM     15  C   UNL     1       7.362   4.864  15.772  0.00  0.00    +0.000 A 
ATOM     16  C   UNL     1       6.421   4.477  14.821  0.00  0.00    +0.000 A 
ATOM     17  C   UNL     1       5.114   4.222  15.225  0.00  0.00    +0.000 A 
ATOM     18  C   UNL     1       4.758   4.369  16.574  0.00  0.00    +0.000 A 
BRANCH  16  19
ATOM     19  O   UNL     1       6.886   4.426  13.536  0.00  0.00    +0.000 OA
ATOM     20  C   UNL     1       6.177   3.568  12.652  0.00  0.00    +0.000 C 
ENDBRANCH  16  19
ENDBRANCH  12  13
ENDBRANCH   6  12
TORSDOF 5
ENDMDL
MODEL 5
REMARK VINA RESULT:      -6.6      1.606      2.423
REMARK  Name = 
REMARK  7 active torsions:
REMARK  status: ('A' for Active; 'I' for Inactive)
REMARK    1  A    between atoms: C_1  and  O_2
REMARK    2  A    between atoms: O_2  and  C_3
REMARK    3  A    between atoms: C_3  and  C_5
REMARK    4  A    between atoms: C_10  and  C_12
REMARK    5  A    between atoms: C_12  and  C_13
REMARK    6  A    between atoms: C_16  and  O_17
REMARK    7  A    between atoms: O_17  and  C_18
REMARK                            x       y       z     vdW  Elec       q    Type
REMARK                         _______ _______ _______ _____ _____    ______ ____
ROOT
ATOM      1  C   UNL     1       2.242   4.461  19.194  0.00  0.00    +0.000 C 
ATOM      2  C   UNL     1       0.911   4.154  19.889  0.00  0.00    +0.000 C 
ATOM      3  C   UNL     1       0.997   2.673  20.213  0.00  0.00    +0.000 C 
ATOM      4  C   UNL     1       2.484   2.417  20.417  0.00  0.00    +0.000 C 
ATOM      5  N   UNL     1       3.179   3.608  19.941  0.00  0.00    +0.000 N 
ATOM      6  C   UNL     1       4.557   3.513  19.781  0.00  0.00    +0.000 C 
ATOM      7  O   UNL     1       5.123   2.444  20.022  0.00  0.00    +0.000 OA
ENDROOT
BRANCH   1   8
ATOM      8  C   UNL     1       2.418   5.978  19.196  0.00  0.00    +0.000 C 
ATOM      9  O   UNL     1       2.430   6.691  20.189  0.00  0.00    +0.000 OA
BRANCH   8  11
ATOM     10  C   UNL     1       3.219   7.701  17.814  0.00  0.00    +0.000 C 
ATOM     11  O   UNL     1       2.601   6.417  17.916  0.00  0.00    +0.000 OA
ENDBRANCH   8  11
ENDBRANCH   1   8
BRANCH   6  12
ATOM     12  C   UNL     1       5.323   4.749  19.304  0.00  0.00    +0.000 C 
BRANCH  12  13
ATOM     13  C   UNL     1       5.750   4.805  17.844  0.00  0.00    +0.000 A 
ATOM     14  C   UNL     1       5.150   4.051  16.830  0.00  0.00    +0.000 A 
ATOM     15  C   UNL     1       5.610   4.123  15.511  0.00  0.00    +0.000 A 
ATOM     16  C   UNL     1       6.639   4.992  15.160  0.00  0.00    +0.000 A 
ATOM     17  C   UNL     1       7.221   5.786  16.144  0.00  0.00    +0.000 A 
ATOM     18  C   UNL     1       6.777   5.694  17.472  0.00  0.00    +0.000 A 
BRANCH  16  19
ATOM     19  O   UNL     1       7.013   4.945  13.847  0.00  0.00    +0.000 OA
ATOM     20  C   UNL     1       6.424   3.911  13.069  0.00  0.00    +0.000 C 
ENDBRANCH  16  19
ENDBRANCH  12  13
ENDBRANCH   6  12
TORSDOF 5
ENDMDL
MODEL 6
REMARK VINA RESULT:      -6.6      1.859      2.559
REMARK  Name = 
REMARK  7 active torsions:
REMARK  status: ('A' for Active; 'I' for Inactive)
REMARK    1  A    between atoms: C_1  and  O_2
REMARK    2  A    between atoms: O_2  and  C_3
REMARK    3  A    between atoms: C_3  and  C_5
REMARK    4  A    between atoms: C_10  and  C_12
REMARK    5  A    between atoms: C_12  and  C_13
REMARK    6  A    between atoms: C_16  and  O_17
REMARK    7  A    between atoms: O_17  and  C_18
REMARK                            x       y       z     vdW  Elec       q    Type
REMARK                         _______ _______ _______ _____ _____    ______ ____
ROOT
ATOM      1  C   UNL     1       2.218   4.615  19.302  0.00  0.00    +0.000 C 
ATOM      2  C   UNL     1       1.010   4.378  20.216  0.00  0.00    +0.000 C 
ATOM      3  C   UNL     1       1.155   2.929  20.649  0.00  0.00    +0.000 C 
ATOM      4  C   UNL     1       2.657   2.682  20.644  0.00  0.00    +0.000 C 
ATOM      5  N   UNL     1       3.263   3.823  19.967  0.00  0.00    +0.000 N 
ATOM      6  C   UNL     1       4.601   3.706  19.606  0.00  0.00    +0.000 C 
ATOM      7  O   UNL     1       5.204   2.658  19.848  0.00  0.00    +0.000 OA
ENDROOT
BRANCH   1   8
ATOM      8  C   UNL     1       2.381   6.126  19.148  0.00  0.00    +0.000 C 
ATOM      9  O   UNL     1       2.516   6.723  18.089  0.00  0.00    +0.000 OA
BRANCH   8  11
ATOM     10  C   UNL     1       1.656   7.986  20.386  0.00  0.00    +0.000 C 
ATOM     11  O   UNL     1       2.314   6.718  20.376  0.00  0.00    +0.000 OA
ENDBRANCH   8  11
ENDBRANCH   1   8
BRANCH   6  12
ATOM     12  C   UNL     1       5.277   4.891  18.915  0.00  0.00    +0.000 C 
BRANCH  12  13
ATOM     13  C   UNL     1       5.693   4.726  17.459  0.00  0.00    +0.000 A 
ATOM     14  C   UNL     1       7.009   4.870  17.007  0.00  0.00    +0.000 A 
ATOM     15  C   UNL     1       7.323   4.737  15.651  0.00  0.00    +0.000 A 
ATOM     16  C   UNL     1       6.342   4.400  14.721  0.00  0.00    +0.000 A 
ATOM     17  C   UNL     1       5.034   4.208  15.154  0.00  0.00    +0.000 A 
ATOM     18  C   UNL     1       4.716   4.367  16.511  0.00  0.00    +0.000 A 
BRANCH  16  19
ATOM     19  O   UNL     1       6.774   4.331  13.426  0.00  0.00    +0.000 OA
ATOM     20  C   UNL     1       7.838   5.206  13.077  0.00  0.00    +0.000 C 
ENDBRANCH  16  19
ENDBRANCH  12  13
ENDBRANCH   6  12
TORSDOF 5
ENDMDL
MODEL 7
REMARK VINA RESULT:      -6.6      1.206      2.967
REMARK  Name = 
REMARK  7 active torsions:
REMARK  status: ('A' for Active; 'I' for Inactive)
REMARK    1  A    between atoms: C_1  and  O_2
REMARK    2  A    between atoms: O_2  and  C_3
REMARK    3  A    between atoms: C_3  and  C_5
REMARK    4  A    between atoms: C_10  and  C_12
REMARK    5  A    between atoms: C_12  and  C_13
REMARK    6  A    between atoms: C_16  and  O_17
REMARK    7  A    between atoms: O_17  and  C_18
REMARK                            x       y       z     vdW  Elec       q    Type
REMARK                         _______ _______ _______ _____ _____    ______ ____
ROOT
ATOM      1  C   UNL     1       3.118   3.015  20.066  0.00  0.00    +0.000 C 
ATOM      2  C   UNL     1       2.353   2.447  21.267  0.00  0.00    +0.000 C 
ATOM      3  C   UNL     1       1.145   3.359  21.398  0.00  0.00    +0.000 C 
ATOM      4  C   UNL     1       0.867   3.825  19.977  0.00  0.00    +0.000 C 
ATOM      5  N   UNL     1       2.024   3.434  19.177  0.00  0.00    +0.000 N 
ATOM      6  C   UNL     1       2.124   3.979  17.902  0.00  0.00    +0.000 C 
ATOM      7  O   UNL     1       1.262   4.770  17.512  0.00  0.00    +0.000 OA
ENDROOT
BRANCH   1   8
ATOM      8  C   UNL     1       4.109   1.945  19.611  0.00  0.00    +0.000 C 
ATOM      9  O   UNL     1       3.938   1.165  18.685  0.00  0.00    +0.000 OA
BRANCH   8  11
ATOM     10  C   UNL     1       5.442   0.901  21.239  0.00  0.00    +0.000 C 
ATOM     11  O   UNL     1       5.239   2.018  20.373  0.00  0.00    +0.000 OA
ENDBRANCH   8  11
ENDBRANCH   1   8
BRANCH   6  12
ATOM     12  C   UNL     1       3.311   3.574  17.027  0.00  0.00    +0.000 C 
BRANCH  12  13
ATOM     13  C   UNL     1       4.496   4.527  16.946  0.00  0.00    +0.000 A 
ATOM     14  C   UNL     1       4.383   5.916  17.054  0.00  0.00    +0.000 A 
ATOM     15  C   UNL     1       5.507   6.741  16.939  0.00  0.00    +0.000 A 
ATOM     16  C   UNL     1       6.778   6.198  16.773  0.00  0.00    +0.000 A 
ATOM     17  C   UNL     1       6.920   4.815  16.708  0.00  0.00    +0.000 A 
ATOM     18  C   UNL     1       5.789   3.990  16.797  0.00  0.00    +0.000 A 
BRANCH  16  19
ATOM     19  O   UNL     1       7.785   7.112  16.645  0.00  0.00    +0.000 OA
ATOM     20  C   UNL     1       7.848   8.113  17.651  0.00  0.00    +0.000 C 
ENDBRANCH  16  19
ENDBRANCH  12  13
ENDBRANCH   6  12
TORSDOF 5
ENDMDL
MODEL 8
REMARK VINA RESULT:      -6.5      1.141      2.951
REMARK  Name = 
REMARK  7 active torsions:
REMARK  status: ('A' for Active; 'I' for Inactive)
REMARK    1  A    between atoms: C_1  and  O_2
REMARK    2  A    between atoms: O_2  and  C_3
REMARK    3  A    between atoms: C_3  and  C_5
REMARK    4  A    between atoms: C_10  and  C_12
REMARK    5  A    between atoms: C_12  and  C_13
REMARK    6  A    between atoms: C_16  and  O_17
REMARK    7  A    between atoms: O_17  and  C_18
REMARK                            x       y       z     vdW  Elec       q    Type
REMARK                         _______ _______ _______ _____ _____    ______ ____
ROOT
ATOM      1  C   UNL     1       3.184   2.942  20.241  0.00  0.00    +0.000 C 
ATOM      2  C   UNL     1       2.412   2.477  21.481  0.00  0.00    +0.000 C 
ATOM      3  C   UNL     1       1.148   3.320  21.465  0.00  0.00    +0.000 C 
ATOM      4  C   UNL     1       0.893   3.590  19.989  0.00  0.00    +0.000 C 
ATOM      5  N   UNL     1       2.098   3.179  19.277  0.00  0.00    +0.000 N 
ATOM      6  C   UNL     1       2.211   3.570  17.947  0.00  0.00    +0.000 C 
ATOM      7  O   UNL     1       1.318   4.251  17.438  0.00  0.00    +0.000 OA
ENDROOT
BRANCH   1   8
ATOM      8  C   UNL     1       4.252   1.890  19.949  0.00  0.00    +0.000 C 
ATOM      9  O   UNL     1       4.251   1.118  19.001  0.00  0.00    +0.000 OA
BRANCH   8  11
ATOM     10  C   UNL     1       5.593   0.718  21.482  0.00  0.00    +0.000 C 
ATOM     11  O   UNL     1       5.237   1.969  20.892  0.00  0.00    +0.000 OA
ENDBRANCH   8  11
ENDBRANCH   1   8
BRANCH   6  12
ATOM     12  C   UNL     1       3.451   3.137  17.163  0.00  0.00    +0.000 C 
BRANCH  12  13
ATOM     13  C   UNL     1       4.581   4.146  17.000  0.00  0.00    +0.000 A 
ATOM     14  C   UNL     1       5.594   4.027  16.044  0.00  0.00    +0.000 A 
ATOM     15  C   UNL     1       6.623   4.972  15.965  0.00  0.00    +0.000 A 
ATOM     16  C   UNL     1       6.634   6.087  16.798  0.00  0.00    +0.000 A 
ATOM     17  C   UNL     1       5.611   6.249  17.727  0.00  0.00    +0.000 A 
ATOM     18  C   UNL     1       4.594   5.288  17.823  0.00  0.00    +0.000 A 
BRANCH  16  19
ATOM     19  O   UNL     1       7.709   6.916  16.640  0.00  0.00    +0.000 OA
ATOM     20  C   UNL     1       7.794   8.006  17.548  0.00  0.00    +0.000 C 
ENDBRANCH  16  19
ENDBRANCH  12  13
ENDBRANCH   6  12
TORSDOF 5
ENDMDL
MODEL 9
REMARK VINA RESULT:      -6.5      1.918      3.464
REMARK  Name = 
REMARK  7 active torsions:
REMARK  status: ('A' for Active; 'I' for Inactive)
REMARK    1  A    between atoms: C_1  and  O_2
REMARK    2  A    between atoms: O_2  and  C_3
REMARK    3  A    between atoms: C_3  and  C_5
REMARK    4  A    between atoms: C_10  and  C_12
REMARK    5  A    between atoms: C_12  and  C_13
REMARK    6  A    between atoms: C_16  and  O_17
REMARK    7  A    between atoms: O_17  and  C_18
REMARK                            x       y       z     vdW  Elec       q    Type
REMARK                         _______ _______ _______ _____ _____    ______ ____
ROOT
ATOM      1  C   UNL     1       3.143   3.240  20.526  0.00  0.00    +0.000 C 
ATOM      2  C   UNL     1       1.870   2.396  20.397  0.00  0.00    +0.000 C 
ATOM      3  C   UNL     1       0.743   3.404  20.543  0.00  0.00    +0.000 C 
ATOM      4  C   UNL     1       1.322   4.699  19.992  0.00  0.00    +0.000 C 
ATOM      5  N   UNL     1       2.756   4.481  19.837  0.00  0.00    +0.000 N 
ATOM      6  C   UNL     1       3.543   5.602  19.596  0.00  0.00    +0.000 C 
ATOM      7  O   UNL     1       3.014   6.714  19.544  0.00  0.00    +0.000 OA
ENDROOT
BRANCH   1   8
ATOM      8  C   UNL     1       4.302   2.399  19.995  0.00  0.00    +0.000 C 
ATOM      9  O   UNL     1       5.130   1.816  20.680  0.00  0.00    +0.000 OA
BRANCH   8  11
ATOM     10  C   UNL     1       3.872   1.096  18.087  0.00  0.00    +0.000 C 
ATOM     11  O   UNL     1       4.250   2.362  18.631  0.00  0.00    +0.000 OA
ENDBRANCH   8  11
ENDBRANCH   1   8
BRANCH   6  12
ATOM     12  C   UNL     1       5.048   5.409  19.407  0.00  0.00    +0.000 C 
BRANCH  12  13
ATOM     13  C   UNL     1       5.582   5.304  17.985  0.00  0.00    +0.000 A 
ATOM     14  C   UNL     1       6.775   4.657  17.649  0.00  0.00    +0.000 A 
ATOM     15  C   UNL     1       7.228   4.622  16.326  0.00  0.00    +0.000 A 
ATOM     16  C   UNL     1       6.473   5.181  15.298  0.00  0.00    +0.000 A 
ATOM     17  C   UNL     1       5.260   5.790  15.603  0.00  0.00    +0.000 A 
ATOM     18  C   UNL     1       4.820   5.847  16.933  0.00  0.00    +0.000 A 
BRANCH  16  19
ATOM     19  O   UNL     1       7.042   5.105  14.058  0.00  0.00    +0.000 OA
ATOM     20  C   UNL     1       6.568   4.061  13.219  0.00  0.00    +0.000 C 
ENDBRANCH  16  19
ENDBRANCH  12  13
ENDBRANCH   6  12
TORSDOF 5
ENDMDL
