MODEL 1
REMARK VINA RESULT:      -8.7      0.000      0.000
REMARK  Name = 
REMARK  9 active torsions:
REMARK  status: ('A' for Active; 'I' for Inactive)
REMARK    1  A    between atoms: C_1  and  C_2
REMARK    2  A    between atoms: C_2  and  C_3
REMARK    3  A    between atoms: C_2  and  N_4
REMARK    4  A    between atoms: C_5  and  C_7
REMARK    5  A    between atoms: C_11  and  C_12
REMARK    6  A    between atoms: C_14  and  C_15
REMARK    7  A    between atoms: N_18  and  C_19
REMARK    8  A    between atoms: C_28  and  N_29
REMARK    9  A    between atoms: C_33  and  O_34
REMARK                            x       y       z     vdW  Elec       q    Type
REMARK                         _______ _______ _______ _____ _____    ______ ____
ROOT
ATOM      1  C   UNL     1       0.032  11.605  19.790  0.00  0.00    +0.000 A 
ATOM      2  C   UNL     1      -1.318  11.574  20.183  0.00  0.00    +0.000 A 
ATOM      3  C   UNL     1      -2.042  12.755  20.354  0.00  0.00    +0.000 A 
ATOM      4  C   UNL     1      -1.353  13.939  20.126  0.00  0.00    +0.000 A 
ATOM      5  N   UNL     1      -0.047  14.012  19.755  0.00  0.00    +0.000 NA
ATOM      6  C   UNL     1       0.625  12.855  19.586  0.00  0.00    +0.000 A 
ENDROOT
BRANCH   1  11
ATOM      7  C   UNL     1       2.835   6.522  18.624  0.00  0.00    +0.000 A 
ATOM      8  C   UNL     1       2.472   7.741  18.020  0.00  0.00    +0.000 A 
ATOM      9  C   UNL     1       1.756   8.672  18.774  0.00  0.00    +0.000 A 
ATOM     10  N   UNL     1       1.255   9.900  18.436  0.00  0.00    +0.000 NA
ATOM     11  C   UNL     1       0.723  10.344  19.558  0.00  0.00    +0.000 A 
ATOM     12  O   UNL     1       0.781   9.455  20.609  0.00  0.00    +0.000 OA
ATOM     13  C   UNL     1       1.453   8.384  20.093  0.00  0.00    +0.000 A 
ATOM     14  C   UNL     1       1.787   7.200  20.743  0.00  0.00    +0.000 A 
ATOM     15  C   UNL     1       2.485   6.261  19.965  0.00  0.00    +0.000 A 
BRANCH   7  17
ATOM     16  N   UNL     1       4.863   5.928  17.399  0.00  0.00    +0.000 N 
ATOM     17  C   UNL     1       3.583   5.570  17.752  0.00  0.00    +0.000 C 
ATOM     18  O   UNL     1       3.064   4.507  17.427  0.00  0.00    +0.000 OA
ATOM     19  H   UNL     1       5.129   6.897  17.553  0.00  0.00    +0.000 HD
BRANCH  16  21
ATOM     20  C   UNL     1       5.637   5.576  15.105  0.00  0.00    +0.000 C 
ATOM     21  C   UNL     1       5.691   5.092  16.549  0.00  0.00    +0.000 C 
ATOM     22  C   UNL     1       7.124   5.075  17.071  0.00  0.00    +0.000 C 
ENDBRANCH  16  21
ENDBRANCH   7  17
BRANCH  15  23
ATOM     23  O   UNL     1       2.831   5.066  20.547  0.00  0.00    +0.000 OA
ATOM     24  H   UNL     1       2.649   4.341  19.924  0.00  0.00    +0.000 HD
ENDBRANCH  15  23
ENDBRANCH   1  11
BRANCH   3  25
ATOM     25  C   UNL     1      -3.448  12.720  20.716  0.00  0.00    +0.000 A 
ATOM     26  C   UNL     1      -4.079  12.683  21.981  0.00  0.00    +0.000 A 
ATOM     27  N   UNL     1      -5.407  12.564  21.897  0.00  0.00    +0.000 NA
ATOM     28  N   UNL     1      -5.636  12.465  20.576  0.00  0.00    +0.000 N 
ATOM     29  C   UNL     1      -4.497  12.622  19.825  0.00  0.00    +0.000 A 
BRANCH  28  30
ATOM     30  C   UNL     1      -6.949  12.081  20.060  0.00  0.00    +0.000 C 
ATOM     31  C   UNL     1      -7.716  11.145  21.003  0.00  0.00    +0.000 C 
ATOM     32  C   UNL     1      -7.417   9.672  20.755  0.00  0.00    +0.000 C 
ATOM     33  N   UNL     1      -7.629   9.318  19.353  0.00  0.00    +0.000 NA
ATOM     34  C   UNL     1      -6.696  10.056  18.503  0.00  0.00    +0.000 C 
ATOM     35  C   UNL     1      -6.906  11.565  18.610  0.00  0.00    +0.000 C 
ATOM     36  H   UNL     1      -8.589   9.528  19.078  0.00  0.00    +0.000 HD
ENDBRANCH  28  30
ENDBRANCH   3  25
BRANCH   6  37
ATOM     37  N   UNL     1       1.920  13.005  19.093  0.00  0.00    +0.000 N 
ATOM     38  H   UNL     1       2.310  12.079  18.945  0.00  0.00    +0.000 HD
ATOM     39  H   UNL     1       1.954  13.592  18.267  0.00  0.00    +0.000 HD
ENDBRANCH   6  37
TORSDOF 7
ENDMDL
MODEL 2
REMARK VINA RESULT:      -8.6      1.621      2.156
REMARK  Name = 
REMARK  9 active torsions:
REMARK  status: ('A' for Active; 'I' for Inactive)
REMARK    1  A    between atoms: C_1  and  C_2
REMARK    2  A    between atoms: C_2  and  C_3
REMARK    3  A    between atoms: C_2  and  N_4
REMARK    4  A    between atoms: C_5  and  C_7
REMARK    5  A    between atoms: C_11  and  C_12
REMARK    6  A    between atoms: C_14  and  C_15
REMARK    7  A    between atoms: N_18  and  C_19
REMARK    8  A    between atoms: C_28  and  N_29
REMARK    9  A    between atoms: C_33  and  O_34
REMARK                            x       y       z     vdW  Elec       q    Type
REMARK                         _______ _______ _______ _____ _____    ______ ____
ROOT
ATOM      1  C   UNL     1       0.728  10.759  18.551  0.00  0.00    +0.000 A 
ATOM      2  C   UNL     1      -0.672  10.644  18.627  0.00  0.00    +0.000 A 
ATOM      3  C   UNL     1      -1.485  11.779  18.627  0.00  0.00    +0.000 A 
ATOM      4  C   UNL     1      -0.834  13.004  18.560  0.00  0.00    +0.000 A 
ATOM      5  N   UNL     1       0.515  13.158  18.496  0.00  0.00    +0.000 NA
ATOM      6  C   UNL     1       1.276  12.044  18.486  0.00  0.00    +0.000 A 
ENDROOT
BRANCH   1  11
ATOM      7  C   UNL     1       4.027   5.867  18.064  0.00  0.00    +0.000 A 
ATOM      8  C   UNL     1       3.756   7.081  17.404  0.00  0.00    +0.000 A 
ATOM      9  C   UNL     1       2.820   7.952  17.966  0.00  0.00    +0.000 A 
ATOM     10  N   UNL     1       2.349   9.159  17.528  0.00  0.00    +0.000 NA
ATOM     11  C   UNL     1       1.528   9.544  18.485  0.00  0.00    +0.000 A 
ATOM     12  O   UNL     1       1.374   8.632  19.506  0.00  0.00    +0.000 OA
ATOM     13  C   UNL     1       2.215   7.613  19.162  0.00  0.00    +0.000 A 
ATOM     14  C   UNL     1       2.444   6.431  19.861  0.00  0.00    +0.000 A 
ATOM     15  C   UNL     1       3.369   5.552  19.272  0.00  0.00    +0.000 A 
BRANCH   7  17
ATOM     16  N   UNL     1       5.115   5.071  16.028  0.00  0.00    +0.000 N 
ATOM     17  C   UNL     1       5.024   4.980  17.397  0.00  0.00    +0.000 C 
ATOM     18  O   UNL     1       5.743   4.254  18.076  0.00  0.00    +0.000 OA
ATOM     19  H   UNL     1       4.358   5.550  15.547  0.00  0.00    +0.000 HD
BRANCH  16  21
ATOM     20  C   UNL     1       5.479   3.973  13.871  0.00  0.00    +0.000 C 
ATOM     21  C   UNL     1       6.040   4.256  15.260  0.00  0.00    +0.000 C 
ATOM     22  C   UNL     1       7.397   4.946  15.176  0.00  0.00    +0.000 C 
ENDBRANCH  16  21
ENDBRANCH   7  17
BRANCH  15  23
ATOM     23  O   UNL     1       3.627   4.362  19.907  0.00  0.00    +0.000 OA
ATOM     24  H   UNL     1       2.919   4.180  20.548  0.00  0.00    +0.000 HD
ENDBRANCH  15  23
ENDBRANCH   1  11
BRANCH   3  25
ATOM     25  C   UNL     1      -2.931  11.657  18.658  0.00  0.00    +0.000 A 
ATOM     26  C   UNL     1      -3.819  10.926  17.834  0.00  0.00    +0.000 A 
ATOM     27  N   UNL     1      -5.103  11.146  18.128  0.00  0.00    +0.000 NA
ATOM     28  N   UNL     1      -5.054  12.064  19.108  0.00  0.00    +0.000 N 
ATOM     29  C   UNL     1      -3.771  12.351  19.505  0.00  0.00    +0.000 A 
BRANCH  28  30
ATOM     30  C   UNL     1      -6.259  12.760  19.557  0.00  0.00    +0.000 C 
ATOM     31  C   UNL     1      -6.047  13.553  20.853  0.00  0.00    +0.000 C 
ATOM     32  C   UNL     1      -6.308  12.727  22.107  0.00  0.00    +0.000 C 
ATOM     33  N   UNL     1      -7.629  12.104  22.065  0.00  0.00    +0.000 NA
ATOM     34  C   UNL     1      -7.702  11.159  20.950  0.00  0.00    +0.000 C 
ATOM     35  C   UNL     1      -7.503  11.854  19.605  0.00  0.00    +0.000 C 
ATOM     36  H   UNL     1      -8.351  12.816  21.962  0.00  0.00    +0.000 HD
ENDBRANCH  28  30
ENDBRANCH   3  25
BRANCH   6  37
ATOM     37  N   UNL     1       2.638  12.276  18.301  0.00  0.00    +0.000 N 
ATOM     38  H   UNL     1       2.820  12.305  17.302  0.00  0.00    +0.000 HD
ATOM     39  H   UNL     1       2.960  13.102  18.793  0.00  0.00    +0.000 HD
ENDBRANCH   6  37
TORSDOF 7
ENDMDL
MODEL 3
REMARK VINA RESULT:      -8.6      1.797      2.577
REMARK  Name = 
REMARK  9 active torsions:
REMARK  status: ('A' for Active; 'I' for Inactive)
REMARK    1  A    between atoms: C_1  and  C_2
REMARK    2  A    between atoms: C_2  and  C_3
REMARK    3  A    between atoms: C_2  and  N_4
REMARK    4  A    between atoms: C_5  and  C_7
REMARK    5  A    between atoms: C_11  and  C_12
REMARK    6  A    between atoms: C_14  and  C_15
REMARK    7  A    between atoms: N_18  and  C_19
REMARK    8  A    between atoms: C_28  and  N_29
REMARK    9  A    between atoms: C_33  and  O_34
REMARK                            x       y       z     vdW  Elec       q    Type
REMARK                         _______ _______ _______ _____ _____    ______ ____
ROOT
ATOM      1  C   UNL     1      -0.163  11.647  20.626  0.00  0.00    +0.000 A 
ATOM      2  C   UNL     1      -1.554  11.607  20.837  0.00  0.00    +0.000 A 
ATOM      3  C   UNL     1      -2.268  12.769  21.131  0.00  0.00    +0.000 A 
ATOM      4  C   UNL     1      -1.529  13.943  21.211  0.00  0.00    +0.000 A 
ATOM      5  N   UNL     1      -0.185  14.023  21.024  0.00  0.00    +0.000 NA
ATOM      6  C   UNL     1       0.478  12.886  20.731  0.00  0.00    +0.000 A 
ENDROOT
BRANCH   1  11
ATOM      7  C   UNL     1       2.619   6.584  19.334  0.00  0.00    +0.000 A 
ATOM      8  C   UNL     1       1.844   7.186  20.343  0.00  0.00    +0.000 A 
ATOM      9  C   UNL     1       1.408   8.499  20.156  0.00  0.00    +0.000 A 
ATOM     10  N   UNL     1       0.683   9.324  20.972  0.00  0.00    +0.000 NA
ATOM     11  C   UNL     1       0.525  10.419  20.255  0.00  0.00    +0.000 A 
ATOM     12  O   UNL     1       1.161  10.397  19.032  0.00  0.00    +0.000 OA
ATOM     13  C   UNL     1       1.721   9.153  18.979  0.00  0.00    +0.000 A 
ATOM     14  C   UNL     1       2.479   8.610  17.947  0.00  0.00    +0.000 A 
ATOM     15  C   UNL     1       2.934   7.297  18.159  0.00  0.00    +0.000 A 
BRANCH   7  17
ATOM     16  N   UNL     1       2.107   4.312  20.069  0.00  0.00    +0.000 N 
ATOM     17  C   UNL     1       3.063   5.187  19.611  0.00  0.00    +0.000 C 
ATOM     18  O   UNL     1       4.224   4.861  19.383  0.00  0.00    +0.000 OA
ATOM     19  H   UNL     1       1.236   4.715  20.405  0.00  0.00    +0.000 HD
BRANCH  16  21
ATOM     20  C   UNL     1       1.741   2.511  21.686  0.00  0.00    +0.000 C 
ATOM     21  C   UNL     1       2.414   2.927  20.383  0.00  0.00    +0.000 C 
ATOM     22  C   UNL     1       1.988   2.024  19.231  0.00  0.00    +0.000 C 
ENDBRANCH  16  21
ENDBRANCH   7  17
BRANCH  15  23
ATOM     23  O   UNL     1       3.700   6.710  17.181  0.00  0.00    +0.000 OA
ATOM     24  H   UNL     1       3.590   7.202  16.349  0.00  0.00    +0.000 HD
ENDBRANCH  15  23
ENDBRANCH   1  11
BRANCH   3  25
ATOM     25  C   UNL     1      -3.709  12.733  21.303  0.00  0.00    +0.000 A 
ATOM     26  C   UNL     1      -4.503  12.727  22.473  0.00  0.00    +0.000 A 
ATOM     27  N   UNL     1      -5.808  12.595  22.217  0.00  0.00    +0.000 NA
ATOM     28  N   UNL     1      -5.858  12.457  20.881  0.00  0.00    +0.000 N 
ATOM     29  C   UNL     1      -4.630  12.602  20.284  0.00  0.00    +0.000 A 
BRANCH  28  30
ATOM     30  C   UNL     1      -7.089  12.047  20.206  0.00  0.00    +0.000 C 
ATOM     31  C   UNL     1      -7.916  11.046  21.021  0.00  0.00    +0.000 C 
ATOM     32  C   UNL     1      -7.532   9.596  20.751  0.00  0.00    +0.000 C 
ATOM     33  N   UNL     1      -7.573   9.294  19.322  0.00  0.00    +0.000 NA
ATOM     34  C   UNL     1      -6.582  10.102  18.611  0.00  0.00    +0.000 C 
ATOM     35  C   UNL     1      -6.864  11.596  18.752  0.00  0.00    +0.000 C 
ATOM     36  H   UNL     1      -8.504   9.481  18.949  0.00  0.00    +0.000 HD
ENDBRANCH  28  30
ENDBRANCH   3  25
BRANCH   6  37
ATOM     37  N   UNL     1       1.829  13.064  20.438  0.00  0.00    +0.000 N 
ATOM     38  H   UNL     1       1.910  13.297  19.452  0.00  0.00    +0.000 HD
ATOM     39  H   UNL     1       2.271  13.741  21.049  0.00  0.00    +0.000 HD
ENDBRANCH   6  37
TORSDOF 7
ENDMDL
MODEL 4
REMARK VINA RESULT:      -8.6      1.980      2.671
REMARK  Name = 
REMARK  9 active torsions:
REMARK  status: ('A' for Active; 'I' for Inactive)
REMARK    1  A    between atoms: C_1  and  C_2
REMARK    2  A    between atoms: C_2  and  C_3
REMARK    3  A    between atoms: C_2  and  N_4
REMARK    4  A    between atoms: C_5  and  C_7
REMARK    5  A    between atoms: C_11  and  C_12
REMARK    6  A    between atoms: C_14  and  C_15
REMARK    7  A    between atoms: N_18  and  C_19
REMARK    8  A    between atoms: C_28  and  N_29
REMARK    9  A    between atoms: C_33  and  O_34
REMARK                            x       y       z     vdW  Elec       q    Type
REMARK                         _______ _______ _______ _____ _____    ______ ____
ROOT
ATOM      1  C   UNL     1       0.622  11.418  19.172  0.00  0.00    +0.000 A 
ATOM      2  C   UNL     1      -0.542  11.546  19.952  0.00  0.00    +0.000 A 
ATOM      3  C   UNL     1      -1.192  12.775  20.072  0.00  0.00    +0.000 A 
ATOM      4  C   UNL     1      -0.620  13.845  19.394  0.00  0.00    +0.000 A 
ATOM      5  N   UNL     1       0.508  13.765  18.640  0.00  0.00    +0.000 NA
ATOM      6  C   UNL     1       1.109  12.562  18.533  0.00  0.00    +0.000 A 
ENDROOT
BRANCH   1  11
ATOM      7  C   UNL     1       3.077   6.095  18.341  0.00  0.00    +0.000 A 
ATOM      8  C   UNL     1       2.849   7.317  17.679  0.00  0.00    +0.000 A 
ATOM      9  C   UNL     1       2.165   8.327  18.358  0.00  0.00    +0.000 A 
ATOM     10  N   UNL     1       1.784   9.576  17.951  0.00  0.00    +0.000 NA
ATOM     11  C   UNL     1       1.223  10.100  19.024  0.00  0.00    +0.000 A 
ATOM     12  O   UNL     1       1.149   9.248  20.104  0.00  0.00    +0.000 OA
ATOM     13  C   UNL     1       1.763   8.110  19.663  0.00  0.00    +0.000 A 
ATOM     14  C   UNL     1       1.962   6.928  20.369  0.00  0.00    +0.000 A 
ATOM     15  C   UNL     1       2.629   5.911  19.666  0.00  0.00    +0.000 A 
BRANCH   7  17
ATOM     16  N   UNL     1       5.035   5.402  17.057  0.00  0.00    +0.000 N 
ATOM     17  C   UNL     1       3.797   5.058  17.548  0.00  0.00    +0.000 C 
ATOM     18  O   UNL     1       3.298   3.946  17.404  0.00  0.00    +0.000 OA
ATOM     19  H   UNL     1       5.275   6.390  17.063  0.00  0.00    +0.000 HD
BRANCH  16  21
ATOM     20  C   UNL     1       5.688   4.794  14.778  0.00  0.00    +0.000 C 
ATOM     21  C   UNL     1       5.833   4.484  16.263  0.00  0.00    +0.000 C 
ATOM     22  C   UNL     1       7.292   4.550  16.699  0.00  0.00    +0.000 C 
ENDBRANCH  16  21
ENDBRANCH   7  17
BRANCH  15  23
ATOM     23  O   UNL     1       2.843   4.714  20.305  0.00  0.00    +0.000 OA
ATOM     24  H   UNL     1       1.995   4.248  20.407  0.00  0.00    +0.000 HD
ENDBRANCH  15  23
ENDBRANCH   1  11
BRANCH   3  25
ATOM     25  C   UNL     1      -2.419  12.896  20.839  0.00  0.00    +0.000 A 
ATOM     26  C   UNL     1      -3.759  13.078  20.423  0.00  0.00    +0.000 A 
ATOM     27  N   UNL     1      -4.604  13.237  21.445  0.00  0.00    +0.000 NA
ATOM     28  N   UNL     1      -3.807  13.216  22.526  0.00  0.00    +0.000 N 
ATOM     29  C   UNL     1      -2.496  12.946  22.216  0.00  0.00    +0.000 A 
BRANCH  28  30
ATOM     30  C   UNL     1      -4.307  13.597  23.846  0.00  0.00    +0.000 C 
ATOM     31  C   UNL     1      -5.151  12.501  24.508  0.00  0.00    +0.000 C 
ATOM     32  C   UNL     1      -6.630  12.590  24.152  0.00  0.00    +0.000 C 
ATOM     33  N   UNL     1      -7.162  13.922  24.429  0.00  0.00    +0.000 NA
ATOM     34  C   UNL     1      -6.494  14.913  23.585  0.00  0.00    +0.000 C 
ATOM     35  C   UNL     1      -4.994  14.974  23.863  0.00  0.00    +0.000 C 
ATOM     36  H   UNL     1      -7.027  14.158  25.412  0.00  0.00    +0.000 HD
ENDBRANCH  28  30
ENDBRANCH   3  25
BRANCH   6  37
ATOM     37  N   UNL     1       2.189  12.532  17.651  0.00  0.00    +0.000 N 
ATOM     38  H   UNL     1       2.446  11.561  17.501  0.00  0.00    +0.000 HD
ATOM     39  H   UNL     1       2.001  13.036  16.792  0.00  0.00    +0.000 HD
ENDBRANCH   6  37
TORSDOF 7
ENDMDL
MODEL 5
REMARK VINA RESULT:      -8.5      1.831      3.058
REMARK  Name = 
REMARK  9 active torsions:
REMARK  status: ('A' for Active; 'I' for Inactive)
REMARK    1  A    between atoms: C_1  and  C_2
REMARK    2  A    between atoms: C_2  and  C_3
REMARK    3  A    between atoms: C_2  and  N_4
REMARK    4  A    between atoms: C_5  and  C_7
REMARK    5  A    between atoms: C_11  and  C_12
REMARK    6  A    between atoms: C_14  and  C_15
REMARK    7  A    between atoms: N_18  and  C_19
REMARK    8  A    between atoms: C_28  and  N_29
REMARK    9  A    between atoms: C_33  and  O_34
REMARK                            x       y       z     vdW  Elec       q    Type
REMARK                         _______ _______ _______ _____ _____    ______ ____
ROOT
ATOM      1  C   UNL     1       0.525  11.274  19.085  0.00  0.00    +0.000 A 
ATOM      2  C   UNL     1      -0.718  11.317  19.743  0.00  0.00    +0.000 A 
ATOM      3  C   UNL     1      -1.433  12.511  19.846  0.00  0.00    +0.000 A 
ATOM      4  C   UNL     1      -0.844  13.634  19.279  0.00  0.00    +0.000 A 
ATOM      5  N   UNL     1       0.358  13.636  18.644  0.00  0.00    +0.000 NA
ATOM      6  C   UNL     1       1.022  12.465  18.549  0.00  0.00    +0.000 A 
ENDROOT
BRANCH   1  11
ATOM      7  C   UNL     1       3.282   6.096  18.287  0.00  0.00    +0.000 A 
ATOM      8  C   UNL     1       3.026   7.317  17.635  0.00  0.00    +0.000 A 
ATOM      9  C   UNL     1       2.259   8.279  18.296  0.00  0.00    +0.000 A 
ATOM     10  N   UNL     1       1.837   9.516  17.892  0.00  0.00    +0.000 NA
ATOM     11  C   UNL     1       1.198   9.990  18.944  0.00  0.00    +0.000 A 
ATOM     12  O   UNL     1       1.113   9.114  20.004  0.00  0.00    +0.000 OA
ATOM     13  C   UNL     1       1.805   8.017  19.575  0.00  0.00    +0.000 A 
ATOM     14  C   UNL     1       2.028   6.832  20.270  0.00  0.00    +0.000 A 
ATOM     15  C   UNL     1       2.779   5.863  19.583  0.00  0.00    +0.000 A 
BRANCH   7  17
ATOM     16  N   UNL     1       5.418   5.418  17.317  0.00  0.00    +0.000 N 
ATOM     17  C   UNL     1       4.092   5.111  17.513  0.00  0.00    +0.000 C 
ATOM     18  O   UNL     1       3.576   4.066  17.129  0.00  0.00    +0.000 OA
ATOM     19  H   UNL     1       5.702   6.377  17.500  0.00  0.00    +0.000 HD
BRANCH  16  21
ATOM     20  C   UNL     1       6.379   4.969  15.111  0.00  0.00    +0.000 C 
ATOM     21  C   UNL     1       6.311   4.545  16.573  0.00  0.00    +0.000 C 
ATOM     22  C   UNL     1       7.695   4.548  17.212  0.00  0.00    +0.000 C 
ENDBRANCH  16  21
ENDBRANCH   7  17
BRANCH  15  23
ATOM     23  O   UNL     1       3.021   4.666  20.212  0.00  0.00    +0.000 OA
ATOM     24  H   UNL     1       2.281   4.461  20.810  0.00  0.00    +0.000 HD
ENDBRANCH  15  23
ENDBRANCH   1  11
BRANCH   3  25
ATOM     25  C   UNL     1      -2.736  12.545  20.486  0.00  0.00    +0.000 A 
ATOM     26  C   UNL     1      -4.038  12.574  19.935  0.00  0.00    +0.000 A 
ATOM     27  N   UNL     1      -4.993  12.696  20.861  0.00  0.00    +0.000 NA
ATOM     28  N   UNL     1      -4.309  12.803  22.013  0.00  0.00    +0.000 N 
ATOM     29  C   UNL     1      -2.954  12.650  21.844  0.00  0.00    +0.000 A 
BRANCH  28  30
ATOM     30  C   UNL     1      -4.972  13.192  23.256  0.00  0.00    +0.000 C 
ATOM     31  C   UNL     1      -5.594  14.592  23.193  0.00  0.00    +0.000 C 
ATOM     32  C   UNL     1      -4.627  15.694  23.608  0.00  0.00    +0.000 C 
ATOM     33  N   UNL     1      -4.044  15.421  24.920  0.00  0.00    +0.000 NA
ATOM     34  C   UNL     1      -3.246  14.196  24.868  0.00  0.00    +0.000 C 
ATOM     35  C   UNL     1      -4.096  12.981  24.505  0.00  0.00    +0.000 C 
ATOM     36  H   UNL     1      -4.781  15.325  25.619  0.00  0.00    +0.000 HD
ENDBRANCH  28  30
ENDBRANCH   3  25
BRANCH   6  37
ATOM     37  N   UNL     1       2.187  12.522  17.785  0.00  0.00    +0.000 N 
ATOM     38  H   UNL     1       1.943  12.876  16.865  0.00  0.00    +0.000 HD
ATOM     39  H   UNL     1       2.922  13.053  18.239  0.00  0.00    +0.000 HD
ENDBRANCH   6  37
TORSDOF 7
ENDMDL
MODEL 6
REMARK VINA RESULT:      -8.5      1.133      1.440
REMARK  Name = 
REMARK  9 active torsions:
REMARK  status: ('A' for Active; 'I' for Inactive)
REMARK    1  A    between atoms: C_1  and  C_2
REMARK    2  A    between atoms: C_2  and  C_3
REMARK    3  A    between atoms: C_2  and  N_4
REMARK    4  A    between atoms: C_5  and  C_7
REMARK    5  A    between atoms: C_11  and  C_12
REMARK    6  A    between atoms: C_14  and  C_15
REMARK    7  A    between atoms: N_18  and  C_19
REMARK    8  A    between atoms: C_28  and  N_29
REMARK    9  A    between atoms: C_33  and  O_34
REMARK                            x       y       z     vdW  Elec       q    Type
REMARK                         _______ _______ _______ _____ _____    ______ ____
ROOT
ATOM      1  C   UNL     1       0.517  11.215  19.173  0.00  0.00    +0.000 A 
ATOM      2  C   UNL     1      -0.707  11.301  19.861  0.00  0.00    +0.000 A 
ATOM      3  C   UNL     1      -1.395  12.512  19.948  0.00  0.00    +0.000 A 
ATOM      4  C   UNL     1      -0.799  13.607  19.335  0.00  0.00    +0.000 A 
ATOM      5  N   UNL     1       0.387  13.567  18.670  0.00  0.00    +0.000 NA
ATOM      6  C   UNL     1       1.024  12.381  18.592  0.00  0.00    +0.000 A 
ENDROOT
BRANCH   1  11
ATOM      7  C   UNL     1       3.149   5.961  18.450  0.00  0.00    +0.000 A 
ATOM      8  C   UNL     1       2.895   7.166  17.770  0.00  0.00    +0.000 A 
ATOM      9  C   UNL     1       2.168   8.163  18.424  0.00  0.00    +0.000 A 
ATOM     10  N   UNL     1       1.757   9.395  17.995  0.00  0.00    +0.000 NA
ATOM     11  C   UNL     1       1.161   9.914  19.051  0.00  0.00    +0.000 A 
ATOM     12  O   UNL     1       1.093   9.072  20.140  0.00  0.00    +0.000 OA
ATOM     13  C   UNL     1       1.750   7.949  19.724  0.00  0.00    +0.000 A 
ATOM     14  C   UNL     1       1.972   6.782  20.448  0.00  0.00    +0.000 A 
ATOM     15  C   UNL     1       2.682   5.778  19.769  0.00  0.00    +0.000 A 
BRANCH   7  17
ATOM     16  N   UNL     1       5.016   5.379  16.988  0.00  0.00    +0.000 N 
ATOM     17  C   UNL     1       3.915   4.937  17.683  0.00  0.00    +0.000 C 
ATOM     18  O   UNL     1       3.576   3.758  17.734  0.00  0.00    +0.000 OA
ATOM     19  H   UNL     1       5.102   6.383  16.852  0.00  0.00    +0.000 HD
BRANCH  16  21
ATOM     20  C   UNL     1       5.725   4.819  14.713  0.00  0.00    +0.000 C 
ATOM     21  C   UNL     1       5.840   4.483  16.196  0.00  0.00    +0.000 C 
ATOM     22  C   UNL     1       7.289   4.555  16.666  0.00  0.00    +0.000 C 
ENDBRANCH  16  21
ENDBRANCH   7  17
BRANCH  15  23
ATOM     23  O   UNL     1       2.921   4.595  20.426  0.00  0.00    +0.000 OA
ATOM     24  H   UNL     1       2.076   4.215  20.720  0.00  0.00    +0.000 HD
ENDBRANCH  15  23
ENDBRANCH   1  11
BRANCH   3  25
ATOM     25  C   UNL     1      -2.681  12.590  20.619  0.00  0.00    +0.000 A 
ATOM     26  C   UNL     1      -3.014  12.549  21.993  0.00  0.00    +0.000 A 
ATOM     27  N   UNL     1      -4.332  12.558  22.209  0.00  0.00    +0.000 NA
ATOM     28  N   UNL     1      -4.859  12.548  20.973  0.00  0.00    +0.000 N 
ATOM     29  C   UNL     1      -3.907  12.635  19.987  0.00  0.00    +0.000 A 
BRANCH  28  30
ATOM     30  C   UNL     1      -6.286  12.314  20.758  0.00  0.00    +0.000 C 
ATOM     31  C   UNL     1      -6.567  11.175  19.770  0.00  0.00    +0.000 C 
ATOM     32  C   UNL     1      -6.638  11.646  18.322  0.00  0.00    +0.000 C 
ATOM     33  N   UNL     1      -7.593  12.742  18.168  0.00  0.00    +0.000 NA
ATOM     34  C   UNL     1      -7.149  13.904  18.938  0.00  0.00    +0.000 C 
ATOM     35  C   UNL     1      -7.071  13.597  20.432  0.00  0.00    +0.000 C 
ATOM     36  H   UNL     1      -8.517  12.450  18.484  0.00  0.00    +0.000 HD
ENDBRANCH  28  30
ENDBRANCH   3  25
BRANCH   6  37
ATOM     37  N   UNL     1       2.170  12.392  17.798  0.00  0.00    +0.000 N 
ATOM     38  H   UNL     1       2.919  11.945  18.318  0.00  0.00    +0.000 HD
ATOM     39  H   UNL     1       2.013  11.980  16.885  0.00  0.00    +0.000 HD
ENDBRANCH   6  37
TORSDOF 7
ENDMDL
MODEL 7
REMARK VINA RESULT:      -8.4      1.818      2.774
REMARK  Name = 
REMARK  9 active torsions:
REMARK  status: ('A' for Active; 'I' for Inactive)
REMARK    1  A    between atoms: C_1  and  C_2
REMARK    2  A    between atoms: C_2  and  C_3
REMARK    3  A    between atoms: C_2  and  N_4
REMARK    4  A    between atoms: C_5  and  C_7
REMARK    5  A    between atoms: C_11  and  C_12
REMARK    6  A    between atoms: C_14  and  C_15
REMARK    7  A    between atoms: N_18  and  C_19
REMARK    8  A    between atoms: C_28  and  N_29
REMARK    9  A    between atoms: C_33  and  O_34
REMARK                            x       y       z     vdW  Elec       q    Type
REMARK                         _______ _______ _______ _____ _____    ______ ____
ROOT
ATOM      1  C   UNL     1       0.775  11.042  18.775  0.00  0.00    +0.000 A 
ATOM      2  C   UNL     1      -0.556  11.126  19.226  0.00  0.00    +0.000 A 
ATOM      3  C   UNL     1      -1.232  12.347  19.239  0.00  0.00    +0.000 A 
ATOM      4  C   UNL     1      -0.517  13.453  18.798  0.00  0.00    +0.000 A 
ATOM      5  N   UNL     1       0.771  13.416  18.364  0.00  0.00    +0.000 NA
ATOM      6  C   UNL     1       1.396  12.221  18.352  0.00  0.00    +0.000 A 
ENDROOT
BRANCH   1  11
ATOM      7  C   UNL     1       3.394   5.753  18.311  0.00  0.00    +0.000 A 
ATOM      8  C   UNL     1       3.181   6.942  17.588  0.00  0.00    +0.000 A 
ATOM      9  C   UNL     1       2.433   7.960  18.182  0.00  0.00    +0.000 A 
ATOM     10  N   UNL     1       2.052   9.184  17.703  0.00  0.00    +0.000 NA
ATOM     11  C   UNL     1       1.413   9.735  18.717  0.00  0.00    +0.000 A 
ATOM     12  O   UNL     1       1.289   8.922  19.823  0.00  0.00    +0.000 OA
ATOM     13  C   UNL     1       1.955   7.784  19.467  0.00  0.00    +0.000 A 
ATOM     14  C   UNL     1       2.135   6.635  20.231  0.00  0.00    +0.000 A 
ATOM     15  C   UNL     1       2.867   5.608  19.611  0.00  0.00    +0.000 A 
BRANCH   7  17
ATOM     16  N   UNL     1       5.079   5.137  16.655  0.00  0.00    +0.000 N 
ATOM     17  C   UNL     1       4.185   4.704  17.606  0.00  0.00    +0.000 C 
ATOM     18  O   UNL     1       4.052   3.526  17.922  0.00  0.00    +0.000 OA
ATOM     19  H   UNL     1       4.980   6.096  16.332  0.00  0.00    +0.000 HD
BRANCH  16  21
ATOM     20  C   UNL     1       5.608   4.338  14.402  0.00  0.00    +0.000 C 
ATOM     21  C   UNL     1       5.903   4.214  15.893  0.00  0.00    +0.000 C 
ATOM     22  C   UNL     1       7.377   4.468  16.186  0.00  0.00    +0.000 C 
ENDBRANCH  16  21
ENDBRANCH   7  17
BRANCH  15  23
ATOM     23  O   UNL     1       3.066   4.442  20.309  0.00  0.00    +0.000 OA
ATOM     24  H   UNL     1       2.687   3.699  19.809  0.00  0.00    +0.000 HD
ENDBRANCH  15  23
ENDBRANCH   1  11
BRANCH   3  25
ATOM     25  C   UNL     1      -2.619  12.424  19.662  0.00  0.00    +0.000 A 
ATOM     26  C   UNL     1      -3.810  12.030  19.009  0.00  0.00    +0.000 A 
ATOM     27  N   UNL     1      -4.911  12.354  19.693  0.00  0.00    +0.000 NA
ATOM     28  N   UNL     1      -4.438  13.011  20.766  0.00  0.00    +0.000 N 
ATOM     29  C   UNL     1      -3.066  13.018  20.824  0.00  0.00    +0.000 A 
BRANCH  28  30
ATOM     30  C   UNL     1      -5.331  13.748  21.659  0.00  0.00    +0.000 C 
ATOM     31  C   UNL     1      -4.748  15.090  22.118  0.00  0.00    +0.000 C 
ATOM     32  C   UNL     1      -3.913  14.976  23.387  0.00  0.00    +0.000 C 
ATOM     33  N   UNL     1      -4.661  14.319  24.456  0.00  0.00    +0.000 NA
ATOM     34  C   UNL     1      -4.981  12.945  24.071  0.00  0.00    +0.000 C 
ATOM     35  C   UNL     1      -5.863  12.896  22.826  0.00  0.00    +0.000 C 
ATOM     36  H   UNL     1      -5.520  14.833  24.652  0.00  0.00    +0.000 HD
ENDBRANCH  28  30
ENDBRANCH   3  25
BRANCH   6  37
ATOM     37  N   UNL     1       2.670  12.241  17.786  0.00  0.00    +0.000 N 
ATOM     38  H   UNL     1       2.953  13.211  17.680  0.00  0.00    +0.000 HD
ATOM     39  H   UNL     1       3.335  11.683  18.310  0.00  0.00    +0.000 HD
ENDBRANCH   6  37
TORSDOF 7
ENDMDL
MODEL 8
REMARK VINA RESULT:      -8.3      1.883      2.642
REMARK  Name = 
REMARK  9 active torsions:
REMARK  status: ('A' for Active; 'I' for Inactive)
REMARK    1  A    between atoms: C_1  and  C_2
REMARK    2  A    between atoms: C_2  and  C_3
REMARK    3  A    between atoms: C_2  and  N_4
REMARK    4  A    between atoms: C_5  and  C_7
REMARK    5  A    between atoms: C_11  and  C_12
REMARK    6  A    between atoms: C_14  and  C_15
REMARK    7  A    between atoms: N_18  and  C_19
REMARK    8  A    between atoms: C_28  and  N_29
REMARK    9  A    between atoms: C_33  and  O_34
REMARK                            x       y       z     vdW  Elec       q    Type
REMARK                         _______ _______ _______ _____ _____    ______ ____
ROOT
ATOM      1  C   UNL     1       0.580  10.776  18.514  0.00  0.00    +0.000 A 
ATOM      2  C   UNL     1      -0.815  10.649  18.384  0.00  0.00    +0.000 A 
ATOM      3  C   UNL     1      -1.637  11.776  18.342  0.00  0.00    +0.000 A 
ATOM      4  C   UNL     1      -1.001  13.007  18.446  0.00  0.00    +0.000 A 
ATOM      5  N   UNL     1       0.341  13.172  18.582  0.00  0.00    +0.000 NA
ATOM      6  C   UNL     1       1.112  12.066  18.609  0.00  0.00    +0.000 A 
ENDROOT
BRANCH   1  11
ATOM      7  C   UNL     1       3.956   5.925  18.171  0.00  0.00    +0.000 A 
ATOM      8  C   UNL     1       3.665   7.113  17.475  0.00  0.00    +0.000 A 
ATOM      9  C   UNL     1       2.716   7.986  18.011  0.00  0.00    +0.000 A 
ATOM     10  N   UNL     1       2.225   9.172  17.537  0.00  0.00    +0.000 NA
ATOM     11  C   UNL     1       1.399   9.573  18.484  0.00  0.00    +0.000 A 
ATOM     12  O   UNL     1       1.260   8.689  19.533  0.00  0.00    +0.000 OA
ATOM     13  C   UNL     1       2.118   7.674  19.218  0.00  0.00    +0.000 A 
ATOM     14  C   UNL     1       2.366   6.518  19.952  0.00  0.00    +0.000 A 
ATOM     15  C   UNL     1       3.305   5.637  19.388  0.00  0.00    +0.000 A 
BRANCH   7  17
ATOM     16  N   UNL     1       5.076   5.107  16.161  0.00  0.00    +0.000 N 
ATOM     17  C   UNL     1       4.966   5.034  17.530  0.00  0.00    +0.000 C 
ATOM     18  O   UNL     1       5.679   4.321  18.228  0.00  0.00    +0.000 OA
ATOM     19  H   UNL     1       4.323   5.575  15.663  0.00  0.00    +0.000 HD
BRANCH  16  21
ATOM     20  C   UNL     1       5.500   4.028  14.005  0.00  0.00    +0.000 C 
ATOM     21  C   UNL     1       6.015   4.286  15.417  0.00  0.00    +0.000 C 
ATOM     22  C   UNL     1       7.384   4.955  15.390  0.00  0.00    +0.000 C 
ENDBRANCH  16  21
ENDBRANCH   7  17
BRANCH  15  23
ATOM     23  O   UNL     1       3.582   4.471  20.059  0.00  0.00    +0.000 OA
ATOM     24  H   UNL     1       2.762   4.118  20.444  0.00  0.00    +0.000 HD
ENDBRANCH  15  23
ENDBRANCH   1  11
BRANCH   3  25
ATOM     25  C   UNL     1      -3.072  11.644  18.161  0.00  0.00    +0.000 A 
ATOM     26  C   UNL     1      -3.830  11.196  17.055  0.00  0.00    +0.000 A 
ATOM     27  N   UNL     1      -5.147  11.309  17.245  0.00  0.00    +0.000 NA
ATOM     28  N   UNL     1      -5.246  11.886  18.455  0.00  0.00    +0.000 N 
ATOM     29  C   UNL     1      -4.029  12.044  19.072  0.00  0.00    +0.000 A 
BRANCH  28  30
ATOM     30  C   UNL     1      -6.521  12.407  18.946  0.00  0.00    +0.000 C 
ATOM     31  C   UNL     1      -7.423  12.942  17.827  0.00  0.00    +0.000 C 
ATOM     32  C   UNL     1      -7.179  14.414  17.517  0.00  0.00    +0.000 C 
ATOM     33  N   UNL     1      -7.273  15.232  18.724  0.00  0.00    +0.000 NA
ATOM     34  C   UNL     1      -6.225  14.851  19.670  0.00  0.00    +0.000 C 
ATOM     35  C   UNL     1      -6.365  13.397  20.114  0.00  0.00    +0.000 C 
ATOM     36  H   UNL     1      -8.189  15.116  19.157  0.00  0.00    +0.000 HD
ENDBRANCH  28  30
ENDBRANCH   3  25
BRANCH   6  37
ATOM     37  N   UNL     1       2.483  12.317  18.633  0.00  0.00    +0.000 N 
ATOM     38  H   UNL     1       2.664  13.134  18.057  0.00  0.00    +0.000 HD
ATOM     39  H   UNL     1       2.844  12.402  19.577  0.00  0.00    +0.000 HD
ENDBRANCH   6  37
TORSDOF 7
ENDMDL
MODEL 9
REMARK VINA RESULT:      -8.2      3.548      6.337
REMARK  Name = 
REMARK  9 active torsions:
REMARK  status: ('A' for Active; 'I' for Inactive)
REMARK    1  A    between atoms: C_1  and  C_2
REMARK    2  A    between atoms: C_2  and  C_3
REMARK    3  A    between atoms: C_2  and  N_4
REMARK    4  A    between atoms: C_5  and  C_7
REMARK    5  A    between atoms: C_11  and  C_12
REMARK    6  A    between atoms: C_14  and  C_15
REMARK    7  A    between atoms: N_18  and  C_19
REMARK    8  A    between atoms: C_28  and  N_29
REMARK    9  A    between atoms: C_33  and  O_34
REMARK                            x       y       z     vdW  Elec       q    Type
REMARK                         _______ _______ _______ _____ _____    ______ ____
ROOT
ATOM      1  C   UNL     1       2.273   7.341  19.547  0.00  0.00    +0.000 A 
ATOM      2  C   UNL     1       1.802   8.636  19.264  0.00  0.00    +0.000 A 
ATOM      3  C   UNL     1       0.845   9.244  20.079  0.00  0.00    +0.000 A 
ATOM      4  C   UNL     1       0.389   8.497  21.158  0.00  0.00    +0.000 A 
ATOM      5  N   UNL     1       0.811   7.240  21.459  0.00  0.00    +0.000 NA
ATOM      6  C   UNL     1       1.744   6.682  20.661  0.00  0.00    +0.000 A 
ENDROOT
BRANCH   1  11
ATOM      7  C   UNL     1       6.395   5.074  15.952  0.00  0.00    +0.000 A 
ATOM      8  C   UNL     1       5.174   5.775  15.921  0.00  0.00    +0.000 A 
ATOM      9  C   UNL     1       4.552   6.085  17.132  0.00  0.00    +0.000 A 
ATOM     10  N   UNL     1       3.367   6.718  17.390  0.00  0.00    +0.000 NA
ATOM     11  C   UNL     1       3.321   6.778  18.707  0.00  0.00    +0.000 A 
ATOM     12  O   UNL     1       4.376   6.162  19.344  0.00  0.00    +0.000 OA
ATOM     13  C   UNL     1       5.165   5.724  18.318  0.00  0.00    +0.000 A 
ATOM     14  C   UNL     1       6.369   5.033  18.411  0.00  0.00    +0.000 A 
ATOM     15  C   UNL     1       6.972   4.705  17.185  0.00  0.00    +0.000 A 
BRANCH   7  17
ATOM     16  N   UNL     1       6.289   3.898  13.814  0.00  0.00    +0.000 N 
ATOM     17  C   UNL     1       6.991   4.762  14.621  0.00  0.00    +0.000 C 
ATOM     18  O   UNL     1       8.035   5.308  14.279  0.00  0.00    +0.000 OA
ATOM     19  H   UNL     1       5.548   3.357  14.253  0.00  0.00    +0.000 HD
BRANCH  16  21
ATOM     20  C   UNL     1       5.711   2.688  11.767  0.00  0.00    +0.000 C 
ATOM     21  C   UNL     1       6.766   3.509  12.499  0.00  0.00    +0.000 C 
ATOM     22  C   UNL     1       7.155   4.746  11.698  0.00  0.00    +0.000 C 
ENDBRANCH  16  21
ENDBRANCH   7  17
BRANCH  15  23
ATOM     23  O   UNL     1       8.156   4.010  17.211  0.00  0.00    +0.000 OA
ATOM     24  H   UNL     1       8.694   4.319  17.960  0.00  0.00    +0.000 HD
ENDBRANCH  15  23
ENDBRANCH   1  11
BRANCH   3  25
ATOM     25  C   UNL     1       0.394  10.598  19.813  0.00  0.00    +0.000 A 
ATOM     26  C   UNL     1      -0.908  11.150  19.772  0.00  0.00    +0.000 A 
ATOM     27  N   UNL     1      -0.918  12.432  19.397  0.00  0.00    +0.000 NA
ATOM     28  N   UNL     1       0.373  12.700  19.139  0.00  0.00    +0.000 N 
ATOM     29  C   UNL     1       1.205  11.649  19.439  0.00  0.00    +0.000 A 
BRANCH  28  30
ATOM     30  C   UNL     1       0.773  13.937  18.469  0.00  0.00    +0.000 C 
ATOM     31  C   UNL     1       2.272  14.234  18.600  0.00  0.00    +0.000 C 
ATOM     32  C   UNL     1       2.613  15.043  19.846  0.00  0.00    +0.000 C 
ATOM     33  N   UNL     1       1.812  16.263  19.920  0.00  0.00    +0.000 NA
ATOM     34  C   UNL     1       0.396  15.924  20.048  0.00  0.00    +0.000 C 
ATOM     35  C   UNL     1      -0.111  15.142  18.839  0.00  0.00    +0.000 C 
ATOM     36  H   UNL     1       1.959  16.832  19.086  0.00  0.00    +0.000 HD
ENDBRANCH  28  30
ENDBRANCH   3  25
BRANCH   6  37
ATOM     37  N   UNL     1       2.212   5.443  21.098  0.00  0.00    +0.000 N 
ATOM     38  H   UNL     1       2.227   5.452  22.114  0.00  0.00    +0.000 HD
ATOM     39  H   UNL     1       1.682   4.671  20.710  0.00  0.00    +0.000 HD
ENDBRANCH   6  37
TORSDOF 7
ENDMDL
