MODEL 1
REMARK VINA RESULT:      -8.6      0.000      0.000
REMARK  Name = 
REMARK  6 active torsions:
REMARK  status: ('A' for Active; 'I' for Inactive)
REMARK    1  A    between atoms: C_1  and  C_2
REMARK    2  A    between atoms: C_2  and  C_3
REMARK    3  A    between atoms: C_8  and  N_9
REMARK    4  A    between atoms: C_10  and  C_12
REMARK    5  A    between atoms: C_12  and  C_13
REMARK    6  A    between atoms: C_13  and  N_14
REMARK                            x       y       z     vdW  Elec       q    Type
REMARK                         _______ _______ _______ _____ _____    ______ ____
ROOT
ATOM      1  C   UNL     1       7.654   6.849  17.066  0.00  0.00    +0.000 C 
ENDROOT
BRANCH   1   2
ATOM      2  N   UNL     1       6.216   6.809  16.703  0.00  0.00    +0.000 NA
ATOM      3  C   UNL     1       5.890   5.649  15.852  0.00  0.00    +0.000 C 
ATOM      4  C   UNL     1       6.094   4.317  16.594  0.00  0.00    +0.000 C 
ATOM      5  N   UNL     1       5.147   4.154  17.704  0.00  0.00    +0.000 NA
ATOM      6  C   UNL     1       3.831   3.866  17.140  0.00  0.00    +0.000 C 
ATOM      7  C   UNL     1       2.824   3.570  18.202  0.00  0.00    +0.000 A 
ATOM      8  C   UNL     1       1.887   2.545  18.004  0.00  0.00    +0.000 A 
ATOM      9  C   UNL     1       0.847   2.374  18.909  0.00  0.00    +0.000 A 
ATOM     10  C   UNL     1       0.725   3.250  19.983  0.00  0.00    +0.000 A 
ATOM     11  C   UNL     1       1.683   4.251  20.202  0.00  0.00    +0.000 A 
ATOM     12  C   UNL     1       2.768   4.396  19.327  0.00  0.00    +0.000 A 
ATOM     13  C   UNL     1       3.907   5.365  19.606  0.00  0.00    +0.000 C 
ATOM     14  C   UNL     1       5.126   5.342  18.602  0.00  0.00    +0.000 C 
ATOM     15  C   UNL     1       5.327   6.748  17.904  0.00  0.00    +0.000 C 
ENDBRANCH   1   2
BRANCH   1  16
ATOM     16  C   UNL     1       7.955   7.591  18.379  0.00  0.00    +0.000 C 
BRANCH  16  18
ATOM     17  N   UNL     1       9.297   9.509  19.117  0.00  0.00    +0.000 N 
ATOM     18  C   UNL     1       8.325   9.057  18.241  0.00  0.00    +0.000 C 
ATOM     19  O   UNL     1       7.685   9.752  17.451  0.00  0.00    +0.000 OA
ATOM     20  H   UNL     1       9.606   8.831  19.812  0.00  0.00    +0.000 HD
BRANCH  17  26
ATOM     21  C   UNL     1       9.671  11.573  20.388  0.00  0.00    +0.000 A 
ATOM     22  C   UNL     1      10.184  12.886  20.421  0.00  0.00    +0.000 A 
ATOM     23  C   UNL     1      10.856  13.433  19.324  0.00  0.00    +0.000 A 
ATOM     24  C   UNL     1      11.036  12.681  18.178  0.00  0.00    +0.000 A 
ATOM     25  C   UNL     1      10.530  11.379  18.119  0.00  0.00    +0.000 A 
ATOM     26  C   UNL     1       9.830  10.818  19.199  0.00  0.00    +0.000 A 
BRANCH  21  28
ATOM     27  C   UNL     1       8.155  11.949  22.477  0.00  0.00    +0.000 C 
ATOM     28  C   UNL     1       8.947  10.991  21.591  0.00  0.00    +0.000 C 
ENDBRANCH  21  28
ENDBRANCH  17  26
ENDBRANCH  16  18
ENDBRANCH   1  16
TORSDOF 5
ENDMDL
MODEL 2
REMARK VINA RESULT:      -8.3      1.552      1.849
REMARK  Name = 
REMARK  6 active torsions:
REMARK  status: ('A' for Active; 'I' for Inactive)
REMARK    1  A    between atoms: C_1  and  C_2
REMARK    2  A    between atoms: C_2  and  C_3
REMARK    3  A    between atoms: C_8  and  N_9
REMARK    4  A    between atoms: C_10  and  C_12
REMARK    5  A    between atoms: C_12  and  C_13
REMARK    6  A    between atoms: C_13  and  N_14
REMARK                            x       y       z     vdW  Elec       q    Type
REMARK                         _______ _______ _______ _____ _____    ______ ____
ROOT
ATOM      1  C   UNL     1       7.783   7.685  17.640  0.00  0.00    +0.000 C 
ENDROOT
BRANCH   1   2
ATOM      2  N   UNL     1       6.768   7.012  16.793  0.00  0.00    +0.000 NA
ATOM      3  C   UNL     1       7.121   5.608  16.512  0.00  0.00    +0.000 C 
ATOM      4  C   UNL     1       7.125   4.750  17.790  0.00  0.00    +0.000 C 
ATOM      5  N   UNL     1       5.783   4.616  18.368  0.00  0.00    +0.000 NA
ATOM      6  C   UNL     1       5.014   3.705  17.523  0.00  0.00    +0.000 C 
ATOM      7  C   UNL     1       3.667   3.416  18.099  0.00  0.00    +0.000 A 
ATOM      8  C   UNL     1       3.147   2.116  18.032  0.00  0.00    +0.000 A 
ATOM      9  C   UNL     1       1.833   1.875  18.413  0.00  0.00    +0.000 A 
ATOM     10  C   UNL     1       1.034   2.938  18.821  0.00  0.00    +0.000 A 
ATOM     11  C   UNL     1       1.565   4.233  18.924  0.00  0.00    +0.000 A 
ATOM     12  C   UNL     1       2.905   4.477  18.596  0.00  0.00    +0.000 A 
ATOM     13  C   UNL     1       3.561   5.828  18.834  0.00  0.00    +0.000 C 
ATOM     14  C   UNL     1       5.109   5.933  18.534  0.00  0.00    +0.000 C 
ATOM     15  C   UNL     1       5.409   7.016  17.420  0.00  0.00    +0.000 C 
ENDBRANCH   1   2
BRANCH   1  16
ATOM     16  C   UNL     1       7.817   9.215  17.491  0.00  0.00    +0.000 C 
BRANCH  16  18
ATOM     17  N   UNL     1       9.188  11.200  17.946  0.00  0.00    +0.000 N 
ATOM     18  C   UNL     1       8.802   9.945  18.387  0.00  0.00    +0.000 C 
ATOM     19  O   UNL     1       9.258   9.352  19.365  0.00  0.00    +0.000 OA
ATOM     20  H   UNL     1       8.830  11.468  17.030  0.00  0.00    +0.000 HD
BRANCH  17  26
ATOM     21  C   UNL     1       9.608  13.332  19.084  0.00  0.00    +0.000 A 
ATOM     22  C   UNL     1      10.534  14.210  19.684  0.00  0.00    +0.000 A 
ATOM     23  C   UNL     1      11.883  13.868  19.812  0.00  0.00    +0.000 A 
ATOM     24  C   UNL     1      12.333  12.644  19.354  0.00  0.00    +0.000 A 
ATOM     25  C   UNL     1      11.436  11.760  18.750  0.00  0.00    +0.000 A 
ATOM     26  C   UNL     1      10.081  12.092  18.586  0.00  0.00    +0.000 A 
BRANCH  21  28
ATOM     27  C   UNL     1       7.767  14.736  17.883  0.00  0.00    +0.000 C 
ATOM     28  C   UNL     1       8.143  13.716  18.955  0.00  0.00    +0.000 C 
ENDBRANCH  21  28
ENDBRANCH  17  26
ENDBRANCH  16  18
ENDBRANCH   1  16
TORSDOF 5
ENDMDL
MODEL 3
REMARK VINA RESULT:      -8.3      5.221      7.228
REMARK  Name = 
REMARK  6 active torsions:
REMARK  status: ('A' for Active; 'I' for Inactive)
REMARK    1  A    between atoms: C_1  and  C_2
REMARK    2  A    between atoms: C_2  and  C_3
REMARK    3  A    between atoms: C_8  and  N_9
REMARK    4  A    between atoms: C_10  and  C_12
REMARK    5  A    between atoms: C_12  and  C_13
REMARK    6  A    between atoms: C_13  and  N_14
REMARK                            x       y       z     vdW  Elec       q    Type
REMARK                         _______ _______ _______ _____ _____    ______ ____
ROOT
ATOM      1  C   UNL     1       1.894   2.623  20.921  0.00  0.00    +0.000 C 
ENDROOT
BRANCH   1   2
ATOM      2  N   UNL     1       2.834   1.979  19.970  0.00  0.00    +0.000 NA
ATOM      3  C   UNL     1       2.256   1.849  18.620  0.00  0.00    +0.000 C 
ATOM      4  C   UNL     1       1.999   3.220  17.971  0.00  0.00    +0.000 C 
ATOM      5  N   UNL     1       3.247   3.944  17.699  0.00  0.00    +0.000 NA
ATOM      6  C   UNL     1       3.902   3.308  16.559  0.00  0.00    +0.000 C 
ATOM      7  C   UNL     1       5.127   4.050  16.136  0.00  0.00    +0.000 A 
ATOM      8  C   UNL     1       5.407   4.206  14.772  0.00  0.00    +0.000 A 
ATOM      9  C   UNL     1       6.623   4.746  14.372  0.00  0.00    +0.000 A 
ATOM     10  C   UNL     1       7.567   5.091  15.334  0.00  0.00    +0.000 A 
ATOM     11  C   UNL     1       7.272   4.970  16.701  0.00  0.00    +0.000 A 
ATOM     12  C   UNL     1       6.027   4.479  17.115  0.00  0.00    +0.000 A 
ATOM     13  C   UNL     1       5.608   4.471  18.577  0.00  0.00    +0.000 C 
ATOM     14  C   UNL     1       4.133   4.005  18.895  0.00  0.00    +0.000 C 
ATOM     15  C   UNL     1       4.118   2.734  19.839  0.00  0.00    +0.000 C 
ENDBRANCH   1   2
BRANCH   1  16
ATOM     16  C   UNL     1       2.329   4.022  21.391  0.00  0.00    +0.000 C 
BRANCH  16  18
ATOM     17  N   UNL     1       2.221   6.404  20.810  0.00  0.00    +0.000 N 
ATOM     18  C   UNL     1       1.558   5.188  20.799  0.00  0.00    +0.000 C 
ATOM     19  O   UNL     1       0.391   5.004  20.450  0.00  0.00    +0.000 OA
ATOM     20  H   UNL     1       3.124   6.403  21.283  0.00  0.00    +0.000 HD
BRANCH  17  26
ATOM     21  C   UNL     1       1.973   8.004  18.967  0.00  0.00    +0.000 A 
ATOM     22  C   UNL     1       1.511   9.259  18.522  0.00  0.00    +0.000 A 
ATOM     23  C   UNL     1       0.819  10.124  19.375  0.00  0.00    +0.000 A 
ATOM     24  C   UNL     1       0.568   9.752  20.682  0.00  0.00    +0.000 A 
ATOM     25  C   UNL     1       1.022   8.516  21.148  0.00  0.00    +0.000 A 
ATOM     26  C   UNL     1       1.741   7.641  20.318  0.00  0.00    +0.000 A 
BRANCH  21  28
ATOM     27  C   UNL     1       3.963   7.615  17.326  0.00  0.00    +0.000 C 
ATOM     28  C   UNL     1       2.720   7.072  18.027  0.00  0.00    +0.000 C 
ENDBRANCH  21  28
ENDBRANCH  17  26
ENDBRANCH  16  18
ENDBRANCH   1  16
TORSDOF 5
ENDMDL
MODEL 4
REMARK VINA RESULT:      -8.3      1.367      2.367
REMARK  Name = 
REMARK  6 active torsions:
REMARK  status: ('A' for Active; 'I' for Inactive)
REMARK    1  A    between atoms: C_1  and  C_2
REMARK    2  A    between atoms: C_2  and  C_3
REMARK    3  A    between atoms: C_8  and  N_9
REMARK    4  A    between atoms: C_10  and  C_12
REMARK    5  A    between atoms: C_12  and  C_13
REMARK    6  A    between atoms: C_13  and  N_14
REMARK                            x       y       z     vdW  Elec       q    Type
REMARK                         _______ _______ _______ _____ _____    ______ ____
ROOT
ATOM      1  C   UNL     1       7.844   7.815  17.831  0.00  0.00    +0.000 C 
ENDROOT
BRANCH   1   2
ATOM      2  N   UNL     1       6.872   7.149  16.929  0.00  0.00    +0.000 NA
ATOM      3  C   UNL     1       7.254   5.756  16.630  0.00  0.00    +0.000 C 
ATOM      4  C   UNL     1       7.218   4.869  17.887  0.00  0.00    +0.000 C 
ATOM      5  N   UNL     1       5.855   4.706  18.408  0.00  0.00    +0.000 NA
ATOM      6  C   UNL     1       5.132   3.806  17.512  0.00  0.00    +0.000 C 
ATOM      7  C   UNL     1       3.767   3.489  18.026  0.00  0.00    +0.000 A 
ATOM      8  C   UNL     1       3.267   2.184  17.909  0.00  0.00    +0.000 A 
ATOM      9  C   UNL     1       1.942   1.919  18.231  0.00  0.00    +0.000 A 
ATOM     10  C   UNL     1       1.114   2.963  18.630  0.00  0.00    +0.000 A 
ATOM     11  C   UNL     1       1.623   4.261  18.785  0.00  0.00    +0.000 A 
ATOM     12  C   UNL     1       2.973   4.528  18.516  0.00  0.00    +0.000 A 
ATOM     13  C   UNL     1       3.602   5.881  18.811  0.00  0.00    +0.000 C 
ATOM     14  C   UNL     1       5.159   6.011  18.577  0.00  0.00    +0.000 C 
ATOM     15  C   UNL     1       5.490   7.123  17.500  0.00  0.00    +0.000 C 
ENDBRANCH   1   2
BRANCH   1  16
ATOM     16  C   UNL     1       8.078   9.303  17.522  0.00  0.00    +0.000 C 
BRANCH  16  18
ATOM     17  N   UNL     1       8.908  11.455  18.359  0.00  0.00    +0.000 N 
ATOM     18  C   UNL     1       8.800  10.096  18.597  0.00  0.00    +0.000 C 
ATOM     19  O   UNL     1       9.314   9.483  19.533  0.00  0.00    +0.000 OA
ATOM     20  H   UNL     1       8.561  11.768  17.453  0.00  0.00    +0.000 HD
BRANCH  17  26
ATOM     21  C   UNL     1      10.805  12.926  18.866  0.00  0.00    +0.000 A 
ATOM     22  C   UNL     1      11.399  13.861  19.738  0.00  0.00    +0.000 A 
ATOM     23  C   UNL     1      10.739  14.305  20.888  0.00  0.00    +0.000 A 
ATOM     24  C   UNL     1       9.474  13.834  21.185  0.00  0.00    +0.000 A 
ATOM     25  C   UNL     1       8.868  12.902  20.339  0.00  0.00    +0.000 A 
ATOM     26  C   UNL     1       9.521  12.421  19.193  0.00  0.00    +0.000 A 
BRANCH  21  28
ATOM     27  C   UNL     1      11.575  13.400  16.419  0.00  0.00    +0.000 C 
ATOM     28  C   UNL     1      11.534  12.455  17.618  0.00  0.00    +0.000 C 
ENDBRANCH  21  28
ENDBRANCH  17  26
ENDBRANCH  16  18
ENDBRANCH   1  16
TORSDOF 5
ENDMDL
MODEL 5
REMARK VINA RESULT:      -8.3      5.224      7.067
REMARK  Name = 
REMARK  6 active torsions:
REMARK  status: ('A' for Active; 'I' for Inactive)
REMARK    1  A    between atoms: C_1  and  C_2
REMARK    2  A    between atoms: C_2  and  C_3
REMARK    3  A    between atoms: C_8  and  N_9
REMARK    4  A    between atoms: C_10  and  C_12
REMARK    5  A    between atoms: C_12  and  C_13
REMARK    6  A    between atoms: C_13  and  N_14
REMARK                            x       y       z     vdW  Elec       q    Type
REMARK                         _______ _______ _______ _____ _____    ______ ____
ROOT
ATOM      1  C   UNL     1       2.084   2.803  20.978  0.00  0.00    +0.000 C 
ENDROOT
BRANCH   1   2
ATOM      2  N   UNL     1       3.091   2.158  20.098  0.00  0.00    +0.000 NA
ATOM      3  C   UNL     1       2.541   1.830  18.770  0.00  0.00    +0.000 C 
ATOM      4  C   UNL     1       2.154   3.093  17.981  0.00  0.00    +0.000 C 
ATOM      5  N   UNL     1       3.326   3.905  17.631  0.00  0.00    +0.000 NA
ATOM      6  C   UNL     1       4.051   3.220  16.563  0.00  0.00    +0.000 C 
ATOM      7  C   UNL     1       5.199   4.031  16.062  0.00  0.00    +0.000 A 
ATOM      8  C   UNL     1       5.474   4.070  14.688  0.00  0.00    +0.000 A 
ATOM      9  C   UNL     1       6.633   4.683  14.230  0.00  0.00    +0.000 A 
ATOM     10  C   UNL     1       7.530   5.220  15.148  0.00  0.00    +0.000 A 
ATOM     11  C   UNL     1       7.237   5.215  16.521  0.00  0.00    +0.000 A 
ATOM     12  C   UNL     1       6.043   4.649  16.987  0.00  0.00    +0.000 A 
ATOM     13  C   UNL     1       5.616   4.753  18.444  0.00  0.00    +0.000 C 
ATOM     14  C   UNL     1       4.191   4.179  18.812  0.00  0.00    +0.000 C 
ATOM     15  C   UNL     1       4.295   3.019  19.885  0.00  0.00    +0.000 C 
ENDBRANCH   1   2
BRANCH   1  16
ATOM     16  C   UNL     1       2.435   4.241  21.393  0.00  0.00    +0.000 C 
BRANCH  16  18
ATOM     17  N   UNL     1       2.423   6.518  20.476  0.00  0.00    +0.000 N 
ATOM     18  C   UNL     1       1.709   5.342  20.641  0.00  0.00    +0.000 C 
ATOM     19  O   UNL     1       0.533   5.161  20.324  0.00  0.00    +0.000 OA
ATOM     20  H   UNL     1       3.328   6.546  20.943  0.00  0.00    +0.000 HD
BRANCH  17  26
ATOM     21  C   UNL     1       1.245   8.669  20.518  0.00  0.00    +0.000 A 
ATOM     22  C   UNL     1       0.803   9.808  19.816  0.00  0.00    +0.000 A 
ATOM     23  C   UNL     1       1.106   9.994  18.464  0.00  0.00    +0.000 A 
ATOM     24  C   UNL     1       1.862   9.053  17.790  0.00  0.00    +0.000 A 
ATOM     25  C   UNL     1       2.306   7.912  18.463  0.00  0.00    +0.000 A 
ATOM     26  C   UNL     1       1.992   7.691  19.813  0.00  0.00    +0.000 A 
BRANCH  21  28
ATOM     27  C   UNL     1       0.149   9.604  22.692  0.00  0.00    +0.000 C 
ATOM     28  C   UNL     1       0.910   8.483  21.989  0.00  0.00    +0.000 C 
ENDBRANCH  21  28
ENDBRANCH  17  26
ENDBRANCH  16  18
ENDBRANCH   1  16
TORSDOF 5
ENDMDL
MODEL 6
REMARK VINA RESULT:      -8.2      1.838      2.260
REMARK  Name = 
REMARK  6 active torsions:
REMARK  status: ('A' for Active; 'I' for Inactive)
REMARK    1  A    between atoms: C_1  and  C_2
REMARK    2  A    between atoms: C_2  and  C_3
REMARK    3  A    between atoms: C_8  and  N_9
REMARK    4  A    between atoms: C_10  and  C_12
REMARK    5  A    between atoms: C_12  and  C_13
REMARK    6  A    between atoms: C_13  and  N_14
REMARK                            x       y       z     vdW  Elec       q    Type
REMARK                         _______ _______ _______ _____ _____    ______ ____
ROOT
ATOM      1  C   UNL     1       7.055   8.397  17.690  0.00  0.00    +0.000 C 
ENDROOT
BRANCH   1   2
ATOM      2  N   UNL     1       6.667   7.139  17.005  0.00  0.00    +0.000 NA
ATOM      3  C   UNL     1       7.253   5.951  17.652  0.00  0.00    +0.000 C 
ATOM      4  C   UNL     1       6.709   5.747  19.077  0.00  0.00    +0.000 C 
ATOM      5  N   UNL     1       5.278   5.420  19.079  0.00  0.00    +0.000 NA
ATOM      6  C   UNL     1       5.125   4.044  18.612  0.00  0.00    +0.000 C 
ATOM      7  C   UNL     1       3.707   3.584  18.691  0.00  0.00    +0.000 A 
ATOM      8  C   UNL     1       3.423   2.280  19.117  0.00  0.00    +0.000 A 
ATOM      9  C   UNL     1       2.125   1.791  19.035  0.00  0.00    +0.000 A 
ATOM     10  C   UNL     1       1.126   2.593  18.492  0.00  0.00    +0.000 A 
ATOM     11  C   UNL     1       1.402   3.913  18.101  0.00  0.00    +0.000 A 
ATOM     12  C   UNL     1       2.697   4.433  18.233  0.00  0.00    +0.000 A 
ATOM     13  C   UNL     1       3.009   5.898  17.964  0.00  0.00    +0.000 C 
ATOM     14  C   UNL     1       4.481   6.381  18.268  0.00  0.00    +0.000 C 
ATOM     15  C   UNL     1       5.185   6.946  16.966  0.00  0.00    +0.000 C 
ENDBRANCH   1   2
BRANCH   1  16
ATOM     16  C   UNL     1       8.536   8.464  18.100  0.00  0.00    +0.000 C 
BRANCH  16  18
ATOM     17  N   UNL     1       9.602  10.647  17.754  0.00  0.00    +0.000 N 
ATOM     18  C   UNL     1       9.006   9.793  18.665  0.00  0.00    +0.000 C 
ATOM     19  O   UNL     1       8.920   9.977  19.880  0.00  0.00    +0.000 OA
ATOM     20  H   UNL     1       9.732  10.265  16.818  0.00  0.00    +0.000 HD
BRANCH  17  26
ATOM     21  C   UNL     1       9.308  13.083  17.790  0.00  0.00    +0.000 A 
ATOM     22  C   UNL     1       9.869  14.355  18.021  0.00  0.00    +0.000 A 
ATOM     23  C   UNL     1      11.182  14.501  18.477  0.00  0.00    +0.000 A 
ATOM     24  C   UNL     1      11.958  13.383  18.719  0.00  0.00    +0.000 A 
ATOM     25  C   UNL     1      11.427  12.111  18.491  0.00  0.00    +0.000 A 
ATOM     26  C   UNL     1      10.120  11.940  18.009  0.00  0.00    +0.000 A 
BRANCH  21  28
ATOM     27  C   UNL     1       6.910  14.086  17.584  0.00  0.00    +0.000 C 
ATOM     28  C   UNL     1       7.878  12.940  17.298  0.00  0.00    +0.000 C 
ENDBRANCH  21  28
ENDBRANCH  17  26
ENDBRANCH  16  18
ENDBRANCH   1  16
TORSDOF 5
ENDMDL
MODEL 7
REMARK VINA RESULT:      -8.0      1.266      1.519
REMARK  Name = 
REMARK  6 active torsions:
REMARK  status: ('A' for Active; 'I' for Inactive)
REMARK    1  A    between atoms: C_1  and  C_2
REMARK    2  A    between atoms: C_2  and  C_3
REMARK    3  A    between atoms: C_8  and  N_9
REMARK    4  A    between atoms: C_10  and  C_12
REMARK    5  A    between atoms: C_12  and  C_13
REMARK    6  A    between atoms: C_13  and  N_14
REMARK                            x       y       z     vdW  Elec       q    Type
REMARK                         _______ _______ _______ _____ _____    ______ ____
ROOT
ATOM      1  C   UNL     1       7.807   7.928  17.851  0.00  0.00    +0.000 C 
ENDROOT
BRANCH   1   2
ATOM      2  N   UNL     1       6.884   7.215  16.935  0.00  0.00    +0.000 NA
ATOM      3  C   UNL     1       7.303   5.821  16.698  0.00  0.00    +0.000 C 
ATOM      4  C   UNL     1       7.234   4.975  17.982  0.00  0.00    +0.000 C 
ATOM      5  N   UNL     1       5.855   4.802  18.454  0.00  0.00    +0.000 NA
ATOM      6  C   UNL     1       5.184   3.859  17.562  0.00  0.00    +0.000 C 
ATOM      7  C   UNL     1       3.805   3.532  18.033  0.00  0.00    +0.000 A 
ATOM      8  C   UNL     1       3.334   2.215  17.940  0.00  0.00    +0.000 A 
ATOM      9  C   UNL     1       2.003   1.934  18.219  0.00  0.00    +0.000 A 
ATOM     10  C   UNL     1       1.141   2.974  18.551  0.00  0.00    +0.000 A 
ATOM     11  C   UNL     1       1.620   4.287  18.682  0.00  0.00    +0.000 A 
ATOM     12  C   UNL     1       2.974   4.571  18.457  0.00  0.00    +0.000 A 
ATOM     13  C   UNL     1       3.566   5.945  18.731  0.00  0.00    +0.000 C 
ATOM     14  C   UNL     1       5.128   6.098  18.552  0.00  0.00    +0.000 C 
ATOM     15  C   UNL     1       5.481   7.181  17.453  0.00  0.00    +0.000 C 
ENDBRANCH   1   2
BRANCH   1  16
ATOM     16  C   UNL     1       7.857   9.451  17.641  0.00  0.00    +0.000 C 
BRANCH  16  18
ATOM     17  N   UNL     1       9.235  11.458  17.945  0.00  0.00    +0.000 N 
ATOM     18  C   UNL     1       8.935  10.191  18.413  0.00  0.00    +0.000 C 
ATOM     19  O   UNL     1       9.524   9.595  19.315  0.00  0.00    +0.000 OA
ATOM     20  H   UNL     1       8.757  11.730  17.087  0.00  0.00    +0.000 HD
BRANCH  17  26
ATOM     21  C   UNL     1       9.930  13.015  19.709  0.00  0.00    +0.000 A 
ATOM     22  C   UNL     1      10.884  13.934  20.190  0.00  0.00    +0.000 A 
ATOM     23  C   UNL     1      12.070  14.185  19.494  0.00  0.00    +0.000 A 
ATOM     24  C   UNL     1      12.330  13.521  18.310  0.00  0.00    +0.000 A 
ATOM     25  C   UNL     1      11.396  12.611  17.808  0.00  0.00    +0.000 A 
ATOM     26  C   UNL     1      10.187  12.361  18.477  0.00  0.00    +0.000 A 
BRANCH  21  28
ATOM     27  C   UNL     1       8.757  12.002  21.807  0.00  0.00    +0.000 C 
ATOM     28  C   UNL     1       8.647  12.749  20.480  0.00  0.00    +0.000 C 
ENDBRANCH  21  28
ENDBRANCH  17  26
ENDBRANCH  16  18
ENDBRANCH   1  16
TORSDOF 5
ENDMDL
MODEL 8
REMARK VINA RESULT:      -7.9      1.262      1.570
REMARK  Name = 
REMARK  6 active torsions:
REMARK  status: ('A' for Active; 'I' for Inactive)
REMARK    1  A    between atoms: C_1  and  C_2
REMARK    2  A    between atoms: C_2  and  C_3
REMARK    3  A    between atoms: C_8  and  N_9
REMARK    4  A    between atoms: C_10  and  C_12
REMARK    5  A    between atoms: C_12  and  C_13
REMARK    6  A    between atoms: C_13  and  N_14
REMARK                            x       y       z     vdW  Elec       q    Type
REMARK                         _______ _______ _______ _____ _____    ______ ____
ROOT
ATOM      1  C   UNL     1       7.003   8.275  17.364  0.00  0.00    +0.000 C 
ENDROOT
BRANCH   1   2
ATOM      2  N   UNL     1       6.772   6.881  16.912  0.00  0.00    +0.000 NA
ATOM      3  C   UNL     1       7.319   5.892  17.858  0.00  0.00    +0.000 C 
ATOM      4  C   UNL     1       6.597   5.936  19.216  0.00  0.00    +0.000 C 
ATOM      5  N   UNL     1       5.195   5.511  19.108  0.00  0.00    +0.000 NA
ATOM      6  C   UNL     1       5.173   4.062  18.921  0.00  0.00    +0.000 C 
ATOM      7  C   UNL     1       3.780   3.524  18.917  0.00  0.00    +0.000 A 
ATOM      8  C   UNL     1       3.503   2.312  19.566  0.00  0.00    +0.000 A 
ATOM      9  C   UNL     1       2.253   1.722  19.426  0.00  0.00    +0.000 A 
ATOM     10  C   UNL     1       1.301   2.324  18.609  0.00  0.00    +0.000 A 
ATOM     11  C   UNL     1       1.565   3.556  17.991  0.00  0.00    +0.000 A 
ATOM     12  C   UNL     1       2.803   4.187  18.171  0.00  0.00    +0.000 A 
ATOM     13  C   UNL     1       3.080   5.588  17.645  0.00  0.00    +0.000 C 
ATOM     14  C   UNL     1       4.473   6.230  18.023  0.00  0.00    +0.000 C 
ATOM     15  C   UNL     1       5.319   6.574  16.730  0.00  0.00    +0.000 C 
ENDBRANCH   1   2
BRANCH   1  16
ATOM     16  C   UNL     1       8.305   8.477  18.157  0.00  0.00    +0.000 C 
BRANCH  16  18
ATOM     17  N   UNL     1       9.566  10.171  19.406  0.00  0.00    +0.000 N 
ATOM     18  C   UNL     1       8.779   9.912  18.297  0.00  0.00    +0.000 C 
ATOM     19  O   UNL     1       8.363  10.749  17.496  0.00  0.00    +0.000 OA
ATOM     20  H   UNL     1       9.681   9.390  20.051  0.00  0.00    +0.000 HD
BRANCH  17  26
ATOM     21  C   UNL     1       9.691  12.085  20.936  0.00  0.00    +0.000 A 
ATOM     22  C   UNL     1      10.264  13.334  21.250  0.00  0.00    +0.000 A 
ATOM     23  C   UNL     1      11.270  13.894  20.457  0.00  0.00    +0.000 A 
ATOM     24  C   UNL     1      11.729  13.217  19.343  0.00  0.00    +0.000 A 
ATOM     25  C   UNL     1      11.172  11.981  19.007  0.00  0.00    +0.000 A 
ATOM     26  C   UNL     1      10.143  11.410  19.773  0.00  0.00    +0.000 A 
BRANCH  21  28
ATOM     27  C   UNL     1       7.824  12.432  22.723  0.00  0.00    +0.000 C 
ATOM     28  C   UNL     1       8.601  11.487  21.810  0.00  0.00    +0.000 C 
ENDBRANCH  21  28
ENDBRANCH  17  26
ENDBRANCH  16  18
ENDBRANCH   1  16
TORSDOF 5
ENDMDL
MODEL 9
REMARK VINA RESULT:      -7.8      1.382      1.799
REMARK  Name = 
REMARK  6 active torsions:
REMARK  status: ('A' for Active; 'I' for Inactive)
REMARK    1  A    between atoms: C_1  and  C_2
REMARK    2  A    between atoms: C_2  and  C_3
REMARK    3  A    between atoms: C_8  and  N_9
REMARK    4  A    between atoms: C_10  and  C_12
REMARK    5  A    between atoms: C_12  and  C_13
REMARK    6  A    between atoms: C_13  and  N_14
REMARK                            x       y       z     vdW  Elec       q    Type
REMARK                         _______ _______ _______ _____ _____    ______ ____
ROOT
ATOM      1  C   UNL     1       7.081   8.569  17.753  0.00  0.00    +0.000 C 
ENDROOT
BRANCH   1   2
ATOM      2  N   UNL     1       6.849   7.267  17.080  0.00  0.00    +0.000 NA
ATOM      3  C   UNL     1       7.468   6.145  17.810  0.00  0.00    +0.000 C 
ATOM      4  C   UNL     1       6.825   5.935  19.192  0.00  0.00    +0.000 C 
ATOM      5  N   UNL     1       5.428   5.497  19.089  0.00  0.00    +0.000 NA
ATOM      6  C   UNL     1       5.420   4.102  18.655  0.00  0.00    +0.000 C 
ATOM      7  C   UNL     1       4.040   3.534  18.633  0.00  0.00    +0.000 A 
ATOM      8  C   UNL     1       3.822   2.222  19.077  0.00  0.00    +0.000 A 
ATOM      9  C   UNL     1       2.577   1.630  18.905  0.00  0.00    +0.000 A 
ATOM     10  C   UNL     1       1.568   2.337  18.258  0.00  0.00    +0.000 A 
ATOM     11  C   UNL     1       1.774   3.664  17.848  0.00  0.00    +0.000 A 
ATOM     12  C   UNL     1       3.009   4.288  18.068  0.00  0.00    +0.000 A 
ATOM     13  C   UNL     1       3.229   5.765  17.778  0.00  0.00    +0.000 C 
ATOM     14  C   UNL     1       4.630   6.371  18.185  0.00  0.00    +0.000 C 
ATOM     15  C   UNL     1       5.394   6.956  16.927  0.00  0.00    +0.000 C 
ENDBRANCH   1   2
BRANCH   1  16
ATOM     16  C   UNL     1       8.557   8.866  18.066  0.00  0.00    +0.000 C 
BRANCH  16  18
ATOM     17  N   UNL     1      10.213  10.614  18.542  0.00  0.00    +0.000 N 
ATOM     18  C   UNL     1       8.960  10.329  18.025  0.00  0.00    +0.000 C 
ATOM     19  O   UNL     1       8.133  11.156  17.639  0.00  0.00    +0.000 OA
ATOM     20  H   UNL     1      10.699   9.824  18.964  0.00  0.00    +0.000 HD
BRANCH  17  26
ATOM     21  C   UNL     1      10.865  12.581  19.854  0.00  0.00    +0.000 A 
ATOM     22  C   UNL     1      11.462  13.858  19.886  0.00  0.00    +0.000 A 
ATOM     23  C   UNL     1      12.035  14.423  18.743  0.00  0.00    +0.000 A 
ATOM     24  C   UNL     1      12.032  13.724  17.551  0.00  0.00    +0.000 A 
ATOM     25  C   UNL     1      11.440  12.459  17.492  0.00  0.00    +0.000 A 
ATOM     26  C   UNL     1      10.835  11.883  18.620  0.00  0.00    +0.000 A 
BRANCH  21  28
ATOM     27  C   UNL     1       8.811  12.364  21.448  0.00  0.00    +0.000 C 
ATOM     28  C   UNL     1      10.249  11.979  21.106  0.00  0.00    +0.000 C 
ENDBRANCH  21  28
ENDBRANCH  17  26
ENDBRANCH  16  18
ENDBRANCH   1  16
TORSDOF 5
ENDMDL
