MODEL 1
REMARK VINA RESULT:      -8.6      0.000      0.000
REMARK  Name = 
REMARK  2 active torsions:
REMARK  status: ('A' for Active; 'I' for Inactive)
REMARK    1  A    between atoms: C_8  and  S_9
REMARK    2  A    between atoms: S_9  and  C_10
REMARK                            x       y       z     vdW  Elec       q    Type
REMARK                         _______ _______ _______ _____ _____    ______ ____
ROOT
ATOM      1  N   UNL     1       8.594   9.403  17.685  0.00  0.00    +0.000 N 
ATOM      2  C   UNL     1       7.951   8.202  17.884  0.00  0.00    +0.000 A 
ATOM      3  N   UNL     1       8.434   7.392  18.829  0.00  0.00    +0.000 NA
ATOM      4  C   UNL     1       7.801   6.226  19.005  0.00  0.00    +0.000 A 
ATOM      5  N   UNL     1       8.313   5.425  20.036  0.00  0.00    +0.000 N 
ATOM      6  C   UNL     1       6.690   5.835  18.255  0.00  0.00    +0.000 A 
ATOM      7  C   UNL     1       5.988   4.611  18.413  0.00  0.00    +0.000 A 
ATOM      8  C   UNL     1       4.889   4.306  17.609  0.00  0.00    +0.000 A 
ATOM      9  C   UNL     1       4.490   5.229  16.646  0.00  0.00    +0.000 A 
ATOM     10  C   UNL     1       5.186   6.437  16.495  0.00  0.00    +0.000 A 
ATOM     11  C   UNL     1       6.287   6.756  17.285  0.00  0.00    +0.000 A 
ATOM     12  N   UNL     1       6.915   7.920  17.091  0.00  0.00    +0.000 NA
ATOM     13  H   UNL     1       9.549   9.352  18.009  0.00  0.00    +0.000 HD
ATOM     14  H   UNL     1       8.435   9.732  16.743  0.00  0.00    +0.000 HD
ATOM     15  H   UNL     1       9.130   5.906  20.405  0.00  0.00    +0.000 HD
ATOM     16  H   UNL     1       8.543   4.495  19.708  0.00  0.00    +0.000 HD
ENDROOT
BRANCH   8  17
ATOM     17  S   UNL     1       4.084   2.722  17.741  0.00  0.00    +0.000 S 
BRANCH  17  18
ATOM     18  C   UNL     1       2.998   2.989  19.141  0.00  0.00    +0.000 A 
ATOM     19  C   UNL     1       3.376   2.448  20.380  0.00  0.00    +0.000 A 
ATOM     20  C   UNL     1       2.554   2.584  21.501  0.00  0.00    +0.000 A 
ATOM     21  C   UNL     1       1.341   3.257  21.399  0.00  0.00    +0.000 A 
ATOM     22  C   UNL     1       0.945   3.789  20.172  0.00  0.00    +0.000 A 
ATOM     23  C   UNL     1       1.764   3.654  19.044  0.00  0.00    +0.000 A 
ATOM     24 CL   UNL     1       1.176   4.315  17.557  0.00  0.00    +0.000 Cl
ENDBRANCH  17  18
ENDBRANCH   8  17
TORSDOF 2
ENDMDL
MODEL 2
REMARK VINA RESULT:      -8.4      1.236      1.639
REMARK  Name = 
REMARK  2 active torsions:
REMARK  status: ('A' for Active; 'I' for Inactive)
REMARK    1  A    between atoms: C_8  and  S_9
REMARK    2  A    between atoms: S_9  and  C_10
REMARK                            x       y       z     vdW  Elec       q    Type
REMARK                         _______ _______ _______ _____ _____    ______ ____
ROOT
ATOM      1  N   UNL     1       8.492   9.337  17.705  0.00  0.00    +0.000 N 
ATOM      2  C   UNL     1       7.849   8.130  17.878  0.00  0.00    +0.000 A 
ATOM      3  N   UNL     1       8.338   7.297  18.799  0.00  0.00    +0.000 NA
ATOM      4  C   UNL     1       7.706   6.127  18.949  0.00  0.00    +0.000 A 
ATOM      5  N   UNL     1       8.223   5.300  19.955  0.00  0.00    +0.000 N 
ATOM      6  C   UNL     1       6.590   5.755  18.195  0.00  0.00    +0.000 A 
ATOM      7  C   UNL     1       5.888   4.528  18.326  0.00  0.00    +0.000 A 
ATOM      8  C   UNL     1       4.785   4.244  17.521  0.00  0.00    +0.000 A 
ATOM      9  C   UNL     1       4.380   5.192  16.584  0.00  0.00    +0.000 A 
ATOM     10  C   UNL     1       5.076   6.402  16.461  0.00  0.00    +0.000 A 
ATOM     11  C   UNL     1       6.181   6.701  17.252  0.00  0.00    +0.000 A 
ATOM     12  N   UNL     1       6.809   7.869  17.084  0.00  0.00    +0.000 NA
ATOM     13  H   UNL     1       9.449   9.276  18.023  0.00  0.00    +0.000 HD
ATOM     14  H   UNL     1       8.328   9.690  16.773  0.00  0.00    +0.000 HD
ATOM     15  H   UNL     1       9.042   5.771  20.332  0.00  0.00    +0.000 HD
ATOM     16  H   UNL     1       8.451   4.378  19.603  0.00  0.00    +0.000 HD
ENDROOT
BRANCH   8  17
ATOM     17  S   UNL     1       3.980   2.658  17.617  0.00  0.00    +0.000 S 
BRANCH  17  18
ATOM     18  C   UNL     1       2.958   2.864  19.074  0.00  0.00    +0.000 A 
ATOM     19  C   UNL     1       1.712   3.493  18.920  0.00  0.00    +0.000 A 
ATOM     20  C   UNL     1       0.885   3.721  20.023  0.00  0.00    +0.000 A 
ATOM     21  C   UNL     1       1.294   3.331  21.295  0.00  0.00    +0.000 A 
ATOM     22  C   UNL     1       2.535   2.718  21.465  0.00  0.00    +0.000 A 
ATOM     23  C   UNL     1       3.369   2.489  20.363  0.00  0.00    +0.000 A 
ATOM     24 CL   UNL     1       4.904   1.753  20.674  0.00  0.00    +0.000 Cl
ENDBRANCH  17  18
ENDBRANCH   8  17
TORSDOF 2
ENDMDL
MODEL 3
REMARK VINA RESULT:      -7.5      2.362      2.677
REMARK  Name = 
REMARK  2 active torsions:
REMARK  status: ('A' for Active; 'I' for Inactive)
REMARK    1  A    between atoms: C_8  and  S_9
REMARK    2  A    between atoms: S_9  and  C_10
REMARK                            x       y       z     vdW  Elec       q    Type
REMARK                         _______ _______ _______ _____ _____    ______ ____
ROOT
ATOM      1  N   UNL     1       7.853   5.425  14.268  0.00  0.00    +0.000 N 
ATOM      2  C   UNL     1       7.021   5.489  15.364  0.00  0.00    +0.000 A 
ATOM      3  N   UNL     1       7.278   4.667  16.383  0.00  0.00    +0.000 NA
ATOM      4  C   UNL     1       6.456   4.738  17.438  0.00  0.00    +0.000 A 
ATOM      5  N   UNL     1       6.787   3.890  18.503  0.00  0.00    +0.000 N 
ATOM      6  C   UNL     1       5.368   5.611  17.505  0.00  0.00    +0.000 A 
ATOM      7  C   UNL     1       4.476   5.721  18.604  0.00  0.00    +0.000 A 
ATOM      8  C   UNL     1       3.411   6.622  18.575  0.00  0.00    +0.000 A 
ATOM      9  C   UNL     1       3.240   7.417  17.445  0.00  0.00    +0.000 A 
ATOM     10  C   UNL     1       4.125   7.305  16.363  0.00  0.00    +0.000 A 
ATOM     11  C   UNL     1       5.190   6.410  16.372  0.00  0.00    +0.000 A 
ATOM     12  N   UNL     1       5.996   6.342  15.309  0.00  0.00    +0.000 NA
ATOM     13  H   UNL     1       8.308   4.525  14.222  0.00  0.00    +0.000 HD
ATOM     14  H   UNL     1       7.370   5.750  13.443  0.00  0.00    +0.000 HD
ATOM     15  H   UNL     1       7.587   3.338  18.204  0.00  0.00    +0.000 HD
ATOM     16  H   UNL     1       6.006   3.302  18.771  0.00  0.00    +0.000 HD
ENDROOT
BRANCH   8  17
ATOM     17  S   UNL     1       2.235   6.674  19.912  0.00  0.00    +0.000 S 
BRANCH  17  18
ATOM     18  C   UNL     1       1.930   4.930  20.188  0.00  0.00    +0.000 A 
ATOM     19  C   UNL     1       2.214   4.405  21.458  0.00  0.00    +0.000 A 
ATOM     20  C   UNL     1       2.038   3.045  21.727  0.00  0.00    +0.000 A 
ATOM     21  C   UNL     1       1.583   2.191  20.727  0.00  0.00    +0.000 A 
ATOM     22  C   UNL     1       1.309   2.695  19.456  0.00  0.00    +0.000 A 
ATOM     23  C   UNL     1       1.486   4.056  19.181  0.00  0.00    +0.000 A 
ATOM     24 CL   UNL     1       1.155   4.586  17.567  0.00  0.00    +0.000 Cl
ENDBRANCH  17  18
ENDBRANCH   8  17
TORSDOF 2
ENDMDL
MODEL 4
REMARK VINA RESULT:      -7.4      3.855      6.411
REMARK  Name = 
REMARK  2 active torsions:
REMARK  status: ('A' for Active; 'I' for Inactive)
REMARK    1  A    between atoms: C_8  and  S_9
REMARK    2  A    between atoms: S_9  and  C_10
REMARK                            x       y       z     vdW  Elec       q    Type
REMARK                         _______ _______ _______ _____ _____    ______ ____
ROOT
ATOM      1  N   UNL     1       1.366   2.202  22.401  0.00  0.00    +0.000 N 
ATOM      2  C   UNL     1       2.075   2.920  21.463  0.00  0.00    +0.000 A 
ATOM      3  N   UNL     1       3.156   2.345  20.934  0.00  0.00    +0.000 NA
ATOM      4  C   UNL     1       3.838   3.059  20.030  0.00  0.00    +0.000 A 
ATOM      5  N   UNL     1       4.940   2.402  19.466  0.00  0.00    +0.000 N 
ATOM      6  C   UNL     1       3.472   4.349  19.636  0.00  0.00    +0.000 A 
ATOM      7  C   UNL     1       4.163   5.137  18.679  0.00  0.00    +0.000 A 
ATOM      8  C   UNL     1       3.722   6.421  18.356  0.00  0.00    +0.000 A 
ATOM      9  C   UNL     1       2.585   6.916  18.990  0.00  0.00    +0.000 A 
ATOM     10  C   UNL     1       1.907   6.132  19.933  0.00  0.00    +0.000 A 
ATOM     11  C   UNL     1       2.334   4.851  20.272  0.00  0.00    +0.000 A 
ATOM     12  N   UNL     1       1.650   4.154  21.184  0.00  0.00    +0.000 NA
ATOM     13  H   UNL     1       1.955   1.505  22.833  0.00  0.00    +0.000 HD
ATOM     14  H   UNL     1       0.857   2.828  23.009  0.00  0.00    +0.000 HD
ATOM     15  H   UNL     1       5.017   1.501  19.933  0.00  0.00    +0.000 HD
ATOM     16  H   UNL     1       5.789   2.947  19.560  0.00  0.00    +0.000 HD
ENDROOT
BRANCH   8  17
ATOM     17  S   UNL     1       4.658   7.443  17.236  0.00  0.00    +0.000 S 
BRANCH  17  18
ATOM     18  C   UNL     1       5.620   6.216  16.353  0.00  0.00    +0.000 A 
ATOM     19  C   UNL     1       5.067   5.660  15.188  0.00  0.00    +0.000 A 
ATOM     20  C   UNL     1       5.747   4.670  14.475  0.00  0.00    +0.000 A 
ATOM     21  C   UNL     1       6.985   4.215  14.921  0.00  0.00    +0.000 A 
ATOM     22  C   UNL     1       7.541   4.748  16.083  0.00  0.00    +0.000 A 
ATOM     23  C   UNL     1       6.862   5.740  16.803  0.00  0.00    +0.000 A 
ATOM     24 CL   UNL     1       7.612   6.318  18.251  0.00  0.00    +0.000 Cl
ENDBRANCH  17  18
ENDBRANCH   8  17
TORSDOF 2
ENDMDL
MODEL 5
REMARK VINA RESULT:      -7.3      5.324      6.108
REMARK  Name = 
REMARK  2 active torsions:
REMARK  status: ('A' for Active; 'I' for Inactive)
REMARK    1  A    between atoms: C_8  and  S_9
REMARK    2  A    between atoms: S_9  and  C_10
REMARK                            x       y       z     vdW  Elec       q    Type
REMARK                         _______ _______ _______ _____ _____    ______ ____
ROOT
ATOM      1  N   UNL     1      -1.507  12.243  19.798  0.00  0.00    +0.000 N 
ATOM      2  C   UNL     1      -0.681  11.152  19.960  0.00  0.00    +0.000 A 
ATOM      3  N   UNL     1      -0.528  10.672  21.195  0.00  0.00    +0.000 NA
ATOM      4  C   UNL     1       0.283   9.616  21.336  0.00  0.00    +0.000 A 
ATOM      5  N   UNL     1       0.381   9.115  22.641  0.00  0.00    +0.000 N 
ATOM      6  C   UNL     1       0.960   9.020  20.268  0.00  0.00    +0.000 A 
ATOM      7  C   UNL     1       1.823   7.898  20.373  0.00  0.00    +0.000 A 
ATOM      8  C   UNL     1       2.460   7.377  19.247  0.00  0.00    +0.000 A 
ATOM      9  C   UNL     1       2.230   7.977  18.012  0.00  0.00    +0.000 A 
ATOM     10  C   UNL     1       1.376   9.084  17.914  0.00  0.00    +0.000 A 
ATOM     11  C   UNL     1       0.735   9.620  19.027  0.00  0.00    +0.000 A 
ATOM     12  N   UNL     1      -0.064  10.681  18.874  0.00  0.00    +0.000 NA
ATOM     13  H   UNL     1      -1.587  12.757  20.663  0.00  0.00    +0.000 HD
ATOM     14  H   UNL     1      -1.247  12.758  18.968  0.00  0.00    +0.000 HD
ATOM     15  H   UNL     1      -0.170   9.730  23.235  0.00  0.00    +0.000 HD
ATOM     16  H   UNL     1       1.344   9.060  22.950  0.00  0.00    +0.000 HD
ENDROOT
BRANCH   8  17
ATOM     17  S   UNL     1       3.627   6.039  19.406  0.00  0.00    +0.000 S 
BRANCH  17  18
ATOM     18  C   UNL     1       2.571   4.614  19.152  0.00  0.00    +0.000 A 
ATOM     19  C   UNL     1       1.584   4.346  20.114  0.00  0.00    +0.000 A 
ATOM     20  C   UNL     1       0.756   3.227  19.997  0.00  0.00    +0.000 A 
ATOM     21  C   UNL     1       0.908   2.356  18.923  0.00  0.00    +0.000 A 
ATOM     22  C   UNL     1       1.893   2.601  17.967  0.00  0.00    +0.000 A 
ATOM     23  C   UNL     1       2.727   3.720  18.080  0.00  0.00    +0.000 A 
ATOM     24 CL   UNL     1       3.943   3.925  16.866  0.00  0.00    +0.000 Cl
ENDBRANCH  17  18
ENDBRANCH   8  17
TORSDOF 2
ENDMDL
MODEL 6
REMARK VINA RESULT:      -7.3      3.625      6.281
REMARK  Name = 
REMARK  2 active torsions:
REMARK  status: ('A' for Active; 'I' for Inactive)
REMARK    1  A    between atoms: C_8  and  S_9
REMARK    2  A    between atoms: S_9  and  C_10
REMARK                            x       y       z     vdW  Elec       q    Type
REMARK                         _______ _______ _______ _____ _____    ______ ____
ROOT
ATOM      1  N   UNL     1       0.739   2.375  22.650  0.00  0.00    +0.000 N 
ATOM      2  C   UNL     1       1.665   2.520  21.640  0.00  0.00    +0.000 A 
ATOM      3  N   UNL     1       2.906   2.089  21.874  0.00  0.00    +0.000 NA
ATOM      4  C   UNL     1       3.794   2.244  20.884  0.00  0.00    +0.000 A 
ATOM      5  N   UNL     1       5.073   1.739  21.153  0.00  0.00    +0.000 N 
ATOM      6  C   UNL     1       3.479   2.829  19.655  0.00  0.00    +0.000 A 
ATOM      7  C   UNL     1       4.389   3.007  18.579  0.00  0.00    +0.000 A 
ATOM      8  C   UNL     1       3.981   3.609  17.389  0.00  0.00    +0.000 A 
ATOM      9  C   UNL     1       2.659   4.031  17.272  0.00  0.00    +0.000 A 
ATOM     10  C   UNL     1       1.765   3.851  18.337  0.00  0.00    +0.000 A 
ATOM     11  C   UNL     1       2.155   3.256  19.534  0.00  0.00    +0.000 A 
ATOM     12  N   UNL     1       1.260   3.117  20.517  0.00  0.00    +0.000 NA
ATOM     13  H   UNL     1       1.200   2.310  23.546  0.00  0.00    +0.000 HD
ATOM     14  H   UNL     1       0.002   3.059  22.550  0.00  0.00    +0.000 HD
ATOM     15  H   UNL     1       5.060   1.398  22.112  0.00  0.00    +0.000 HD
ATOM     16  H   UNL     1       5.790   2.441  21.015  0.00  0.00    +0.000 HD
ENDROOT
BRANCH   8  17
ATOM     17  S   UNL     1       5.156   3.928  16.088  0.00  0.00    +0.000 S 
BRANCH  17  18
ATOM     18  C   UNL     1       6.205   5.164  16.849  0.00  0.00    +0.000 A 
ATOM     19  C   UNL     1       7.193   4.726  17.746  0.00  0.00    +0.000 A 
ATOM     20  C   UNL     1       8.018   5.642  18.405  0.00  0.00    +0.000 A 
ATOM     21  C   UNL     1       7.861   7.007  18.184  0.00  0.00    +0.000 A 
ATOM     22  C   UNL     1       6.875   7.457  17.307  0.00  0.00    +0.000 A 
ATOM     23  C   UNL     1       6.045   6.544  16.645  0.00  0.00    +0.000 A 
ATOM     24 CL   UNL     1       4.828   7.196  15.602  0.00  0.00    +0.000 Cl
ENDBRANCH  17  18
ENDBRANCH   8  17
TORSDOF 2
ENDMDL
MODEL 7
REMARK VINA RESULT:      -7.2      4.543      6.845
REMARK  Name = 
REMARK  2 active torsions:
REMARK  status: ('A' for Active; 'I' for Inactive)
REMARK    1  A    between atoms: C_8  and  S_9
REMARK    2  A    between atoms: S_9  and  C_10
REMARK                            x       y       z     vdW  Elec       q    Type
REMARK                         _______ _______ _______ _____ _____    ______ ____
ROOT
ATOM      1  N   UNL     1       0.391   3.360  20.092  0.00  0.00    +0.000 N 
ATOM      2  C   UNL     1       1.554   3.487  19.365  0.00  0.00    +0.000 A 
ATOM      3  N   UNL     1       2.273   2.383  19.152  0.00  0.00    +0.000 NA
ATOM      4  C   UNL     1       3.403   2.526  18.449  0.00  0.00    +0.000 A 
ATOM      5  N   UNL     1       4.105   1.336  18.210  0.00  0.00    +0.000 N 
ATOM      6  C   UNL     1       3.848   3.753  17.951  0.00  0.00    +0.000 A 
ATOM      7  C   UNL     1       5.036   3.946  17.199  0.00  0.00    +0.000 A 
ATOM      8  C   UNL     1       5.400   5.215  16.748  0.00  0.00    +0.000 A 
ATOM      9  C   UNL     1       4.571   6.293  17.048  0.00  0.00    +0.000 A 
ATOM     10  C   UNL     1       3.399   6.096  17.790  0.00  0.00    +0.000 A 
ATOM     11  C   UNL     1       3.022   4.838  18.252  0.00  0.00    +0.000 A 
ATOM     12  N   UNL     1       1.895   4.713  18.961  0.00  0.00    +0.000 NA
ATOM     13  H   UNL     1       0.428   2.538  20.677  0.00  0.00    +0.000 HD
ATOM     14  H   UNL     1       0.156   4.239  20.532  0.00  0.00    +0.000 HD
ATOM     15  H   UNL     1       3.605   0.596  18.697  0.00  0.00    +0.000 HD
ATOM     16  H   UNL     1       5.068   1.401  18.518  0.00  0.00    +0.000 HD
ENDROOT
BRANCH   8  17
ATOM     17  S   UNL     1       6.947   5.465  15.900  0.00  0.00    +0.000 S 
BRANCH  17  18
ATOM     18  C   UNL     1       6.596   4.742  14.298  0.00  0.00    +0.000 A 
ATOM     19  C   UNL     1       5.462   3.924  14.179  0.00  0.00    +0.000 A 
ATOM     20  C   UNL     1       5.156   3.297  12.969  0.00  0.00    +0.000 A 
ATOM     21  C   UNL     1       5.982   3.473  11.863  0.00  0.00    +0.000 A 
ATOM     22  C   UNL     1       7.120   4.272  11.970  0.00  0.00    +0.000 A 
ATOM     23  C   UNL     1       7.433   4.901  13.181  0.00  0.00    +0.000 A 
ATOM     24 CL   UNL     1       8.882   5.845  13.229  0.00  0.00    +0.000 Cl
ENDBRANCH  17  18
ENDBRANCH   8  17
TORSDOF 2
ENDMDL
MODEL 8
REMARK VINA RESULT:      -7.2      4.534      6.407
REMARK  Name = 
REMARK  2 active torsions:
REMARK  status: ('A' for Active; 'I' for Inactive)
REMARK    1  A    between atoms: C_8  and  S_9
REMARK    2  A    between atoms: S_9  and  C_10
REMARK                            x       y       z     vdW  Elec       q    Type
REMARK                         _______ _______ _______ _____ _____    ______ ____
ROOT
ATOM      1  N   UNL     1      -0.416  10.796  21.845  0.00  0.00    +0.000 N 
ATOM      2  C   UNL     1       0.299   9.975  21.001  0.00  0.00    +0.000 A 
ATOM      3  N   UNL     1       0.667  10.475  19.820  0.00  0.00    +0.000 NA
ATOM      4  C   UNL     1       1.355   9.662  19.009  0.00  0.00    +0.000 A 
ATOM      5  N   UNL     1       1.760  10.239  17.798  0.00  0.00    +0.000 N 
ATOM      6  C   UNL     1       1.686   8.346  19.342  0.00  0.00    +0.000 A 
ATOM      7  C   UNL     1       2.417   7.454  18.514  0.00  0.00    +0.000 A 
ATOM      8  C   UNL     1       2.694   6.153  18.933  0.00  0.00    +0.000 A 
ATOM      9  C   UNL     1       2.242   5.744  20.185  0.00  0.00    +0.000 A 
ATOM     10  C   UNL     1       1.522   6.630  20.998  0.00  0.00    +0.000 A 
ATOM     11  C   UNL     1       1.232   7.930  20.595  0.00  0.00    +0.000 A 
ATOM     12  N   UNL     1       0.535   8.727  21.411  0.00  0.00    +0.000 NA
ATOM     13  H   UNL     1      -0.883  11.522  21.321  0.00  0.00    +0.000 HD
ATOM     14  H   UNL     1      -0.974  10.243  22.481  0.00  0.00    +0.000 HD
ATOM     15  H   UNL     1       1.375  11.181  17.776  0.00  0.00    +0.000 HD
ATOM     16  H   UNL     1       1.457   9.692  17.001  0.00  0.00    +0.000 HD
ENDROOT
BRANCH   8  17
ATOM     17  S   UNL     1       3.516   5.007  17.843  0.00  0.00    +0.000 S 
BRANCH  17  18
ATOM     18  C   UNL     1       5.222   5.533  17.993  0.00  0.00    +0.000 A 
ATOM     19  C   UNL     1       5.904   5.224  19.181  0.00  0.00    +0.000 A 
ATOM     20  C   UNL     1       7.223   5.641  19.379  0.00  0.00    +0.000 A 
ATOM     21  C   UNL     1       7.876   6.378  18.396  0.00  0.00    +0.000 A 
ATOM     22  C   UNL     1       7.207   6.704  17.216  0.00  0.00    +0.000 A 
ATOM     23  C   UNL     1       5.885   6.291  17.014  0.00  0.00    +0.000 A 
ATOM     24 CL   UNL     1       5.124   6.771  15.535  0.00  0.00    +0.000 Cl
ENDBRANCH  17  18
ENDBRANCH   8  17
TORSDOF 2
ENDMDL
MODEL 9
REMARK VINA RESULT:      -7.0      4.606      6.024
REMARK  Name = 
REMARK  2 active torsions:
REMARK  status: ('A' for Active; 'I' for Inactive)
REMARK    1  A    between atoms: C_8  and  S_9
REMARK    2  A    between atoms: S_9  and  C_10
REMARK                            x       y       z     vdW  Elec       q    Type
REMARK                         _______ _______ _______ _____ _____    ______ ____
ROOT
ATOM      1  N   UNL     1       0.194  11.854  18.606  0.00  0.00    +0.000 N 
ATOM      2  C   UNL     1       0.714  10.623  18.945  0.00  0.00    +0.000 A 
ATOM      3  N   UNL     1       0.424  10.144  20.156  0.00  0.00    +0.000 NA
ATOM      4  C   UNL     1       0.943   8.950  20.471  0.00  0.00    +0.000 A 
ATOM      5  N   UNL     1       0.579   8.462  21.734  0.00  0.00    +0.000 N 
ATOM      6  C   UNL     1       1.757   8.214  19.607  0.00  0.00    +0.000 A 
ATOM      7  C   UNL     1       2.323   6.946  19.900  0.00  0.00    +0.000 A 
ATOM      8  C   UNL     1       3.130   6.289  18.971  0.00  0.00    +0.000 A 
ATOM      9  C   UNL     1       3.371   6.903  17.744  0.00  0.00    +0.000 A 
ATOM     10  C   UNL     1       2.809   8.155  17.460  0.00  0.00    +0.000 A 
ATOM     11  C   UNL     1       2.004   8.826  18.376  0.00  0.00    +0.000 A 
ATOM     12  N   UNL     1       1.501  10.022  18.051  0.00  0.00    +0.000 NA
ATOM     13  H   UNL     1      -0.020  12.388  19.436  0.00  0.00    +0.000 HD
ATOM     14  H   UNL     1       0.767  12.293  17.900  0.00  0.00    +0.000 HD
ATOM     15  H   UNL     1       0.016   9.184  22.179  0.00  0.00    +0.000 HD
ATOM     16  H   UNL     1       1.390   8.223  22.291  0.00  0.00    +0.000 HD
ENDROOT
BRANCH   8  17
ATOM     17  S   UNL     1       3.924   4.750  19.391  0.00  0.00    +0.000 S 
BRANCH  17  18
ATOM     18  C   UNL     1       5.084   4.567  18.038  0.00  0.00    +0.000 A 
ATOM     19  C   UNL     1       4.620   3.983  16.848  0.00  0.00    +0.000 A 
ATOM     20  C   UNL     1       5.484   3.773  15.770  0.00  0.00    +0.000 A 
ATOM     21  C   UNL     1       6.824   4.137  15.868  0.00  0.00    +0.000 A 
ATOM     22  C   UNL     1       7.302   4.705  17.049  0.00  0.00    +0.000 A 
ATOM     23  C   UNL     1       6.441   4.915  18.133  0.00  0.00    +0.000 A 
ATOM     24 CL   UNL     1       7.130   5.594  19.568  0.00  0.00    +0.000 Cl
ENDBRANCH  17  18
ENDBRANCH   8  17
TORSDOF 2
ENDMDL
