MODEL 1
REMARK VINA RESULT:      -6.4      0.000      0.000
REMARK  Name = 
REMARK  12 active torsions:
REMARK  status: ('A' for Active; 'I' for Inactive)
REMARK    1  A    between atoms: C_1  and  N_2
REMARK    2  A    between atoms: N_2  and  C_19
REMARK    3  A    between atoms: C_3  and  C_5
REMARK    4  A    between atoms: C_12  and  C_13
REMARK    5  A    between atoms: C_13  and  O_14
REMARK    6  A    between atoms: C_13  and  C_15
REMARK    7  A    between atoms: C_15  and  C_16
REMARK    8  A    between atoms: C_15  and  C_17
REMARK    9  A    between atoms: C_15  and  C_18
REMARK   10  A    between atoms: C_19  and  C_20
REMARK   11  A    between atoms: C_19  and  C_21
REMARK   12  A    between atoms: C_19  and  C_22
REMARK                            x       y       z     vdW  Elec       q    Type
REMARK                         _______ _______ _______ _____ _____    ______ ____
ROOT
ATOM      1  C   UNL     1       2.636   7.205  18.355  0.00  0.00    +0.000 C 
ATOM      2  C   UNL     1       4.053   6.727  17.994  0.00  0.00    +0.000 C 
ATOM      3  C   UNL     1       4.152   6.016  19.340  0.00  0.00    +0.000 C 
ATOM      4  C   UNL     1       2.717   6.419  19.690  0.00  0.00    +0.000 C 
ATOM      5  C   UNL     1       2.147   5.150  19.052  0.00  0.00    +0.000 C 
ATOM      6  C   UNL     1       2.053   5.942  17.677  0.00  0.00    +0.000 C 
ATOM      7  C   UNL     1       3.525   5.473  17.314  0.00  0.00    +0.000 C 
ATOM      8  C   UNL     1       3.670   4.690  18.719  0.00  0.00    +0.000 C 
ENDROOT
BRANCH   1  11
ATOM      9  C   UNL     1       1.244   8.384  20.719  0.00  0.00    +0.000 C 
ATOM     10  N   UNL     1       1.342   9.133  19.479  0.00  0.00    +0.000 N 
ATOM     11  C   UNL     1       1.954   8.571  18.330  0.00  0.00    +0.000 C 
ATOM     12  O   UNL     1       1.939   9.188  17.257  0.00  0.00    +0.000 OA
BRANCH  10  13
ATOM     13  C   UNL     1       0.827  10.553  19.469  0.00  0.00    +0.000 C 
ATOM     14  C   UNL     1       1.768  11.528  18.707  0.00  0.00    +0.000 C 
ATOM     15  C   UNL     1      -0.537  10.643  18.753  0.00  0.00    +0.000 C 
ATOM     16  C   UNL     1       0.703  11.097  20.906  0.00  0.00    +0.000 C 
ENDBRANCH  10  13
ENDBRANCH   1  11
BRANCH   8  17
ATOM     17  C   UNL     1       4.431   3.402  18.830  0.00  0.00    +0.000 C 
BRANCH  17  18
ATOM     18  C   UNL     1       3.732   2.273  19.651  0.00  0.00    +0.000 C 
ATOM     19  C   UNL     1       2.670   1.557  18.800  0.00  0.00    +0.000 C 
ATOM     20  C   UNL     1       4.787   1.219  20.063  0.00  0.00    +0.000 C 
ATOM     21  C   UNL     1       3.065   2.777  20.947  0.00  0.00    +0.000 C 
ENDBRANCH  17  18
BRANCH  17  22
ATOM     22  O   UNL     1       5.710   3.710  19.403  0.00  0.00    +0.000 OA
ATOM     23  H   UNL     1       6.165   4.340  18.819  0.00  0.00    +0.000 HD
ENDBRANCH  17  22
ENDBRANCH   8  17
TORSDOF 5
ENDMDL
MODEL 2
REMARK VINA RESULT:      -6.3      0.535      1.616
REMARK  Name = 
REMARK  12 active torsions:
REMARK  status: ('A' for Active; 'I' for Inactive)
REMARK    1  A    between atoms: C_1  and  N_2
REMARK    2  A    between atoms: N_2  and  C_19
REMARK    3  A    between atoms: C_3  and  C_5
REMARK    4  A    between atoms: C_12  and  C_13
REMARK    5  A    between atoms: C_13  and  O_14
REMARK    6  A    between atoms: C_13  and  C_15
REMARK    7  A    between atoms: C_15  and  C_16
REMARK    8  A    between atoms: C_15  and  C_17
REMARK    9  A    between atoms: C_15  and  C_18
REMARK   10  A    between atoms: C_19  and  C_20
REMARK   11  A    between atoms: C_19  and  C_21
REMARK   12  A    between atoms: C_19  and  C_22
REMARK                            x       y       z     vdW  Elec       q    Type
REMARK                         _______ _______ _______ _____ _____    ______ ____
ROOT
ATOM      1  C   UNL     1       2.519   7.249  18.583  0.00  0.00    +0.000 C 
ATOM      2  C   UNL     1       2.492   6.109  19.616  0.00  0.00    +0.000 C 
ATOM      3  C   UNL     1       2.181   5.114  18.501  0.00  0.00    +0.000 C 
ATOM      4  C   UNL     1       2.274   6.221  17.448  0.00  0.00    +0.000 C 
ATOM      5  C   UNL     1       3.774   5.984  17.253  0.00  0.00    +0.000 C 
ATOM      6  C   UNL     1       4.043   7.038  18.411  0.00  0.00    +0.000 C 
ATOM      7  C   UNL     1       3.987   5.867  19.481  0.00  0.00    +0.000 C 
ATOM      8  C   UNL     1       3.675   4.773  18.334  0.00  0.00    +0.000 C 
ENDROOT
BRANCH   1  11
ATOM      9  C   UNL     1       1.164   8.524  20.919  0.00  0.00    +0.000 C 
ATOM     10  N   UNL     1       1.247   9.223  19.650  0.00  0.00    +0.000 N 
ATOM     11  C   UNL     1       1.841   8.616  18.515  0.00  0.00    +0.000 C 
ATOM     12  O   UNL     1       1.812   9.192  17.420  0.00  0.00    +0.000 OA
BRANCH  10  13
ATOM     13  C   UNL     1       0.736  10.644  19.593  0.00  0.00    +0.000 C 
ATOM     14  C   UNL     1       0.538  11.269  21.002  0.00  0.00    +0.000 C 
ATOM     15  C   UNL     1       1.737  11.565  18.864  0.00  0.00    +0.000 C 
ATOM     16  C   UNL     1      -0.636  10.701  18.892  0.00  0.00    +0.000 C 
ENDBRANCH  10  13
ENDBRANCH   1  11
BRANCH   8  17
ATOM     17  C   UNL     1       4.216   3.377  18.407  0.00  0.00    +0.000 C 
BRANCH  17  18
ATOM     18  C   UNL     1       3.280   2.324  19.082  0.00  0.00    +0.000 C 
ATOM     19  C   UNL     1       1.901   2.304  18.401  0.00  0.00    +0.000 C 
ATOM     20  C   UNL     1       3.900   0.917  18.920  0.00  0.00    +0.000 C 
ATOM     21  C   UNL     1       3.078   2.560  20.592  0.00  0.00    +0.000 C 
ENDBRANCH  17  18
BRANCH  17  22
ATOM     22  O   UNL     1       5.470   3.440  19.101  0.00  0.00    +0.000 OA
ATOM     23  H   UNL     1       5.507   4.279  19.591  0.00  0.00    +0.000 HD
ENDBRANCH  17  22
ENDBRANCH   8  17
TORSDOF 5
ENDMDL
MODEL 3
REMARK VINA RESULT:      -6.3      1.202      1.458
REMARK  Name = 
REMARK  12 active torsions:
REMARK  status: ('A' for Active; 'I' for Inactive)
REMARK    1  A    between atoms: C_1  and  N_2
REMARK    2  A    between atoms: N_2  and  C_19
REMARK    3  A    between atoms: C_3  and  C_5
REMARK    4  A    between atoms: C_12  and  C_13
REMARK    5  A    between atoms: C_13  and  O_14
REMARK    6  A    between atoms: C_13  and  C_15
REMARK    7  A    between atoms: C_15  and  C_16
REMARK    8  A    between atoms: C_15  and  C_17
REMARK    9  A    between atoms: C_15  and  C_18
REMARK   10  A    between atoms: C_19  and  C_20
REMARK   11  A    between atoms: C_19  and  C_21
REMARK   12  A    between atoms: C_19  and  C_22
REMARK                            x       y       z     vdW  Elec       q    Type
REMARK                         _______ _______ _______ _____ _____    ______ ____
ROOT
ATOM      1  C   UNL     1       2.270   7.064  19.330  0.00  0.00    +0.000 C 
ATOM      2  C   UNL     1       3.743   6.728  19.035  0.00  0.00    +0.000 C 
ATOM      3  C   UNL     1       3.606   5.440  19.842  0.00  0.00    +0.000 C 
ATOM      4  C   UNL     1       2.120   5.718  20.086  0.00  0.00    +0.000 C 
ATOM      5  C   UNL     1       1.715   4.974  18.812  0.00  0.00    +0.000 C 
ATOM      6  C   UNL     1       1.860   6.345  18.022  0.00  0.00    +0.000 C 
ATOM      7  C   UNL     1       3.386   6.014  17.741  0.00  0.00    +0.000 C 
ATOM      8  C   UNL     1       3.286   4.631  18.569  0.00  0.00    +0.000 C 
ENDROOT
BRANCH   1  11
ATOM      9  C   UNL     1       2.053   9.615  17.794  0.00  0.00    +0.000 C 
ATOM     10  N   UNL     1       1.433   9.493  19.101  0.00  0.00    +0.000 N 
ATOM     11  C   UNL     1       1.567   8.309  19.868  0.00  0.00    +0.000 C 
ATOM     12  O   UNL     1       1.115   8.263  21.019  0.00  0.00    +0.000 OA
BRANCH  10  13
ATOM     13  C   UNL     1       0.588  10.645  19.592  0.00  0.00    +0.000 C 
ATOM     14  C   UNL     1       0.826  11.952  18.785  0.00  0.00    +0.000 C 
ATOM     15  C   UNL     1      -0.916  10.331  19.447  0.00  0.00    +0.000 C 
ATOM     16  C   UNL     1       0.917  10.973  21.062  0.00  0.00    +0.000 C 
ENDBRANCH  10  13
ENDBRANCH   1  11
BRANCH   8  17
ATOM     17  C   UNL     1       4.048   3.407  18.157  0.00  0.00    +0.000 C 
BRANCH  17  18
ATOM     18  C   UNL     1       3.721   2.107  18.958  0.00  0.00    +0.000 C 
ATOM     19  C   UNL     1       2.207   1.980  19.198  0.00  0.00    +0.000 C 
ATOM     20  C   UNL     1       4.165   0.878  18.131  0.00  0.00    +0.000 C 
ATOM     21  C   UNL     1       4.443   2.024  20.317  0.00  0.00    +0.000 C 
ENDBRANCH  17  18
BRANCH  17  22
ATOM     22  O   UNL     1       5.445   3.716  18.266  0.00  0.00    +0.000 OA
ATOM     23  H   UNL     1       5.547   4.458  18.886  0.00  0.00    +0.000 HD
ENDBRANCH  17  22
ENDBRANCH   8  17
TORSDOF 5
ENDMDL
MODEL 4
REMARK VINA RESULT:      -6.3      0.456      1.245
REMARK  Name = 
REMARK  12 active torsions:
REMARK  status: ('A' for Active; 'I' for Inactive)
REMARK    1  A    between atoms: C_1  and  N_2
REMARK    2  A    between atoms: N_2  and  C_19
REMARK    3  A    between atoms: C_3  and  C_5
REMARK    4  A    between atoms: C_12  and  C_13
REMARK    5  A    between atoms: C_13  and  O_14
REMARK    6  A    between atoms: C_13  and  C_15
REMARK    7  A    between atoms: C_15  and  C_16
REMARK    8  A    between atoms: C_15  and  C_17
REMARK    9  A    between atoms: C_15  and  C_18
REMARK   10  A    between atoms: C_19  and  C_20
REMARK   11  A    between atoms: C_19  and  C_21
REMARK   12  A    between atoms: C_19  and  C_22
REMARK                            x       y       z     vdW  Elec       q    Type
REMARK                         _______ _______ _______ _____ _____    ______ ____
ROOT
ATOM      1  C   UNL     1       2.414   7.201  18.408  0.00  0.00    +0.000 C 
ATOM      2  C   UNL     1       1.955   5.876  17.775  0.00  0.00    +0.000 C 
ATOM      3  C   UNL     1       3.378   5.621  17.287  0.00  0.00    +0.000 C 
ATOM      4  C   UNL     1       3.871   6.899  17.971  0.00  0.00    +0.000 C 
ATOM      5  C   UNL     1       4.174   6.151  19.271  0.00  0.00    +0.000 C 
ATOM      6  C   UNL     1       2.685   6.455  19.737  0.00  0.00    +0.000 C 
ATOM      7  C   UNL     1       2.205   5.102  19.061  0.00  0.00    +0.000 C 
ATOM      8  C   UNL     1       3.699   4.780  18.538  0.00  0.00    +0.000 C 
ENDROOT
BRANCH   1  11
ATOM      9  C   UNL     1       1.045   8.565  20.684  0.00  0.00    +0.000 C 
ATOM     10  N   UNL     1       1.288   9.278  19.443  0.00  0.00    +0.000 N 
ATOM     11  C   UNL     1       1.890   8.634  18.334  0.00  0.00    +0.000 C 
ATOM     12  O   UNL     1       1.997   9.231  17.255  0.00  0.00    +0.000 OA
BRANCH  10  13
ATOM     13  C   UNL     1       0.935  10.746  19.392  0.00  0.00    +0.000 C 
ATOM     14  C   UNL     1       1.976  11.586  18.600  0.00  0.00    +0.000 C 
ATOM     15  C   UNL     1      -0.414  10.968  18.676  0.00  0.00    +0.000 C 
ATOM     16  C   UNL     1       0.880  11.342  20.812  0.00  0.00    +0.000 C 
ENDBRANCH  10  13
ENDBRANCH   1  11
BRANCH   8  17
ATOM     17  C   UNL     1       4.228   3.378  18.476  0.00  0.00    +0.000 C 
BRANCH  17  18
ATOM     18  C   UNL     1       3.334   2.288  19.147  0.00  0.00    +0.000 C 
ATOM     19  C   UNL     1       1.962   2.208  18.457  0.00  0.00    +0.000 C 
ATOM     20  C   UNL     1       4.014   0.908  18.990  0.00  0.00    +0.000 C 
ATOM     21  C   UNL     1       3.112   2.517  20.655  0.00  0.00    +0.000 C 
ENDBRANCH  17  18
BRANCH  17  22
ATOM     22  O   UNL     1       5.531   3.386  19.077  0.00  0.00    +0.000 OA
ATOM     23  H   UNL     1       5.671   2.531  19.517  0.00  0.00    +0.000 HD
ENDBRANCH  17  22
ENDBRANCH   8  17
TORSDOF 5
ENDMDL
MODEL 5
REMARK VINA RESULT:      -6.2      0.109      1.271
REMARK  Name = 
REMARK  12 active torsions:
REMARK  status: ('A' for Active; 'I' for Inactive)
REMARK    1  A    between atoms: C_1  and  N_2
REMARK    2  A    between atoms: N_2  and  C_19
REMARK    3  A    between atoms: C_3  and  C_5
REMARK    4  A    between atoms: C_12  and  C_13
REMARK    5  A    between atoms: C_13  and  O_14
REMARK    6  A    between atoms: C_13  and  C_15
REMARK    7  A    between atoms: C_15  and  C_16
REMARK    8  A    between atoms: C_15  and  C_17
REMARK    9  A    between atoms: C_15  and  C_18
REMARK   10  A    between atoms: C_19  and  C_20
REMARK   11  A    between atoms: C_19  and  C_21
REMARK   12  A    between atoms: C_19  and  C_22
REMARK                            x       y       z     vdW  Elec       q    Type
REMARK                         _______ _______ _______ _____ _____    ______ ____
ROOT
ATOM      1  C   UNL     1       2.617   7.183  18.343  0.00  0.00    +0.000 C 
ATOM      2  C   UNL     1       4.021   6.708  17.931  0.00  0.00    +0.000 C 
ATOM      3  C   UNL     1       4.175   6.007  19.278  0.00  0.00    +0.000 C 
ATOM      4  C   UNL     1       2.752   6.407  19.679  0.00  0.00    +0.000 C 
ATOM      5  C   UNL     1       2.164   5.131  19.072  0.00  0.00    +0.000 C 
ATOM      6  C   UNL     1       2.014   5.912  17.696  0.00  0.00    +0.000 C 
ATOM      7  C   UNL     1       3.474   5.448  17.281  0.00  0.00    +0.000 C 
ATOM      8  C   UNL     1       3.676   4.675  18.685  0.00  0.00    +0.000 C 
ENDROOT
BRANCH   1  11
ATOM      9  C   UNL     1       1.246   8.340  20.730  0.00  0.00    +0.000 C 
ATOM     10  N   UNL     1       1.326   9.097  19.494  0.00  0.00    +0.000 N 
ATOM     11  C   UNL     1       1.928   8.546  18.335  0.00  0.00    +0.000 C 
ATOM     12  O   UNL     1       1.897   9.169  17.266  0.00  0.00    +0.000 OA
BRANCH  10  13
ATOM     13  C   UNL     1       0.804  10.514  19.499  0.00  0.00    +0.000 C 
ATOM     14  C   UNL     1       0.673  11.101  20.932  0.00  0.00    +0.000 C 
ATOM     15  C   UNL     1       1.761  11.461  18.745  0.00  0.00    +0.000 C 
ATOM     16  C   UNL     1      -0.602  10.578  18.869  0.00  0.00    +0.000 C 
ENDBRANCH  10  13
ENDBRANCH   1  11
BRANCH   8  17
ATOM     17  C   UNL     1       4.447   3.391  18.775  0.00  0.00    +0.000 C 
BRANCH  17  18
ATOM     18  C   UNL     1       3.729   2.223  19.524  0.00  0.00    +0.000 C 
ATOM     19  C   UNL     1       4.704   1.065  19.791  0.00  0.00    +0.000 C 
ATOM     20  C   UNL     1       3.226   2.734  20.894  0.00  0.00    +0.000 C 
ATOM     21  C   UNL     1       2.504   1.670  18.768  0.00  0.00    +0.000 C 
ENDBRANCH  17  18
BRANCH  17  22
ATOM     22  O   UNL     1       5.698   3.689  19.411  0.00  0.00    +0.000 OA
ATOM     23  H   UNL     1       5.811   4.654  19.429  0.00  0.00    +0.000 HD
ENDBRANCH  17  22
ENDBRANCH   8  17
TORSDOF 5
ENDMDL
MODEL 6
REMARK VINA RESULT:      -6.2      0.493      1.436
REMARK  Name = 
REMARK  12 active torsions:
REMARK  status: ('A' for Active; 'I' for Inactive)
REMARK    1  A    between atoms: C_1  and  N_2
REMARK    2  A    between atoms: N_2  and  C_19
REMARK    3  A    between atoms: C_3  and  C_5
REMARK    4  A    between atoms: C_12  and  C_13
REMARK    5  A    between atoms: C_13  and  O_14
REMARK    6  A    between atoms: C_13  and  C_15
REMARK    7  A    between atoms: C_15  and  C_16
REMARK    8  A    between atoms: C_15  and  C_17
REMARK    9  A    between atoms: C_15  and  C_18
REMARK   10  A    between atoms: C_19  and  C_20
REMARK   11  A    between atoms: C_19  and  C_21
REMARK   12  A    between atoms: C_19  and  C_22
REMARK                            x       y       z     vdW  Elec       q    Type
REMARK                         _______ _______ _______ _____ _____    ______ ____
ROOT
ATOM      1  C   UNL     1       2.667   7.234  18.520  0.00  0.00    +0.000 C 
ATOM      2  C   UNL     1       2.979   6.288  19.692  0.00  0.00    +0.000 C 
ATOM      3  C   UNL     1       2.380   5.125  18.905  0.00  0.00    +0.000 C 
ATOM      4  C   UNL     1       2.127   6.034  17.700  0.00  0.00    +0.000 C 
ATOM      5  C   UNL     1       3.508   5.731  17.113  0.00  0.00    +0.000 C 
ATOM      6  C   UNL     1       4.078   6.961  17.943  0.00  0.00    +0.000 C 
ATOM      7  C   UNL     1       4.374   5.991  19.164  0.00  0.00    +0.000 C 
ATOM      8  C   UNL     1       3.767   4.725  18.364  0.00  0.00    +0.000 C 
ENDROOT
BRANCH   1  11
ATOM      9  C   UNL     1       1.170   8.464  20.791  0.00  0.00    +0.000 C 
ATOM     10  N   UNL     1       1.298   9.173  19.531  0.00  0.00    +0.000 N 
ATOM     11  C   UNL     1       1.961   8.586  18.424  0.00  0.00    +0.000 C 
ATOM     12  O   UNL     1       1.973   9.166  17.331  0.00  0.00    +0.000 OA
BRANCH  10  13
ATOM     13  C   UNL     1       0.758  10.581  19.454  0.00  0.00    +0.000 C 
ATOM     14  C   UNL     1       1.716  11.553  18.711  0.00  0.00    +0.000 C 
ATOM     15  C   UNL     1      -0.571  10.624  18.672  0.00  0.00    +0.000 C 
ATOM     16  C   UNL     1       0.554  11.163  20.867  0.00  0.00    +0.000 C 
ENDBRANCH  10  13
ENDBRANCH   1  11
BRANCH   8  17
ATOM     17  C   UNL     1       4.344   3.349  18.510  0.00  0.00    +0.000 C 
BRANCH  17  18
ATOM     18  C   UNL     1       3.345   2.243  18.977  0.00  0.00    +0.000 C 
ATOM     19  C   UNL     1       3.971   0.846  18.835  0.00  0.00    +0.000 C 
ATOM     20  C   UNL     1       3.017   2.457  20.473  0.00  0.00    +0.000 C 
ATOM     21  C   UNL     1       2.007   2.261  18.212  0.00  0.00    +0.000 C 
ENDBRANCH  17  18
BRANCH  17  22
ATOM     22  O   UNL     1       5.443   3.442  19.429  0.00  0.00    +0.000 OA
ATOM     23  H   UNL     1       6.222   3.031  19.018  0.00  0.00    +0.000 HD
ENDBRANCH  17  22
ENDBRANCH   8  17
TORSDOF 5
ENDMDL
MODEL 7
REMARK VINA RESULT:      -6.2      0.494      1.728
REMARK  Name = 
REMARK  12 active torsions:
REMARK  status: ('A' for Active; 'I' for Inactive)
REMARK    1  A    between atoms: C_1  and  N_2
REMARK    2  A    between atoms: N_2  and  C_19
REMARK    3  A    between atoms: C_3  and  C_5
REMARK    4  A    between atoms: C_12  and  C_13
REMARK    5  A    between atoms: C_13  and  O_14
REMARK    6  A    between atoms: C_13  and  C_15
REMARK    7  A    between atoms: C_15  and  C_16
REMARK    8  A    between atoms: C_15  and  C_17
REMARK    9  A    between atoms: C_15  and  C_18
REMARK   10  A    between atoms: C_19  and  C_20
REMARK   11  A    between atoms: C_19  and  C_21
REMARK   12  A    between atoms: C_19  and  C_22
REMARK                            x       y       z     vdW  Elec       q    Type
REMARK                         _______ _______ _______ _____ _____    ______ ____
ROOT
ATOM      1  C   UNL     1       2.405   7.209  18.424  0.00  0.00    +0.000 C 
ATOM      2  C   UNL     1       1.938   5.874  17.820  0.00  0.00    +0.000 C 
ATOM      3  C   UNL     1       3.347   5.628  17.286  0.00  0.00    +0.000 C 
ATOM      4  C   UNL     1       3.850   6.917  17.941  0.00  0.00    +0.000 C 
ATOM      5  C   UNL     1       4.204   6.185  19.238  0.00  0.00    +0.000 C 
ATOM      6  C   UNL     1       2.728   6.479  19.750  0.00  0.00    +0.000 C 
ATOM      7  C   UNL     1       2.238   5.116  19.103  0.00  0.00    +0.000 C 
ATOM      8  C   UNL     1       3.717   4.802  18.534  0.00  0.00    +0.000 C 
ENDROOT
BRANCH   1  11
ATOM      9  C   UNL     1       1.029   8.556  20.707  0.00  0.00    +0.000 C 
ATOM     10  N   UNL     1       1.260   9.273  19.466  0.00  0.00    +0.000 N 
ATOM     11  C   UNL     1       1.866   8.637  18.353  0.00  0.00    +0.000 C 
ATOM     12  O   UNL     1       1.963   9.237  17.275  0.00  0.00    +0.000 OA
BRANCH  10  13
ATOM     13  C   UNL     1       0.892  10.737  19.417  0.00  0.00    +0.000 C 
ATOM     14  C   UNL     1       0.857  11.395  20.825  0.00  0.00    +0.000 C 
ATOM     15  C   UNL     1       1.926  11.543  18.604  0.00  0.00    +0.000 C 
ATOM     16  C   UNL     1      -0.514  10.925  18.812  0.00  0.00    +0.000 C 
ENDBRANCH  10  13
ENDBRANCH   1  11
BRANCH   8  17
ATOM     17  C   UNL     1       4.258   3.405  18.468  0.00  0.00    +0.000 C 
BRANCH  17  18
ATOM     18  C   UNL     1       3.303   2.286  18.992  0.00  0.00    +0.000 C 
ATOM     19  C   UNL     1       3.975   0.906  18.899  0.00  0.00    +0.000 C 
ATOM     20  C   UNL     1       2.986   2.549  20.483  0.00  0.00    +0.000 C 
ATOM     21  C   UNL     1       1.956   2.227  18.245  0.00  0.00    +0.000 C 
ENDBRANCH  17  18
BRANCH  17  22
ATOM     22  O   UNL     1       5.489   3.388  19.203  0.00  0.00    +0.000 OA
ATOM     23  H   UNL     1       5.608   2.500  19.583  0.00  0.00    +0.000 HD
ENDBRANCH  17  22
ENDBRANCH   8  17
TORSDOF 5
ENDMDL
MODEL 8
REMARK VINA RESULT:      -6.2      1.181      1.956
REMARK  Name = 
REMARK  12 active torsions:
REMARK  status: ('A' for Active; 'I' for Inactive)
REMARK    1  A    between atoms: C_1  and  N_2
REMARK    2  A    between atoms: N_2  and  C_19
REMARK    3  A    between atoms: C_3  and  C_5
REMARK    4  A    between atoms: C_12  and  C_13
REMARK    5  A    between atoms: C_13  and  O_14
REMARK    6  A    between atoms: C_13  and  C_15
REMARK    7  A    between atoms: C_15  and  C_16
REMARK    8  A    between atoms: C_15  and  C_17
REMARK    9  A    between atoms: C_15  and  C_18
REMARK   10  A    between atoms: C_19  and  C_20
REMARK   11  A    between atoms: C_19  and  C_21
REMARK   12  A    between atoms: C_19  and  C_22
REMARK                            x       y       z     vdW  Elec       q    Type
REMARK                         _______ _______ _______ _____ _____    ______ ____
ROOT
ATOM      1  C   UNL     1       2.295   7.038  19.348  0.00  0.00    +0.000 C 
ATOM      2  C   UNL     1       3.761   6.740  18.989  0.00  0.00    +0.000 C 
ATOM      3  C   UNL     1       3.714   5.486  19.858  0.00  0.00    +0.000 C 
ATOM      4  C   UNL     1       2.234   5.724  20.170  0.00  0.00    +0.000 C 
ATOM      5  C   UNL     1       1.790   4.908  18.953  0.00  0.00    +0.000 C 
ATOM      6  C   UNL     1       1.843   6.246  18.097  0.00  0.00    +0.000 C 
ATOM      7  C   UNL     1       3.364   5.955  17.749  0.00  0.00    +0.000 C 
ATOM      8  C   UNL     1       3.357   4.609  18.641  0.00  0.00    +0.000 C 
ENDROOT
BRANCH   1  11
ATOM      9  C   UNL     1       2.096   9.583  17.799  0.00  0.00    +0.000 C 
ATOM     10  N   UNL     1       1.452   9.462  19.095  0.00  0.00    +0.000 N 
ATOM     11  C   UNL     1       1.577   8.282  19.868  0.00  0.00    +0.000 C 
ATOM     12  O   UNL     1       1.103   8.238  21.011  0.00  0.00    +0.000 OA
BRANCH  10  13
ATOM     13  C   UNL     1       0.593  10.612  19.565  0.00  0.00    +0.000 C 
ATOM     14  C   UNL     1      -0.927  10.332  19.403  0.00  0.00    +0.000 C 
ATOM     15  C   UNL     1       0.810  10.888  21.068  0.00  0.00    +0.000 C 
ATOM     16  C   UNL     1       0.893  11.886  18.750  0.00  0.00    +0.000 C 
ENDBRANCH  10  13
ENDBRANCH   1  11
BRANCH   8  17
ATOM     17  C   UNL     1       4.141   3.394  18.242  0.00  0.00    +0.000 C 
BRANCH  17  18
ATOM     18  C   UNL     1       3.752   2.070  18.974  0.00  0.00    +0.000 C 
ATOM     19  C   UNL     1       4.331   2.042  20.398  0.00  0.00    +0.000 C 
ATOM     20  C   UNL     1       2.212   1.993  19.096  0.00  0.00    +0.000 C 
ATOM     21  C   UNL     1       4.212   0.799  18.232  0.00  0.00    +0.000 C 
ENDBRANCH  17  18
BRANCH  17  22
ATOM     22  O   UNL     1       5.528   3.689  18.460  0.00  0.00    +0.000 OA
ATOM     23  H   UNL     1       5.862   3.095  19.154  0.00  0.00    +0.000 HD
ENDBRANCH  17  22
ENDBRANCH   8  17
TORSDOF 5
ENDMDL
MODEL 9
REMARK VINA RESULT:      -6.1      2.046      3.221
REMARK  Name = 
REMARK  12 active torsions:
REMARK  status: ('A' for Active; 'I' for Inactive)
REMARK    1  A    between atoms: C_1  and  N_2
REMARK    2  A    between atoms: N_2  and  C_19
REMARK    3  A    between atoms: C_3  and  C_5
REMARK    4  A    between atoms: C_12  and  C_13
REMARK    5  A    between atoms: C_13  and  O_14
REMARK    6  A    between atoms: C_13  and  C_15
REMARK    7  A    between atoms: C_15  and  C_16
REMARK    8  A    between atoms: C_15  and  C_17
REMARK    9  A    between atoms: C_15  and  C_18
REMARK   10  A    between atoms: C_19  and  C_20
REMARK   11  A    between atoms: C_19  and  C_21
REMARK   12  A    between atoms: C_19  and  C_22
REMARK                            x       y       z     vdW  Elec       q    Type
REMARK                         _______ _______ _______ _____ _____    ______ ____
ROOT
ATOM      1  C   UNL     1       2.450   6.713  19.362  0.00  0.00    +0.000 C 
ATOM      2  C   UNL     1       2.079   5.851  18.142  0.00  0.00    +0.000 C 
ATOM      3  C   UNL     1       3.394   6.241  17.473  0.00  0.00    +0.000 C 
ATOM      4  C   UNL     1       3.815   7.047  18.706  0.00  0.00    +0.000 C 
ATOM      5  C   UNL     1       4.489   5.827  19.339  0.00  0.00    +0.000 C 
ATOM      6  C   UNL     1       3.099   5.474  20.023  0.00  0.00    +0.000 C 
ATOM      7  C   UNL     1       2.703   4.606  18.754  0.00  0.00    +0.000 C 
ATOM      8  C   UNL     1       4.090   4.976  18.013  0.00  0.00    +0.000 C 
ENDROOT
BRANCH   1  11
ATOM      9  C   UNL     1       1.402   9.210  18.103  0.00  0.00    +0.000 C 
ATOM     10  N   UNL     1       1.176   8.951  19.513  0.00  0.00    +0.000 N 
ATOM     11  C   UNL     1       1.708   7.798  20.141  0.00  0.00    +0.000 C 
ATOM     12  O   UNL     1       1.587   7.648  21.364  0.00  0.00    +0.000 OA
BRANCH  10  13
ATOM     13  C   UNL     1       0.304   9.919  20.277  0.00  0.00    +0.000 C 
ATOM     14  C   UNL     1      -0.829  10.526  19.402  0.00  0.00    +0.000 C 
ATOM     15  C   UNL     1      -0.407   9.217  21.453  0.00  0.00    +0.000 C 
ATOM     16  C   UNL     1       1.136  11.106  20.800  0.00  0.00    +0.000 C 
ENDBRANCH  10  13
ENDBRANCH   1  11
BRANCH   8  17
ATOM     17  C   UNL     1       4.804   3.990  17.137  0.00  0.00    +0.000 C 
BRANCH  17  18
ATOM     18  C   UNL     1       6.005   4.561  16.318  0.00  0.00    +0.000 C 
ATOM     19  C   UNL     1       7.291   4.557  17.161  0.00  0.00    +0.000 C 
ATOM     20  C   UNL     1       6.253   3.657  15.087  0.00  0.00    +0.000 C 
ATOM     21  C   UNL     1       5.767   5.990  15.791  0.00  0.00    +0.000 C 
ENDBRANCH  17  18
BRANCH  17  22
ATOM     22  O   UNL     1       3.829   3.420  16.252  0.00  0.00    +0.000 OA
ATOM     23  H   UNL     1       3.443   4.136  15.719  0.00  0.00    +0.000 HD
ENDBRANCH  17  22
ENDBRANCH   8  17
TORSDOF 5
ENDMDL
