MODEL 1
REMARK VINA RESULT:      -8.3      0.000      0.000
REMARK  Name = 
REMARK  9 active torsions:
REMARK  status: ('A' for Active; 'I' for Inactive)
REMARK    1  A    between atoms: C_1  and  C_2
REMARK    2  A    between atoms: C_2  and  N_3
REMARK    3  A    between atoms: C_5  and  C_6
REMARK    4  A    between atoms: C_6  and  O_7
REMARK    5  A    between atoms: O_7  and  C_8
REMARK    6  A    between atoms: C_8  and  C_9
REMARK    7  A    between atoms: C_10  and  C_11
REMARK    8  A    between atoms: C_14  and  C_15
REMARK    9  A    between atoms: C_21  and  C_22
REMARK                            x       y       z     vdW  Elec       q    Type
REMARK                         _______ _______ _______ _____ _____    ______ ____
ROOT
ATOM      1  C   UNL     1       3.879   5.514  18.953  0.00  0.00    +0.000 A 
ATOM      2  C   UNL     1       2.780   6.099  19.597  0.00  0.00    +0.000 A 
ATOM      3  N   UNL     1       2.180   5.221  20.488  0.00  0.00    +0.000 NA
ATOM      4  C   UNL     1       2.911   4.157  20.388  0.00  0.00    +0.000 A 
ATOM      5  S   UNL     1       2.896   2.620  21.130  0.00  0.00    +0.000 S 
ATOM      6  C   UNL     1       4.331   2.268  20.146  0.00  0.00    +0.000 A 
ATOM      7  C   UNL     1       4.938   0.911  20.295  0.00  0.00    +0.000 C 
ATOM      8  N   UNL     1       4.779   3.198  19.341  0.00  0.00    +0.000 NA
ATOM      9  N   UNL     1       3.938   4.260  19.509  0.00  0.00    +0.000 N 
ENDROOT
BRANCH   2  10
ATOM     10  C   UNL     1       2.225   7.433  19.420  0.00  0.00    +0.000 A 
ATOM     11  C   UNL     1       2.272   8.007  18.143  0.00  0.00    +0.000 A 
ATOM     12  C   UNL     1       1.685   9.250  17.887  0.00  0.00    +0.000 A 
ATOM     13  C   UNL     1       1.039   9.943  18.912  0.00  0.00    +0.000 A 
ATOM     14  C   UNL     1       0.379  11.263  18.652  0.00  0.00    +0.000 C 
ATOM     15  C   UNL     1       0.988   9.373  20.190  0.00  0.00    +0.000 A 
ATOM     16  C   UNL     1       1.573   8.126  20.441  0.00  0.00    +0.000 A 
ENDBRANCH   2  10
BRANCH   1  17
ATOM     17  C   UNL     1       4.817   5.978  17.907  0.00  0.00    +0.000 C 
BRANCH  17  18
ATOM     18  O   UNL     1       6.099   6.043  18.522  0.00  0.00    +0.000 OA
BRANCH  18  19
ATOM     19  C   UNL     1       7.010   5.062  18.016  0.00  0.00    +0.000 C 
BRANCH  19  22
ATOM     20  N   UNL     1       6.512   4.360  14.489  0.00  0.00    +0.000 N 
ATOM     21  C   UNL     1       6.207   4.025  15.772  0.00  0.00    +0.000 A 
ATOM     22  C   UNL     1       6.905   4.935  16.538  0.00  0.00    +0.000 A 
ATOM     23  N   UNL     1       7.577   5.795  15.702  0.00  0.00    +0.000 NA
ATOM     24  N   UNL     1       7.326   5.431  14.447  0.00  0.00    +0.000 NA
BRANCH  20  26
ATOM     25  C   UNL     1       7.054   3.972  12.113  0.00  0.00    +0.000 C 
ATOM     26  C   UNL     1       6.131   3.670  13.279  0.00  0.00    +0.000 C 
ENDBRANCH  20  26
ENDBRANCH  19  22
ENDBRANCH  18  19
ENDBRANCH  17  18
ENDBRANCH   1  17
TORSDOF 6
ENDMDL
MODEL 2
REMARK VINA RESULT:      -8.3      0.794      1.311
REMARK  Name = 
REMARK  9 active torsions:
REMARK  status: ('A' for Active; 'I' for Inactive)
REMARK    1  A    between atoms: C_1  and  C_2
REMARK    2  A    between atoms: C_2  and  N_3
REMARK    3  A    between atoms: C_5  and  C_6
REMARK    4  A    between atoms: C_6  and  O_7
REMARK    5  A    between atoms: O_7  and  C_8
REMARK    6  A    between atoms: C_8  and  C_9
REMARK    7  A    between atoms: C_10  and  C_11
REMARK    8  A    between atoms: C_14  and  C_15
REMARK    9  A    between atoms: C_21  and  C_22
REMARK                            x       y       z     vdW  Elec       q    Type
REMARK                         _______ _______ _______ _____ _____    ______ ____
ROOT
ATOM      1  C   UNL     1       3.883   5.766  18.946  0.00  0.00    +0.000 A 
ATOM      2  C   UNL     1       2.703   6.313  19.468  0.00  0.00    +0.000 A 
ATOM      3  N   UNL     1       2.035   5.410  20.282  0.00  0.00    +0.000 NA
ATOM      4  C   UNL     1       2.804   4.369  20.257  0.00  0.00    +0.000 A 
ATOM      5  S   UNL     1       2.753   2.825  20.983  0.00  0.00    +0.000 S 
ATOM      6  C   UNL     1       4.298   2.524  20.161  0.00  0.00    +0.000 A 
ATOM      7  C   UNL     1       4.925   1.184  20.369  0.00  0.00    +0.000 C 
ATOM      8  N   UNL     1       4.804   3.474  19.416  0.00  0.00    +0.000 NA
ATOM      9  N   UNL     1       3.917   4.510  19.497  0.00  0.00    +0.000 N 
ENDROOT
BRANCH   2  10
ATOM     10  C   UNL     1       2.132   7.633  19.238  0.00  0.00    +0.000 A 
ATOM     11  C   UNL     1       1.449   8.253  20.292  0.00  0.00    +0.000 A 
ATOM     12  C   UNL     1       0.948   9.552  20.164  0.00  0.00    +0.000 A 
ATOM     13  C   UNL     1       1.122  10.254  18.971  0.00  0.00    +0.000 A 
ATOM     14  C   UNL     1       0.617  11.658  18.822  0.00  0.00    +0.000 C 
ATOM     15  C   UNL     1       1.805   9.639  17.914  0.00  0.00    +0.000 A 
ATOM     16  C   UNL     1       2.310   8.340  18.048  0.00  0.00    +0.000 A 
ENDBRANCH   2  10
BRANCH   1  17
ATOM     17  C   UNL     1       4.917   6.267  18.012  0.00  0.00    +0.000 C 
BRANCH  17  18
ATOM     18  O   UNL     1       5.275   5.164  17.186  0.00  0.00    +0.000 OA
BRANCH  18  19
ATOM     19  C   UNL     1       6.632   5.224  16.736  0.00  0.00    +0.000 C 
BRANCH  19  22
ATOM     20  N   UNL     1       6.581   4.081  13.290  0.00  0.00    +0.000 N 
ATOM     21  C   UNL     1       6.031   3.985  14.531  0.00  0.00    +0.000 A 
ATOM     22  C   UNL     1       6.739   4.894  15.290  0.00  0.00    +0.000 A 
ATOM     23  N   UNL     1       7.661   5.520  14.485  0.00  0.00    +0.000 NA
ATOM     24  N   UNL     1       7.553   5.012  13.260  0.00  0.00    +0.000 NA
BRANCH  20  26
ATOM     25  C   UNL     1       4.813   3.276  11.769  0.00  0.00    +0.000 C 
ATOM     26  C   UNL     1       6.288   3.278  12.127  0.00  0.00    +0.000 C 
ENDBRANCH  20  26
ENDBRANCH  19  22
ENDBRANCH  18  19
ENDBRANCH  17  18
ENDBRANCH   1  17
TORSDOF 6
ENDMDL
MODEL 3
REMARK VINA RESULT:      -7.8      2.445      6.620
REMARK  Name = 
REMARK  9 active torsions:
REMARK  status: ('A' for Active; 'I' for Inactive)
REMARK    1  A    between atoms: C_1  and  C_2
REMARK    2  A    between atoms: C_2  and  N_3
REMARK    3  A    between atoms: C_5  and  C_6
REMARK    4  A    between atoms: C_6  and  O_7
REMARK    5  A    between atoms: O_7  and  C_8
REMARK    6  A    between atoms: C_8  and  C_9
REMARK    7  A    between atoms: C_10  and  C_11
REMARK    8  A    between atoms: C_14  and  C_15
REMARK    9  A    between atoms: C_21  and  C_22
REMARK                            x       y       z     vdW  Elec       q    Type
REMARK                         _______ _______ _______ _____ _____    ______ ____
ROOT
ATOM      1  C   UNL     1       5.669   5.064  16.994  0.00  0.00    +0.000 A 
ATOM      2  C   UNL     1       4.732   4.022  17.003  0.00  0.00    +0.000 A 
ATOM      3  N   UNL     1       4.711   3.338  15.796  0.00  0.00    +0.000 NA
ATOM      4  C   UNL     1       5.619   3.945  15.100  0.00  0.00    +0.000 A 
ATOM      5  S   UNL     1       6.253   3.750  13.528  0.00  0.00    +0.000 S 
ATOM      6  C   UNL     1       7.321   5.112  13.923  0.00  0.00    +0.000 A 
ATOM      7  C   UNL     1       8.276   5.553  12.862  0.00  0.00    +0.000 C 
ATOM      8  N   UNL     1       7.219   5.662  15.107  0.00  0.00    +0.000 NA
ATOM      9  N   UNL     1       6.233   4.967  15.746  0.00  0.00    +0.000 N 
ENDROOT
BRANCH   2  10
ATOM     10  C   UNL     1       3.821   3.626  18.068  0.00  0.00    +0.000 A 
ATOM     11  C   UNL     1       4.366   3.109  19.250  0.00  0.00    +0.000 A 
ATOM     12  C   UNL     1       3.553   2.787  20.340  0.00  0.00    +0.000 A 
ATOM     13  C   UNL     1       2.172   2.976  20.264  0.00  0.00    +0.000 A 
ATOM     14  C   UNL     1       1.286   2.663  21.432  0.00  0.00    +0.000 C 
ATOM     15  C   UNL     1       1.622   3.494  19.085  0.00  0.00    +0.000 A 
ATOM     16  C   UNL     1       2.440   3.820  17.997  0.00  0.00    +0.000 A 
ENDBRANCH   2  10
BRANCH   1  17
ATOM     17  C   UNL     1       6.053   6.103  17.976  0.00  0.00    +0.000 C 
BRANCH  17  18
ATOM     18  O   UNL     1       5.416   7.304  17.553  0.00  0.00    +0.000 OA
BRANCH  18  19
ATOM     19  C   UNL     1       4.081   7.089  17.082  0.00  0.00    +0.000 C 
BRANCH  19  22
ATOM     20  N   UNL     1       1.574   8.770  19.099  0.00  0.00    +0.000 N 
ATOM     21  C   UNL     1       2.237   8.722  17.912  0.00  0.00    +0.000 A 
ATOM     22  C   UNL     1       3.076   7.634  18.033  0.00  0.00    +0.000 A 
ATOM     23  N   UNL     1       2.874   7.053  19.263  0.00  0.00    +0.000 NA
ATOM     24  N   UNL     1       1.948   7.760  19.907  0.00  0.00    +0.000 NA
BRANCH  20  26
ATOM     25  C   UNL     1      -0.263  10.283  18.447  0.00  0.00    +0.000 C 
ATOM     26  C   UNL     1       0.643   9.776  19.554  0.00  0.00    +0.000 C 
ENDBRANCH  20  26
ENDBRANCH  19  22
ENDBRANCH  18  19
ENDBRANCH  17  18
ENDBRANCH   1  17
TORSDOF 6
ENDMDL
MODEL 4
REMARK VINA RESULT:      -7.8      1.043      1.124
REMARK  Name = 
REMARK  9 active torsions:
REMARK  status: ('A' for Active; 'I' for Inactive)
REMARK    1  A    between atoms: C_1  and  C_2
REMARK    2  A    between atoms: C_2  and  N_3
REMARK    3  A    between atoms: C_5  and  C_6
REMARK    4  A    between atoms: C_6  and  O_7
REMARK    5  A    between atoms: O_7  and  C_8
REMARK    6  A    between atoms: C_8  and  C_9
REMARK    7  A    between atoms: C_10  and  C_11
REMARK    8  A    between atoms: C_14  and  C_15
REMARK    9  A    between atoms: C_21  and  C_22
REMARK                            x       y       z     vdW  Elec       q    Type
REMARK                         _______ _______ _______ _____ _____    ______ ____
ROOT
ATOM      1  C   UNL     1       2.966   5.955  18.559  0.00  0.00    +0.000 A 
ATOM      2  C   UNL     1       2.232   6.477  19.632  0.00  0.00    +0.000 A 
ATOM      3  N   UNL     1       1.879   5.491  20.541  0.00  0.00    +0.000 NA
ATOM      4  C   UNL     1       2.402   4.422  20.032  0.00  0.00    +0.000 A 
ATOM      5  S   UNL     1       2.467   2.781  20.498  0.00  0.00    +0.000 S 
ATOM      6  C   UNL     1       3.423   2.529  19.023  0.00  0.00    +0.000 A 
ATOM      7  C   UNL     1       3.883   1.135  18.746  0.00  0.00    +0.000 C 
ATOM      8  N   UNL     1       3.671   3.560  18.256  0.00  0.00    +0.000 NA
ATOM      9  N   UNL     1       3.067   4.621  18.867  0.00  0.00    +0.000 N 
ENDROOT
BRANCH   2  10
ATOM     10  C   UNL     1       1.808   7.852  19.862  0.00  0.00    +0.000 A 
ATOM     11  C   UNL     1       1.724   8.713  18.761  0.00  0.00    +0.000 A 
ATOM     12  C   UNL     1       1.247  10.019  18.901  0.00  0.00    +0.000 A 
ATOM     13  C   UNL     1       0.845  10.488  20.152  0.00  0.00    +0.000 A 
ATOM     14  C   UNL     1       0.303  11.876  20.319  0.00  0.00    +0.000 C 
ATOM     15  C   UNL     1       0.925   9.630  21.256  0.00  0.00    +0.000 A 
ATOM     16  C   UNL     1       1.399   8.321  21.112  0.00  0.00    +0.000 A 
ENDBRANCH   2  10
BRANCH   1  17
ATOM     17  C   UNL     1       3.533   6.543  17.324  0.00  0.00    +0.000 C 
BRANCH  17  18
ATOM     18  O   UNL     1       4.824   7.032  17.674  0.00  0.00    +0.000 OA
BRANCH  18  19
ATOM     19  C   UNL     1       5.810   5.997  17.741  0.00  0.00    +0.000 C 
BRANCH  19  22
ATOM     20  N   UNL     1       6.412   4.600  14.445  0.00  0.00    +0.000 N 
ATOM     21  C   UNL     1       5.567   4.692  15.507  0.00  0.00    +0.000 A 
ATOM     22  C   UNL     1       6.211   5.539  16.384  0.00  0.00    +0.000 A 
ATOM     23  N   UNL     1       7.394   5.948  15.817  0.00  0.00    +0.000 NA
ATOM     24  N   UNL     1       7.505   5.364  14.626  0.00  0.00    +0.000 NA
BRANCH  20  26
ATOM     25  C   UNL     1       7.148   4.219  12.120  0.00  0.00    +0.000 C 
ATOM     26  C   UNL     1       6.281   3.760  13.278  0.00  0.00    +0.000 C 
ENDBRANCH  20  26
ENDBRANCH  19  22
ENDBRANCH  18  19
ENDBRANCH  17  18
ENDBRANCH   1  17
TORSDOF 6
ENDMDL
MODEL 5
REMARK VINA RESULT:      -7.7      2.326      5.224
REMARK  Name = 
REMARK  9 active torsions:
REMARK  status: ('A' for Active; 'I' for Inactive)
REMARK    1  A    between atoms: C_1  and  C_2
REMARK    2  A    between atoms: C_2  and  N_3
REMARK    3  A    between atoms: C_5  and  C_6
REMARK    4  A    between atoms: C_6  and  O_7
REMARK    5  A    between atoms: O_7  and  C_8
REMARK    6  A    between atoms: C_8  and  C_9
REMARK    7  A    between atoms: C_10  and  C_11
REMARK    8  A    between atoms: C_14  and  C_15
REMARK    9  A    between atoms: C_21  and  C_22
REMARK                            x       y       z     vdW  Elec       q    Type
REMARK                         _______ _______ _______ _____ _____    ______ ____
ROOT
ATOM      1  C   UNL     1       2.302   7.684  18.841  0.00  0.00    +0.000 A 
ATOM      2  C   UNL     1       2.123   6.545  19.638  0.00  0.00    +0.000 A 
ATOM      3  N   UNL     1       1.459   6.843  20.819  0.00  0.00    +0.000 NA
ATOM      4  C   UNL     1       1.237   8.115  20.716  0.00  0.00    +0.000 A 
ATOM      5  S   UNL     1       0.470   9.280  21.700  0.00  0.00    +0.000 S 
ATOM      6  C   UNL     1       0.860  10.441  20.415  0.00  0.00    +0.000 A 
ATOM      7  C   UNL     1       0.434  11.857  20.630  0.00  0.00    +0.000 C 
ATOM      8  N   UNL     1       1.500  10.010  19.357  0.00  0.00    +0.000 NA
ATOM      9  N   UNL     1       1.698   8.676  19.571  0.00  0.00    +0.000 N 
ENDROOT
BRANCH   2  10
ATOM     10  C   UNL     1       2.556   5.178  19.383  0.00  0.00    +0.000 A 
ATOM     11  C   UNL     1       1.743   4.363  18.584  0.00  0.00    +0.000 A 
ATOM     12  C   UNL     1       2.140   3.069  18.234  0.00  0.00    +0.000 A 
ATOM     13  C   UNL     1       3.362   2.566  18.682  0.00  0.00    +0.000 A 
ATOM     14  C   UNL     1       3.819   1.192  18.295  0.00  0.00    +0.000 C 
ATOM     15  C   UNL     1       4.179   3.377  19.480  0.00  0.00    +0.000 A 
ATOM     16  C   UNL     1       3.781   4.674  19.824  0.00  0.00    +0.000 A 
ENDBRANCH   2  10
BRANCH   1  17
ATOM     17  C   UNL     1       2.970   7.929  17.542  0.00  0.00    +0.000 C 
BRANCH  17  18
ATOM     18  O   UNL     1       3.712   6.750  17.249  0.00  0.00    +0.000 OA
BRANCH  18  19
ATOM     19  C   UNL     1       5.127   6.951  17.321  0.00  0.00    +0.000 C 
BRANCH  19  22
ATOM     20  N   UNL     1       6.450   4.875  14.653  0.00  0.00    +0.000 N 
ATOM     21  C   UNL     1       5.343   5.342  15.292  0.00  0.00    +0.000 A 
ATOM     22  C   UNL     1       5.840   6.176  16.272  0.00  0.00    +0.000 A 
ATOM     23  N   UNL     1       7.211   6.206  16.174  0.00  0.00    +0.000 NA
ATOM     24  N   UNL     1       7.572   5.404  15.176  0.00  0.00    +0.000 NA
BRANCH  20  26
ATOM     25  C   UNL     1       5.215   3.750  12.837  0.00  0.00    +0.000 C 
ATOM     26  C   UNL     1       6.517   3.884  13.605  0.00  0.00    +0.000 C 
ENDBRANCH  20  26
ENDBRANCH  19  22
ENDBRANCH  18  19
ENDBRANCH  17  18
ENDBRANCH   1  17
TORSDOF 6
ENDMDL
MODEL 6
REMARK VINA RESULT:      -7.6      2.278      5.219
REMARK  Name = 
REMARK  9 active torsions:
REMARK  status: ('A' for Active; 'I' for Inactive)
REMARK    1  A    between atoms: C_1  and  C_2
REMARK    2  A    between atoms: C_2  and  N_3
REMARK    3  A    between atoms: C_5  and  C_6
REMARK    4  A    between atoms: C_6  and  O_7
REMARK    5  A    between atoms: O_7  and  C_8
REMARK    6  A    between atoms: C_8  and  C_9
REMARK    7  A    between atoms: C_10  and  C_11
REMARK    8  A    between atoms: C_14  and  C_15
REMARK    9  A    between atoms: C_21  and  C_22
REMARK                            x       y       z     vdW  Elec       q    Type
REMARK                         _______ _______ _______ _____ _____    ______ ____
ROOT
ATOM      1  C   UNL     1       2.329   7.677  18.884  0.00  0.00    +0.000 A 
ATOM      2  C   UNL     1       2.141   6.470  19.571  0.00  0.00    +0.000 A 
ATOM      3  N   UNL     1       1.449   6.657  20.758  0.00  0.00    +0.000 NA
ATOM      4  C   UNL     1       1.220   7.931  20.766  0.00  0.00    +0.000 A 
ATOM      5  S   UNL     1       0.422   8.998  21.833  0.00  0.00    +0.000 S 
ATOM      6  C   UNL     1       0.832  10.273  20.667  0.00  0.00    +0.000 A 
ATOM      7  C   UNL     1       0.390  11.661  21.000  0.00  0.00    +0.000 C 
ATOM      8  N   UNL     1       1.498   9.942  19.590  0.00  0.00    +0.000 NA
ATOM      9  N   UNL     1       1.701   8.596  19.687  0.00  0.00    +0.000 N 
ENDROOT
BRANCH   2  10
ATOM     10  C   UNL     1       2.589   5.134  19.203  0.00  0.00    +0.000 A 
ATOM     11  C   UNL     1       3.765   4.644  19.787  0.00  0.00    +0.000 A 
ATOM     12  C   UNL     1       4.205   3.341  19.540  0.00  0.00    +0.000 A 
ATOM     13  C   UNL     1       3.473   2.502  18.699  0.00  0.00    +0.000 A 
ATOM     14  C   UNL     1       3.913   1.092  18.443  0.00  0.00    +0.000 C 
ATOM     15  C   UNL     1       2.296   2.986  18.114  0.00  0.00    +0.000 A 
ATOM     16  C   UNL     1       1.855   4.290  18.368  0.00  0.00    +0.000 A 
ENDBRANCH   2  10
BRANCH   1  17
ATOM     17  C   UNL     1       3.023   8.042  17.628  0.00  0.00    +0.000 C 
BRANCH  17  18
ATOM     18  O   UNL     1       3.702   6.868  17.194  0.00  0.00    +0.000 OA
BRANCH  18  19
ATOM     19  C   UNL     1       5.126   6.995  17.254  0.00  0.00    +0.000 C 
BRANCH  19  22
ATOM     20  N   UNL     1       6.319   4.809  14.612  0.00  0.00    +0.000 N 
ATOM     21  C   UNL     1       5.243   5.329  15.263  0.00  0.00    +0.000 A 
ATOM     22  C   UNL     1       5.789   6.170  16.210  0.00  0.00    +0.000 A 
ATOM     23  N   UNL     1       7.157   6.151  16.082  0.00  0.00    +0.000 NA
ATOM     24  N   UNL     1       7.469   5.312  15.097  0.00  0.00    +0.000 NA
BRANCH  20  26
ATOM     25  C   UNL     1       7.029   4.236  12.320  0.00  0.00    +0.000 C 
ATOM     26  C   UNL     1       6.328   3.790  13.589  0.00  0.00    +0.000 C 
ENDBRANCH  20  26
ENDBRANCH  19  22
ENDBRANCH  18  19
ENDBRANCH  17  18
ENDBRANCH   1  17
TORSDOF 6
ENDMDL
MODEL 7
REMARK VINA RESULT:      -7.6      0.632      1.136
REMARK  Name = 
REMARK  9 active torsions:
REMARK  status: ('A' for Active; 'I' for Inactive)
REMARK    1  A    between atoms: C_1  and  C_2
REMARK    2  A    between atoms: C_2  and  N_3
REMARK    3  A    between atoms: C_5  and  C_6
REMARK    4  A    between atoms: C_6  and  O_7
REMARK    5  A    between atoms: O_7  and  C_8
REMARK    6  A    between atoms: C_8  and  C_9
REMARK    7  A    between atoms: C_10  and  C_11
REMARK    8  A    between atoms: C_14  and  C_15
REMARK    9  A    between atoms: C_21  and  C_22
REMARK                            x       y       z     vdW  Elec       q    Type
REMARK                         _______ _______ _______ _____ _____    ______ ____
ROOT
ATOM      1  C   UNL     1       4.046   5.561  19.146  0.00  0.00    +0.000 A 
ATOM      2  C   UNL     1       2.780   6.050  19.499  0.00  0.00    +0.000 A 
ATOM      3  N   UNL     1       2.018   5.085  20.140  0.00  0.00    +0.000 NA
ATOM      4  C   UNL     1       2.813   4.064  20.182  0.00  0.00    +0.000 A 
ATOM      5  S   UNL     1       2.694   2.478  20.802  0.00  0.00    +0.000 S 
ATOM      6  C   UNL     1       4.359   2.261  20.226  0.00  0.00    +0.000 A 
ATOM      7  C   UNL     1       4.986   0.924  20.456  0.00  0.00    +0.000 C 
ATOM      8  N   UNL     1       4.949   3.265  19.629  0.00  0.00    +0.000 NA
ATOM      9  N   UNL     1       4.030   4.275  19.622  0.00  0.00    +0.000 N 
ENDROOT
BRANCH   2  10
ATOM     10  C   UNL     1       2.212   7.368  19.254  0.00  0.00    +0.000 A 
ATOM     11  C   UNL     1       1.609   8.040  20.325  0.00  0.00    +0.000 A 
ATOM     12  C   UNL     1       1.118   9.340  20.178  0.00  0.00    +0.000 A 
ATOM     13  C   UNL     1       1.222   9.993  18.949  0.00  0.00    +0.000 A 
ATOM     14  C   UNL     1       0.727  11.398  18.778  0.00  0.00    +0.000 C 
ATOM     15  C   UNL     1       1.826   9.327  17.875  0.00  0.00    +0.000 A 
ATOM     16  C   UNL     1       2.321   8.026  18.028  0.00  0.00    +0.000 A 
ENDBRANCH   2  10
BRANCH   1  17
ATOM     17  C   UNL     1       5.200   6.141  18.422  0.00  0.00    +0.000 C 
BRANCH  17  18
ATOM     18  O   UNL     1       6.346   5.874  19.225  0.00  0.00    +0.000 OA
BRANCH  18  19
ATOM     19  C   UNL     1       7.545   5.743  18.455  0.00  0.00    +0.000 C 
BRANCH  19  22
ATOM     20  N   UNL     1       6.684   4.409  15.191  0.00  0.00    +0.000 N 
ATOM     21  C   UNL     1       6.653   4.230  16.539  0.00  0.00    +0.000 A 
ATOM     22  C   UNL     1       7.249   5.365  17.048  0.00  0.00    +0.000 A 
ATOM     23  N   UNL     1       7.588   6.193  16.004  0.00  0.00    +0.000 NA
ATOM     24  N   UNL     1       7.235   5.593  14.870  0.00  0.00    +0.000 NA
BRANCH  20  26
ATOM     25  C   UNL     1       5.292   4.073  13.181  0.00  0.00    +0.000 C 
ATOM     26  C   UNL     1       6.281   3.476  14.164  0.00  0.00    +0.000 C 
ENDBRANCH  20  26
ENDBRANCH  19  22
ENDBRANCH  18  19
ENDBRANCH  17  18
ENDBRANCH   1  17
TORSDOF 6
ENDMDL
MODEL 8
REMARK VINA RESULT:      -7.6      2.757      6.802
REMARK  Name = 
REMARK  9 active torsions:
REMARK  status: ('A' for Active; 'I' for Inactive)
REMARK    1  A    between atoms: C_1  and  C_2
REMARK    2  A    between atoms: C_2  and  N_3
REMARK    3  A    between atoms: C_5  and  C_6
REMARK    4  A    between atoms: C_6  and  O_7
REMARK    5  A    between atoms: O_7  and  C_8
REMARK    6  A    between atoms: C_8  and  C_9
REMARK    7  A    between atoms: C_10  and  C_11
REMARK    8  A    between atoms: C_14  and  C_15
REMARK    9  A    between atoms: C_21  and  C_22
REMARK                            x       y       z     vdW  Elec       q    Type
REMARK                         _______ _______ _______ _____ _____    ______ ____
ROOT
ATOM      1  C   UNL     1       5.508   5.119  17.011  0.00  0.00    +0.000 A 
ATOM      2  C   UNL     1       4.661   4.005  17.085  0.00  0.00    +0.000 A 
ATOM      3  N   UNL     1       4.725   3.234  15.934  0.00  0.00    +0.000 NA
ATOM      4  C   UNL     1       5.594   3.862  15.209  0.00  0.00    +0.000 A 
ATOM      5  S   UNL     1       6.277   3.605  13.666  0.00  0.00    +0.000 S 
ATOM      6  C   UNL     1       7.218   5.079  13.973  0.00  0.00    +0.000 A 
ATOM      7  C   UNL     1       8.156   5.519  12.896  0.00  0.00    +0.000 C 
ATOM      8  N   UNL     1       7.044   5.705  15.109  0.00  0.00    +0.000 NA
ATOM      9  N   UNL     1       6.106   4.978  15.784  0.00  0.00    +0.000 N 
ENDROOT
BRANCH   2  10
ATOM     10  C   UNL     1       3.763   3.613  18.163  0.00  0.00    +0.000 A 
ATOM     11  C   UNL     1       4.311   2.983  19.288  0.00  0.00    +0.000 A 
ATOM     12  C   UNL     1       3.517   2.656  20.391  0.00  0.00    +0.000 A 
ATOM     13  C   UNL     1       2.154   2.954  20.385  0.00  0.00    +0.000 A 
ATOM     14  C   UNL     1       1.291   2.638  21.570  0.00  0.00    +0.000 C 
ATOM     15  C   UNL     1       1.602   3.586  19.264  0.00  0.00    +0.000 A 
ATOM     16  C   UNL     1       2.400   3.917  18.163  0.00  0.00    +0.000 A 
ENDBRANCH   2  10
BRANCH   1  17
ATOM     17  C   UNL     1       5.782   6.258  17.917  0.00  0.00    +0.000 C 
BRANCH  17  18
ATOM     18  O   UNL     1       4.519   6.670  18.429  0.00  0.00    +0.000 OA
BRANCH  18  19
ATOM     19  C   UNL     1       3.709   7.327  17.448  0.00  0.00    +0.000 C 
BRANCH  19  22
ATOM     20  N   UNL     1       1.206   9.143  19.349  0.00  0.00    +0.000 N 
ATOM     21  C   UNL     1       2.090   8.110  19.325  0.00  0.00    +0.000 A 
ATOM     22  C   UNL     1       2.686   8.199  18.084  0.00  0.00    +0.000 A 
ATOM     23  N   UNL     1       2.168   9.286  17.421  0.00  0.00    +0.000 NA
ATOM     24  N   UNL     1       1.261   9.857  18.210  0.00  0.00    +0.000 NA
BRANCH  20  26
ATOM     25  C   UNL     1       0.542   8.776  21.698  0.00  0.00    +0.000 C 
ATOM     26  C   UNL     1       0.241   9.459  20.376  0.00  0.00    +0.000 C 
ENDBRANCH  20  26
ENDBRANCH  19  22
ENDBRANCH  18  19
ENDBRANCH  17  18
ENDBRANCH   1  17
TORSDOF 6
ENDMDL
MODEL 9
REMARK VINA RESULT:      -7.5      1.270      1.402
REMARK  Name = 
REMARK  9 active torsions:
REMARK  status: ('A' for Active; 'I' for Inactive)
REMARK    1  A    between atoms: C_1  and  C_2
REMARK    2  A    between atoms: C_2  and  N_3
REMARK    3  A    between atoms: C_5  and  C_6
REMARK    4  A    between atoms: C_6  and  O_7
REMARK    5  A    between atoms: O_7  and  C_8
REMARK    6  A    between atoms: C_8  and  C_9
REMARK    7  A    between atoms: C_10  and  C_11
REMARK    8  A    between atoms: C_14  and  C_15
REMARK    9  A    between atoms: C_21  and  C_22
REMARK                            x       y       z     vdW  Elec       q    Type
REMARK                         _______ _______ _______ _____ _____    ______ ____
ROOT
ATOM      1  C   UNL     1       3.882   5.674  18.805  0.00  0.00    +0.000 A 
ATOM      2  C   UNL     1       2.591   6.208  18.923  0.00  0.00    +0.000 A 
ATOM      3  N   UNL     1       1.623   5.216  18.925  0.00  0.00    +0.000 NA
ATOM      4  C   UNL     1       2.318   4.128  18.829  0.00  0.00    +0.000 A 
ATOM      5  S   UNL     1       1.939   2.464  18.778  0.00  0.00    +0.000 S 
ATOM      6  C   UNL     1       3.691   2.195  18.677  0.00  0.00    +0.000 A 
ATOM      7  C   UNL     1       4.153   0.777  18.588  0.00  0.00    +0.000 C 
ATOM      8  N   UNL     1       4.484   3.237  18.679  0.00  0.00    +0.000 NA
ATOM      9  N   UNL     1       3.659   4.321  18.764  0.00  0.00    +0.000 N 
ENDROOT
BRANCH   2  10
ATOM     10  C   UNL     1       2.188   7.605  19.011  0.00  0.00    +0.000 A 
ATOM     11  C   UNL     1       2.323   8.408  17.871  0.00  0.00    +0.000 A 
ATOM     12  C   UNL     1       1.880   9.733  17.864  0.00  0.00    +0.000 A 
ATOM     13  C   UNL     1       1.292  10.281  19.005  0.00  0.00    +0.000 A 
ATOM     14  C   UNL     1       0.784  11.691  19.010  0.00  0.00    +0.000 C 
ATOM     15  C   UNL     1       1.153   9.482  20.147  0.00  0.00    +0.000 A 
ATOM     16  C   UNL     1       1.594   8.154  20.149  0.00  0.00    +0.000 A 
ENDBRANCH   2  10
BRANCH   1  17
ATOM     17  C   UNL     1       5.232   6.274  18.708  0.00  0.00    +0.000 C 
BRANCH  17  18
ATOM     18  O   UNL     1       5.453   6.533  17.326  0.00  0.00    +0.000 OA
BRANCH  18  19
ATOM     19  C   UNL     1       6.640   5.910  16.826  0.00  0.00    +0.000 C 
BRANCH  19  22
ATOM     20  N   UNL     1       6.395   4.160  13.655  0.00  0.00    +0.000 N 
ATOM     21  C   UNL     1       7.183   4.872  14.506  0.00  0.00    +0.000 A 
ATOM     22  C   UNL     1       6.367   5.136  15.587  0.00  0.00    +0.000 A 
ATOM     23  N   UNL     1       5.140   4.557  15.366  0.00  0.00    +0.000 NA
ATOM     24  N   UNL     1       5.171   3.961  14.177  0.00  0.00    +0.000 NA
BRANCH  20  26
ATOM     25  C   UNL     1       5.772   2.631  11.821  0.00  0.00    +0.000 C 
ATOM     26  C   UNL     1       6.714   3.711  12.320  0.00  0.00    +0.000 C 
ENDBRANCH  20  26
ENDBRANCH  19  22
ENDBRANCH  18  19
ENDBRANCH  17  18
ENDBRANCH   1  17
TORSDOF 6
ENDMDL
