MODEL 1
REMARK VINA RESULT:      -8.6      0.000      0.000
REMARK  Name = 
REMARK  10 active torsions:
REMARK  status: ('A' for Active; 'I' for Inactive)
REMARK    1  A    between atoms: C_1  and  C_2
REMARK    2  A    between atoms: C_2  and  C_3
REMARK    3  A    between atoms: C_3  and  N_4
REMARK    4  A    between atoms: C_9  and  C_10
REMARK    5  A    between atoms: N_13  and  C_14
REMARK    6  A    between atoms: C_14  and  C_15
REMARK    7  A    between atoms: C_19  and  C_20
REMARK    8  A    between atoms: N_25  and  C_26
REMARK    9  A    between atoms: C_26  and  C_27
REMARK   10  A    between atoms: C_27  and  C_28
REMARK                            x       y       z     vdW  Elec       q    Type
REMARK                         _______ _______ _______ _____ _____    ______ ____
ROOT
ATOM      1  N   UNL     1       5.075   5.010  17.649  0.00  0.00    +0.000 N 
ATOM      2  C   UNL     1       4.581   6.249  17.193  0.00  0.00    +0.000 A 
ATOM      3  O   UNL     1       4.959   6.800  16.161  0.00  0.00    +0.000 OA
ATOM      4  C   UNL     1       3.585   6.821  18.070  0.00  0.00    +0.000 A 
ATOM      5  N   UNL     1       2.901   8.010  17.953  0.00  0.00    +0.000 NA
ATOM      6  C   UNL     1       2.134   8.078  19.026  0.00  0.00    +0.000 A 
ATOM      7  N   UNL     1       2.311   6.973  19.826  0.00  0.00    +0.000 N 
ATOM      8  C   UNL     1       3.195   6.149  19.194  0.00  0.00    +0.000 A 
ATOM      9  N   UNL     1       3.625   4.896  19.575  0.00  0.00    +0.000 N 
ATOM     10  C   UNL     1       4.614   4.290  18.774  0.00  0.00    +0.000 A 
ATOM     11  O   UNL     1       5.062   3.175  19.051  0.00  0.00    +0.000 OA
ATOM     12  H   UNL     1       1.836   6.802  20.699  0.00  0.00    +0.000 HD
ENDROOT
BRANCH   6  13
ATOM     13  C   UNL     1       1.188   9.180  19.317  0.00  0.00    +0.000 A 
ATOM     14  C   UNL     1       0.405   9.415  20.460  0.00  0.00    +0.000 A 
ATOM     15  N   UNL     1      -0.372  10.494  20.332  0.00  0.00    +0.000 NA
ATOM     16  N   UNL     1      -0.056  10.970  19.103  0.00  0.00    +0.000 N 
ATOM     17  C   UNL     1       0.880  10.209  18.460  0.00  0.00    +0.000 A 
BRANCH  16  18
ATOM     18  C   UNL     1      -0.781  12.105  18.547  0.00  0.00    +0.000 C 
BRANCH  18  19
ATOM     19  C   UNL     1      -2.107  11.689  17.964  0.00  0.00    +0.000 A 
ATOM     20  C   UNL     1      -3.294  11.905  18.678  0.00  0.00    +0.000 A 
ATOM     21  C   UNL     1      -4.524  11.546  18.128  0.00  0.00    +0.000 A 
ATOM     22  C   UNL     1      -4.584  10.979  16.856  0.00  0.00    +0.000 A 
ATOM     23  C   UNL     1      -3.413  10.760  16.123  0.00  0.00    +0.000 A 
ATOM     24  C   UNL     1      -3.463  10.184  14.739  0.00  0.00    +0.000 C 
ATOM     25  C   UNL     1      -2.179  11.111  16.687  0.00  0.00    +0.000 A 
ENDBRANCH  18  19
ENDBRANCH  16  18
ENDBRANCH   6  13
BRANCH   1  26
ATOM     26  C   UNL     1       6.149   4.413  16.860  0.00  0.00    +0.000 C 
BRANCH  26  28
ATOM     27  C   UNL     1       7.602   5.771  18.472  0.00  0.00    +0.000 C 
ATOM     28  C   UNL     1       7.543   4.632  17.465  0.00  0.00    +0.000 C 
ENDBRANCH  26  28
ENDBRANCH   1  26
BRANCH   9  29
ATOM     29  C   UNL     1       3.122   4.181  20.753  0.00  0.00    +0.000 C 
BRANCH  29  30
ATOM     30  C   UNL     1       1.972   3.210  20.459  0.00  0.00    +0.000 C 
ATOM     31  C   UNL     1       1.371   2.581  21.707  0.00  0.00    +0.000 C 
ENDBRANCH  29  30
ENDBRANCH   9  29
TORSDOF 7
ENDMDL
MODEL 2
REMARK VINA RESULT:      -8.5      0.970      1.424
REMARK  Name = 
REMARK  10 active torsions:
REMARK  status: ('A' for Active; 'I' for Inactive)
REMARK    1  A    between atoms: C_1  and  C_2
REMARK    2  A    between atoms: C_2  and  C_3
REMARK    3  A    between atoms: C_3  and  N_4
REMARK    4  A    between atoms: C_9  and  C_10
REMARK    5  A    between atoms: N_13  and  C_14
REMARK    6  A    between atoms: C_14  and  C_15
REMARK    7  A    between atoms: C_19  and  C_20
REMARK    8  A    between atoms: N_25  and  C_26
REMARK    9  A    between atoms: C_26  and  C_27
REMARK   10  A    between atoms: C_27  and  C_28
REMARK                            x       y       z     vdW  Elec       q    Type
REMARK                         _______ _______ _______ _____ _____    ______ ____
ROOT
ATOM      1  N   UNL     1       4.814   5.273  17.605  0.00  0.00    +0.000 N 
ATOM      2  C   UNL     1       4.514   6.517  17.014  0.00  0.00    +0.000 A 
ATOM      3  O   UNL     1       5.036   6.928  15.980  0.00  0.00    +0.000 OA
ATOM      4  C   UNL     1       3.532   7.275  17.753  0.00  0.00    +0.000 A 
ATOM      5  N   UNL     1       3.011   8.521  17.486  0.00  0.00    +0.000 NA
ATOM      6  C   UNL     1       2.178   8.772  18.480  0.00  0.00    +0.000 A 
ATOM      7  N   UNL     1       2.154   7.727  19.375  0.00  0.00    +0.000 N 
ATOM      8  C   UNL     1       2.975   6.753  18.888  0.00  0.00    +0.000 A 
ATOM      9  N   UNL     1       3.216   5.497  19.400  0.00  0.00    +0.000 N 
ATOM     10  C   UNL     1       4.182   4.712  18.737  0.00  0.00    +0.000 A 
ATOM     11  O   UNL     1       4.465   3.580  19.136  0.00  0.00    +0.000 OA
ATOM     12  H   UNL     1       1.596   7.689  20.213  0.00  0.00    +0.000 HD
ENDROOT
BRANCH   6  13
ATOM     13  C   UNL     1       1.357   9.998  18.602  0.00  0.00    +0.000 A 
ATOM     14  C   UNL     1       1.722  11.345  18.438  0.00  0.00    +0.000 A 
ATOM     15  N   UNL     1       0.709  12.181  18.684  0.00  0.00    +0.000 NA
ATOM     16  N   UNL     1      -0.322  11.353  18.980  0.00  0.00    +0.000 N 
ATOM     17  C   UNL     1       0.025  10.032  18.940  0.00  0.00    +0.000 A 
BRANCH  16  18
ATOM     18  C   UNL     1      -1.601  11.900  19.412  0.00  0.00    +0.000 C 
BRANCH  18  19
ATOM     19  C   UNL     1      -2.698  11.605  18.422  0.00  0.00    +0.000 A 
ATOM     20  C   UNL     1      -4.039  11.827  18.762  0.00  0.00    +0.000 A 
ATOM     21  C   UNL     1      -5.053  11.580  17.837  0.00  0.00    +0.000 A 
ATOM     22  C   UNL     1      -4.738  11.121  16.559  0.00  0.00    +0.000 A 
ATOM     23  C   UNL     1      -3.406  10.898  16.196  0.00  0.00    +0.000 A 
ATOM     24  C   UNL     1      -3.049  10.438  14.813  0.00  0.00    +0.000 C 
ATOM     25  C   UNL     1      -2.393  11.136  17.134  0.00  0.00    +0.000 A 
ENDBRANCH  18  19
ENDBRANCH  16  18
ENDBRANCH   6  13
BRANCH   1  26
ATOM     26  C   UNL     1       5.863   4.487  16.960  0.00  0.00    +0.000 C 
BRANCH  26  28
ATOM     27  C   UNL     1       6.054   4.013  14.452  0.00  0.00    +0.000 C 
ATOM     28  C   UNL     1       5.362   3.669  15.762  0.00  0.00    +0.000 C 
ENDBRANCH  26  28
ENDBRANCH   1  26
BRANCH   9  29
ATOM     29  C   UNL     1       2.539   4.950  20.580  0.00  0.00    +0.000 C 
BRANCH  29  30
ATOM     30  C   UNL     1       1.241   4.194  20.271  0.00  0.00    +0.000 C 
ATOM     31  C   UNL     1       1.259   2.741  20.723  0.00  0.00    +0.000 C 
ENDBRANCH  29  30
ENDBRANCH   9  29
TORSDOF 7
ENDMDL
MODEL 3
REMARK VINA RESULT:      -8.5      0.859      1.189
REMARK  Name = 
REMARK  10 active torsions:
REMARK  status: ('A' for Active; 'I' for Inactive)
REMARK    1  A    between atoms: C_1  and  C_2
REMARK    2  A    between atoms: C_2  and  C_3
REMARK    3  A    between atoms: C_3  and  N_4
REMARK    4  A    between atoms: C_9  and  C_10
REMARK    5  A    between atoms: N_13  and  C_14
REMARK    6  A    between atoms: C_14  and  C_15
REMARK    7  A    between atoms: C_19  and  C_20
REMARK    8  A    between atoms: N_25  and  C_26
REMARK    9  A    between atoms: C_26  and  C_27
REMARK   10  A    between atoms: C_27  and  C_28
REMARK                            x       y       z     vdW  Elec       q    Type
REMARK                         _______ _______ _______ _____ _____    ______ ____
ROOT
ATOM      1  N   UNL     1       4.621   5.014  18.184  0.00  0.00    +0.000 N 
ATOM      2  C   UNL     1       4.159   6.275  17.754  0.00  0.00    +0.000 A 
ATOM      3  O   UNL     1       4.553   6.837  16.735  0.00  0.00    +0.000 OA
ATOM      4  C   UNL     1       3.175   6.852  18.640  0.00  0.00    +0.000 A 
ATOM      5  N   UNL     1       2.520   8.059  18.547  0.00  0.00    +0.000 NA
ATOM      6  C   UNL     1       1.753   8.124  19.619  0.00  0.00    +0.000 A 
ATOM      7  N   UNL     1       1.900   6.998  20.397  0.00  0.00    +0.000 N 
ATOM      8  C   UNL     1       2.765   6.166  19.749  0.00  0.00    +0.000 A 
ATOM      9  N   UNL     1       3.163   4.895  20.104  0.00  0.00    +0.000 N 
ATOM     10  C   UNL     1       4.139   4.282  19.293  0.00  0.00    +0.000 A 
ATOM     11  O   UNL     1       4.559   3.150  19.546  0.00  0.00    +0.000 OA
ATOM     12  H   UNL     1       1.419   6.820  21.264  0.00  0.00    +0.000 HD
ENDROOT
BRANCH   6  13
ATOM     13  C   UNL     1       0.834   9.243  19.932  0.00  0.00    +0.000 A 
ATOM     14  C   UNL     1       0.067   9.481  21.085  0.00  0.00    +0.000 A 
ATOM     15  N   UNL     1      -0.688  10.579  20.976  0.00  0.00    +0.000 NA
ATOM     16  N   UNL     1      -0.374  11.061  19.750  0.00  0.00    +0.000 N 
ATOM     17  C   UNL     1       0.540  10.288  19.089  0.00  0.00    +0.000 A 
BRANCH  16  18
ATOM     18  C   UNL     1      -1.079  12.218  19.214  0.00  0.00    +0.000 C 
BRANCH  18  19
ATOM     19  C   UNL     1      -2.298  11.812  18.425  0.00  0.00    +0.000 A 
ATOM     20  C   UNL     1      -3.579  11.971  18.970  0.00  0.00    +0.000 A 
ATOM     21  C   UNL     1      -4.709  11.622  18.231  0.00  0.00    +0.000 A 
ATOM     22  C   UNL     1      -4.572  11.123  16.936  0.00  0.00    +0.000 A 
ATOM     23  C   UNL     1      -3.303  10.962  16.370  0.00  0.00    +0.000 A 
ATOM     24  C   UNL     1      -3.141  10.459  14.966  0.00  0.00    +0.000 C 
ATOM     25  C   UNL     1      -2.171  11.302  17.123  0.00  0.00    +0.000 A 
ENDBRANCH  18  19
ENDBRANCH  16  18
ENDBRANCH   6  13
BRANCH   1  26
ATOM     26  C   UNL     1       5.682   4.407  17.385  0.00  0.00    +0.000 C 
BRANCH  26  28
ATOM     27  C   UNL     1       6.123   3.943  14.906  0.00  0.00    +0.000 C 
ATOM     28  C   UNL     1       5.175   3.771  16.083  0.00  0.00    +0.000 C 
ENDBRANCH  26  28
ENDBRANCH   1  26
BRANCH   9  29
ATOM     29  C   UNL     1       2.640   4.168  21.265  0.00  0.00    +0.000 C 
BRANCH  29  30
ATOM     30  C   UNL     1       1.646   3.053  20.917  0.00  0.00    +0.000 C 
ATOM     31  C   UNL     1       0.728   3.394  19.753  0.00  0.00    +0.000 C 
ENDBRANCH  29  30
ENDBRANCH   9  29
TORSDOF 7
ENDMDL
MODEL 4
REMARK VINA RESULT:      -8.4      1.208      1.534
REMARK  Name = 
REMARK  10 active torsions:
REMARK  status: ('A' for Active; 'I' for Inactive)
REMARK    1  A    between atoms: C_1  and  C_2
REMARK    2  A    between atoms: C_2  and  C_3
REMARK    3  A    between atoms: C_3  and  N_4
REMARK    4  A    between atoms: C_9  and  C_10
REMARK    5  A    between atoms: N_13  and  C_14
REMARK    6  A    between atoms: C_14  and  C_15
REMARK    7  A    between atoms: C_19  and  C_20
REMARK    8  A    between atoms: N_25  and  C_26
REMARK    9  A    between atoms: C_26  and  C_27
REMARK   10  A    between atoms: C_27  and  C_28
REMARK                            x       y       z     vdW  Elec       q    Type
REMARK                         _______ _______ _______ _____ _____    ______ ____
ROOT
ATOM      1  N   UNL     1       5.300   4.895  16.810  0.00  0.00    +0.000 N 
ATOM      2  C   UNL     1       5.198   6.294  16.944  0.00  0.00    +0.000 A 
ATOM      3  O   UNL     1       6.065   7.083  16.574  0.00  0.00    +0.000 OA
ATOM      4  C   UNL     1       3.968   6.716  17.573  0.00  0.00    +0.000 A 
ATOM      5  N   UNL     1       3.536   7.988  17.875  0.00  0.00    +0.000 NA
ATOM      6  C   UNL     1       2.367   7.828  18.469  0.00  0.00    +0.000 A 
ATOM      7  N   UNL     1       2.043   6.494  18.561  0.00  0.00    +0.000 N 
ATOM      8  C   UNL     1       3.035   5.790  17.946  0.00  0.00    +0.000 A 
ATOM      9  N   UNL     1       3.115   4.432  17.725  0.00  0.00    +0.000 N 
ATOM     10  C   UNL     1       4.300   3.950  17.133  0.00  0.00    +0.000 A 
ATOM     11  O   UNL     1       4.458   2.747  16.911  0.00  0.00    +0.000 OA
ATOM     12  H   UNL     1       1.202   6.125  18.976  0.00  0.00    +0.000 HD
ENDROOT
BRANCH   6  13
ATOM     13  C   UNL     1       1.506   8.934  18.947  0.00  0.00    +0.000 A 
ATOM     14  C   UNL     1       0.892   9.120  20.198  0.00  0.00    +0.000 A 
ATOM     15  N   UNL     1       0.141  10.225  20.237  0.00  0.00    +0.000 NA
ATOM     16  N   UNL     1       0.303  10.764  19.004  0.00  0.00    +0.000 N 
ATOM     17  C   UNL     1       1.119  10.020  18.199  0.00  0.00    +0.000 A 
BRANCH  16  18
ATOM     18  C   UNL     1      -0.452  11.948  18.616  0.00  0.00    +0.000 C 
BRANCH  18  19
ATOM     19  C   UNL     1      -1.825  11.591  18.107  0.00  0.00    +0.000 A 
ATOM     20  C   UNL     1      -2.960  11.853  18.887  0.00  0.00    +0.000 A 
ATOM     21  C   UNL     1      -4.233  11.550  18.406  0.00  0.00    +0.000 A 
ATOM     22  C   UNL     1      -4.388  10.993  17.137  0.00  0.00    +0.000 A 
ATOM     23  C   UNL     1      -3.270  10.729  16.340  0.00  0.00    +0.000 A 
ATOM     24  C   UNL     1      -3.422  10.163  14.958  0.00  0.00    +0.000 C 
ATOM     25  C   UNL     1      -1.992  11.024  16.834  0.00  0.00    +0.000 A 
ENDBRANCH  18  19
ENDBRANCH  16  18
ENDBRANCH   6  13
BRANCH   1  26
ATOM     26  C   UNL     1       6.555   4.387  16.262  0.00  0.00    +0.000 C 
BRANCH  26  28
ATOM     27  C   UNL     1       5.828   3.917  13.853  0.00  0.00    +0.000 C 
ATOM     28  C   UNL     1       6.743   4.711  14.773  0.00  0.00    +0.000 C 
ENDBRANCH  26  28
ENDBRANCH   1  26
BRANCH   9  29
ATOM     29  C   UNL     1       2.055   3.482  18.076  0.00  0.00    +0.000 C 
BRANCH  29  30
ATOM     30  C   UNL     1       2.114   2.973  19.522  0.00  0.00    +0.000 C 
ATOM     31  C   UNL     1       1.076   3.607  20.436  0.00  0.00    +0.000 C 
ENDBRANCH  29  30
ENDBRANCH   9  29
TORSDOF 7
ENDMDL
MODEL 5
REMARK VINA RESULT:      -8.4      0.846      1.793
REMARK  Name = 
REMARK  10 active torsions:
REMARK  status: ('A' for Active; 'I' for Inactive)
REMARK    1  A    between atoms: C_1  and  C_2
REMARK    2  A    between atoms: C_2  and  C_3
REMARK    3  A    between atoms: C_3  and  N_4
REMARK    4  A    between atoms: C_9  and  C_10
REMARK    5  A    between atoms: N_13  and  C_14
REMARK    6  A    between atoms: C_14  and  C_15
REMARK    7  A    between atoms: C_19  and  C_20
REMARK    8  A    between atoms: N_25  and  C_26
REMARK    9  A    between atoms: C_26  and  C_27
REMARK   10  A    between atoms: C_27  and  C_28
REMARK                            x       y       z     vdW  Elec       q    Type
REMARK                         _______ _______ _______ _____ _____    ______ ____
ROOT
ATOM      1  N   UNL     1       5.013   5.076  17.437  0.00  0.00    +0.000 N 
ATOM      2  C   UNL     1       4.631   6.383  17.074  0.00  0.00    +0.000 A 
ATOM      3  O   UNL     1       5.134   7.010  16.144  0.00  0.00    +0.000 OA
ATOM      4  C   UNL     1       3.587   6.924  17.914  0.00  0.00    +0.000 A 
ATOM      5  N   UNL     1       2.981   8.160  17.864  0.00  0.00    +0.000 NA
ATOM      6  C   UNL     1       2.121   8.167  18.865  0.00  0.00    +0.000 A 
ATOM      7  N   UNL     1       2.163   6.977  19.556  0.00  0.00    +0.000 N 
ATOM      8  C   UNL     1       3.057   6.168  18.921  0.00  0.00    +0.000 A 
ATOM      9  N   UNL     1       3.382   4.859  19.204  0.00  0.00    +0.000 N 
ATOM     10  C   UNL     1       4.410   4.276  18.434  0.00  0.00    +0.000 A 
ATOM     11  O   UNL     1       4.770   3.112  18.629  0.00  0.00    +0.000 OA
ATOM     12  H   UNL     1       1.599   6.749  20.360  0.00  0.00    +0.000 HD
ENDROOT
BRANCH   6  13
ATOM     13  C   UNL     1       1.212   9.291  19.187  0.00  0.00    +0.000 A 
ATOM     14  C   UNL     1       0.519   9.575  20.376  0.00  0.00    +0.000 A 
ATOM     15  N   UNL     1      -0.254  10.660  20.268  0.00  0.00    +0.000 NA
ATOM     16  N   UNL     1      -0.026  11.089  19.003  0.00  0.00    +0.000 N 
ATOM     17  C   UNL     1       0.851  10.294  18.319  0.00  0.00    +0.000 A 
BRANCH  16  18
ATOM     18  C   UNL     1      -0.778  12.214  18.463  0.00  0.00    +0.000 C 
BRANCH  18  19
ATOM     19  C   UNL     1      -2.181  11.816  18.082  0.00  0.00    +0.000 A 
ATOM     20  C   UNL     1      -2.425  11.147  16.875  0.00  0.00    +0.000 A 
ATOM     21  C   UNL     1      -3.719  10.753  16.534  0.00  0.00    +0.000 A 
ATOM     22  C   UNL     1      -4.780  11.012  17.401  0.00  0.00    +0.000 A 
ATOM     23  C   UNL     1      -4.559  11.673  18.613  0.00  0.00    +0.000 A 
ATOM     24  C   UNL     1      -5.685  11.927  19.571  0.00  0.00    +0.000 C 
ATOM     25  C   UNL     1      -3.258  12.077  18.943  0.00  0.00    +0.000 A 
ENDBRANCH  18  19
ENDBRANCH  16  18
ENDBRANCH   6  13
BRANCH   1  26
ATOM     26  C   UNL     1       6.124   4.495  16.687  0.00  0.00    +0.000 C 
BRANCH  26  28
ATOM     27  C   UNL     1       6.356   4.294  14.145  0.00  0.00    +0.000 C 
ATOM     28  C   UNL     1       5.682   3.773  15.406  0.00  0.00    +0.000 C 
ENDBRANCH  26  28
ENDBRANCH   1  26
BRANCH   9  29
ATOM     29  C   UNL     1       2.733   4.061  20.249  0.00  0.00    +0.000 C 
BRANCH  29  30
ATOM     30  C   UNL     1       1.252   3.760  19.986  0.00  0.00    +0.000 C 
ATOM     31  C   UNL     1       1.025   2.573  19.063  0.00  0.00    +0.000 C 
ENDBRANCH  29  30
ENDBRANCH   9  29
TORSDOF 7
ENDMDL
MODEL 6
REMARK VINA RESULT:      -8.2      1.105      1.915
REMARK  Name = 
REMARK  10 active torsions:
REMARK  status: ('A' for Active; 'I' for Inactive)
REMARK    1  A    between atoms: C_1  and  C_2
REMARK    2  A    between atoms: C_2  and  C_3
REMARK    3  A    between atoms: C_3  and  N_4
REMARK    4  A    between atoms: C_9  and  C_10
REMARK    5  A    between atoms: N_13  and  C_14
REMARK    6  A    between atoms: C_14  and  C_15
REMARK    7  A    between atoms: C_19  and  C_20
REMARK    8  A    between atoms: N_25  and  C_26
REMARK    9  A    between atoms: C_26  and  C_27
REMARK   10  A    between atoms: C_27  and  C_28
REMARK                            x       y       z     vdW  Elec       q    Type
REMARK                         _______ _______ _______ _____ _____    ______ ____
ROOT
ATOM      1  N   UNL     1       4.864   5.075  17.191  0.00  0.00    +0.000 N 
ATOM      2  C   UNL     1       4.769   6.436  16.838  0.00  0.00    +0.000 A 
ATOM      3  O   UNL     1       5.543   7.000  16.067  0.00  0.00    +0.000 OA
ATOM      4  C   UNL     1       3.670   7.115  17.484  0.00  0.00    +0.000 A 
ATOM      5  N   UNL     1       3.282   8.432  17.389  0.00  0.00    +0.000 NA
ATOM      6  C   UNL     1       2.245   8.551  18.197  0.00  0.00    +0.000 A 
ATOM      7  N   UNL     1       1.961   7.351  18.809  0.00  0.00    +0.000 N 
ATOM      8  C   UNL     1       2.834   6.426  18.318  0.00  0.00    +0.000 A 
ATOM      9  N   UNL     1       2.890   5.074  18.579  0.00  0.00    +0.000 N 
ATOM     10  C   UNL     1       3.954   4.355  17.996  0.00  0.00    +0.000 A 
ATOM     11  O   UNL     1       4.084   3.143  18.188  0.00  0.00    +0.000 OA
ATOM     12  H   UNL     1       1.215   7.194  19.469  0.00  0.00    +0.000 HD
ENDROOT
BRANCH   6  13
ATOM     13  C   UNL     1       1.470   9.797  18.398  0.00  0.00    +0.000 A 
ATOM     14  C   UNL     1       1.894  11.136  18.351  0.00  0.00    +0.000 A 
ATOM     15  N   UNL     1       0.909  11.992  18.640  0.00  0.00    +0.000 NA
ATOM     16  N   UNL     1      -0.162  11.187  18.844  0.00  0.00    +0.000 N 
ATOM     17  C   UNL     1       0.133   9.860  18.706  0.00  0.00    +0.000 A 
BRANCH  16  18
ATOM     18  C   UNL     1      -1.429  11.752  19.289  0.00  0.00    +0.000 C 
BRANCH  18  19
ATOM     19  C   UNL     1      -2.515  11.564  18.261  0.00  0.00    +0.000 A 
ATOM     20  C   UNL     1      -2.187  11.277  16.928  0.00  0.00    +0.000 A 
ATOM     21  C   UNL     1      -3.191  11.075  15.982  0.00  0.00    +0.000 A 
ATOM     22  C   UNL     1      -4.532  11.146  16.357  0.00  0.00    +0.000 A 
ATOM     23  C   UNL     1      -4.882  11.426  17.682  0.00  0.00    +0.000 A 
ATOM     24  C   UNL     1      -6.320  11.472  18.108  0.00  0.00    +0.000 C 
ATOM     25  C   UNL     1      -3.868  11.640  18.626  0.00  0.00    +0.000 A 
ENDBRANCH  18  19
ENDBRANCH  16  18
ENDBRANCH   6  13
BRANCH   1  26
ATOM     26  C   UNL     1       6.005   4.343  16.644  0.00  0.00    +0.000 C 
BRANCH  26  28
ATOM     27  C   UNL     1       6.681   4.329  14.175  0.00  0.00    +0.000 C 
ATOM     28  C   UNL     1       5.748   3.776  15.241  0.00  0.00    +0.000 C 
ENDBRANCH  26  28
ENDBRANCH   1  26
BRANCH   9  29
ATOM     29  C   UNL     1       1.925   4.362  19.423  0.00  0.00    +0.000 C 
BRANCH  29  30
ATOM     30  C   UNL     1       2.233   4.422  20.924  0.00  0.00    +0.000 C 
ATOM     31  C   UNL     1       2.042   3.093  21.640  0.00  0.00    +0.000 C 
ENDBRANCH  29  30
ENDBRANCH   9  29
TORSDOF 7
ENDMDL
MODEL 7
REMARK VINA RESULT:      -8.1      3.405      9.669
REMARK  Name = 
REMARK  10 active torsions:
REMARK  status: ('A' for Active; 'I' for Inactive)
REMARK    1  A    between atoms: C_1  and  C_2
REMARK    2  A    between atoms: C_2  and  C_3
REMARK    3  A    between atoms: C_3  and  N_4
REMARK    4  A    between atoms: C_9  and  C_10
REMARK    5  A    between atoms: N_13  and  C_14
REMARK    6  A    between atoms: C_14  and  C_15
REMARK    7  A    between atoms: C_19  and  C_20
REMARK    8  A    between atoms: N_25  and  C_26
REMARK    9  A    between atoms: C_26  and  C_27
REMARK   10  A    between atoms: C_27  and  C_28
REMARK                            x       y       z     vdW  Elec       q    Type
REMARK                         _______ _______ _______ _____ _____    ______ ____
ROOT
ATOM      1  N   UNL     1      -1.655  12.071  21.874  0.00  0.00    +0.000 N 
ATOM      2  C   UNL     1      -0.664  11.118  22.186  0.00  0.00    +0.000 A 
ATOM      3  O   UNL     1      -0.293  10.866  23.330  0.00  0.00    +0.000 OA
ATOM      4  C   UNL     1      -0.114  10.467  21.020  0.00  0.00    +0.000 A 
ATOM      5  N   UNL     1       0.867   9.505  20.940  0.00  0.00    +0.000 NA
ATOM      6  C   UNL     1       1.023   9.270  19.650  0.00  0.00    +0.000 A 
ATOM      7  N   UNL     1       0.176  10.057  18.903  0.00  0.00    +0.000 N 
ATOM      8  C   UNL     1      -0.583  10.780  19.775  0.00  0.00    +0.000 A 
ATOM      9  N   UNL     1      -1.615  11.650  19.497  0.00  0.00    +0.000 N 
ATOM     10  C   UNL     1      -2.183  12.336  20.590  0.00  0.00    +0.000 A 
ATOM     11  O   UNL     1      -3.104  13.141  20.428  0.00  0.00    +0.000 OA
ATOM     12  H   UNL     1       0.115  10.057  17.897  0.00  0.00    +0.000 HD
ENDROOT
BRANCH   6  13
ATOM     13  C   UNL     1       1.962   8.276  19.082  0.00  0.00    +0.000 A 
ATOM     14  C   UNL     1       2.679   8.304  17.874  0.00  0.00    +0.000 A 
ATOM     15  N   UNL     1       3.391   7.190  17.678  0.00  0.00    +0.000 NA
ATOM     16  N   UNL     1       3.145   6.456  18.790  0.00  0.00    +0.000 N 
ATOM     17  C   UNL     1       2.293   7.074  19.661  0.00  0.00    +0.000 A 
BRANCH  16  18
ATOM     18  C   UNL     1       3.673   5.103  18.907  0.00  0.00    +0.000 C 
BRANCH  18  19
ATOM     19  C   UNL     1       4.964   4.940  18.147  0.00  0.00    +0.000 A 
ATOM     20  C   UNL     1       6.193   5.173  18.778  0.00  0.00    +0.000 A 
ATOM     21  C   UNL     1       7.389   4.995  18.084  0.00  0.00    +0.000 A 
ATOM     22  C   UNL     1       7.371   4.571  16.756  0.00  0.00    +0.000 A 
ATOM     23  C   UNL     1       6.156   4.327  16.107  0.00  0.00    +0.000 A 
ATOM     24  C   UNL     1       6.122   3.838  14.689  0.00  0.00    +0.000 C 
ATOM     25  C   UNL     1       4.958   4.520  16.807  0.00  0.00    +0.000 A 
ENDBRANCH  18  19
ENDBRANCH  16  18
ENDBRANCH   6  13
BRANCH   1  26
ATOM     26  C   UNL     1      -2.196  12.833  22.996  0.00  0.00    +0.000 C 
BRANCH  26  28
ATOM     27  C   UNL     1      -4.547  13.078  23.978  0.00  0.00    +0.000 C 
ATOM     28  C   UNL     1      -3.383  12.144  23.683  0.00  0.00    +0.000 C 
ENDBRANCH  26  28
ENDBRANCH   1  26
BRANCH   9  29
ATOM     29  C   UNL     1      -2.135  11.900  18.149  0.00  0.00    +0.000 C 
BRANCH  29  30
ATOM     30  C   UNL     1      -3.152  10.860  17.661  0.00  0.00    +0.000 C 
ATOM     31  C   UNL     1      -4.569  11.400  17.542  0.00  0.00    +0.000 C 
ENDBRANCH  29  30
ENDBRANCH   9  29
TORSDOF 7
ENDMDL
MODEL 8
REMARK VINA RESULT:      -8.1      1.276      3.205
REMARK  Name = 
REMARK  10 active torsions:
REMARK  status: ('A' for Active; 'I' for Inactive)
REMARK    1  A    between atoms: C_1  and  C_2
REMARK    2  A    between atoms: C_2  and  C_3
REMARK    3  A    between atoms: C_3  and  N_4
REMARK    4  A    between atoms: C_9  and  C_10
REMARK    5  A    between atoms: N_13  and  C_14
REMARK    6  A    between atoms: C_14  and  C_15
REMARK    7  A    between atoms: C_19  and  C_20
REMARK    8  A    between atoms: N_25  and  C_26
REMARK    9  A    between atoms: C_26  and  C_27
REMARK   10  A    between atoms: C_27  and  C_28
REMARK                            x       y       z     vdW  Elec       q    Type
REMARK                         _______ _______ _______ _____ _____    ______ ____
ROOT
ATOM      1  N   UNL     1       3.967   3.952  19.233  0.00  0.00    +0.000 N 
ATOM      2  C   UNL     1       3.009   4.567  20.064  0.00  0.00    +0.000 A 
ATOM      3  O   UNL     1       2.478   4.014  21.024  0.00  0.00    +0.000 OA
ATOM      4  C   UNL     1       2.700   5.922  19.667  0.00  0.00    +0.000 A 
ATOM      5  N   UNL     1       1.814   6.813  20.230  0.00  0.00    +0.000 NA
ATOM      6  C   UNL     1       1.884   7.896  19.477  0.00  0.00    +0.000 A 
ATOM      7  N   UNL     1       2.782   7.721  18.449  0.00  0.00    +0.000 N 
ATOM      8  C   UNL     1       3.339   6.486  18.599  0.00  0.00    +0.000 A 
ATOM      9  N   UNL     1       4.338   5.898  17.854  0.00  0.00    +0.000 N 
ATOM     10  C   UNL     1       4.674   4.567  18.175  0.00  0.00    +0.000 A 
ATOM     11  O   UNL     1       5.550   3.963  17.551  0.00  0.00    +0.000 OA
ATOM     12  H   UNL     1       3.003   8.407  17.744  0.00  0.00    +0.000 HD
ENDROOT
BRANCH   6  13
ATOM     13  C   UNL     1       1.121   9.142  19.720  0.00  0.00    +0.000 A 
ATOM     14  C   UNL     1       0.564   9.638  20.911  0.00  0.00    +0.000 A 
ATOM     15  N   UNL     1      -0.104  10.780  20.724  0.00  0.00    +0.000 NA
ATOM     16  N   UNL     1       0.056  11.029  19.401  0.00  0.00    +0.000 N 
ATOM     17  C   UNL     1       0.788  10.069  18.761  0.00  0.00    +0.000 A 
BRANCH  16  18
ATOM     18  C   UNL     1      -0.625  12.157  18.780  0.00  0.00    +0.000 C 
BRANCH  18  19
ATOM     19  C   UNL     1      -1.971  11.763  18.229  0.00  0.00    +0.000 A 
ATOM     20  C   UNL     1      -3.137  11.995  18.972  0.00  0.00    +0.000 A 
ATOM     21  C   UNL     1      -4.385  11.655  18.451  0.00  0.00    +0.000 A 
ATOM     22  C   UNL     1      -4.484  11.092  17.179  0.00  0.00    +0.000 A 
ATOM     23  C   UNL     1      -3.334  10.858  16.418  0.00  0.00    +0.000 A 
ATOM     24  C   UNL     1      -3.427  10.285  15.035  0.00  0.00    +0.000 C 
ATOM     25  C   UNL     1      -2.082  11.189  16.953  0.00  0.00    +0.000 A 
ENDBRANCH  18  19
ENDBRANCH  16  18
ENDBRANCH   6  13
BRANCH   1  26
ATOM     26  C   UNL     1       4.267   2.551  19.520  0.00  0.00    +0.000 C 
BRANCH  26  28
ATOM     27  C   UNL     1       2.542   2.215  17.657  0.00  0.00    +0.000 C 
ATOM     28  C   UNL     1       3.358   1.569  18.767  0.00  0.00    +0.000 C 
ENDBRANCH  26  28
ENDBRANCH   1  26
BRANCH   9  29
ATOM     29  C   UNL     1       5.049   6.570  16.762  0.00  0.00    +0.000 C 
BRANCH  29  30
ATOM     30  C   UNL     1       6.182   7.497  17.219  0.00  0.00    +0.000 C 
ATOM     31  C   UNL     1       7.503   6.779  17.447  0.00  0.00    +0.000 C 
ENDBRANCH  29  30
ENDBRANCH   9  29
TORSDOF 7
ENDMDL
MODEL 9
REMARK VINA RESULT:      -8.0      1.972      3.142
REMARK  Name = 
REMARK  10 active torsions:
REMARK  status: ('A' for Active; 'I' for Inactive)
REMARK    1  A    between atoms: C_1  and  C_2
REMARK    2  A    between atoms: C_2  and  C_3
REMARK    3  A    between atoms: C_3  and  N_4
REMARK    4  A    between atoms: C_9  and  C_10
REMARK    5  A    between atoms: N_13  and  C_14
REMARK    6  A    between atoms: C_14  and  C_15
REMARK    7  A    between atoms: C_19  and  C_20
REMARK    8  A    between atoms: N_25  and  C_26
REMARK    9  A    between atoms: C_26  and  C_27
REMARK   10  A    between atoms: C_27  and  C_28
REMARK                            x       y       z     vdW  Elec       q    Type
REMARK                         _______ _______ _______ _____ _____    ______ ____
ROOT
ATOM      1  N   UNL     1       4.628   5.384  17.820  0.00  0.00    +0.000 N 
ATOM      2  C   UNL     1       4.343   6.610  17.184  0.00  0.00    +0.000 A 
ATOM      3  O   UNL     1       4.888   6.987  16.149  0.00  0.00    +0.000 OA
ATOM      4  C   UNL     1       3.346   7.391  17.879  0.00  0.00    +0.000 A 
ATOM      5  N   UNL     1       2.834   8.629  17.562  0.00  0.00    +0.000 NA
ATOM      6  C   UNL     1       1.980   8.911  18.529  0.00  0.00    +0.000 A 
ATOM      7  N   UNL     1       1.935   7.895  19.456  0.00  0.00    +0.000 N 
ATOM      8  C   UNL     1       2.765   6.906  19.017  0.00  0.00    +0.000 A 
ATOM      9  N   UNL     1       2.993   5.666  19.573  0.00  0.00    +0.000 N 
ATOM     10  C   UNL     1       3.971   4.860  18.956  0.00  0.00    +0.000 A 
ATOM     11  O   UNL     1       4.244   3.740  19.397  0.00  0.00    +0.000 OA
ATOM     12  H   UNL     1       1.359   7.884  20.283  0.00  0.00    +0.000 HD
ENDROOT
BRANCH   6  13
ATOM     13  C   UNL     1       1.158  10.142  18.595  0.00  0.00    +0.000 A 
ATOM     14  C   UNL     1       1.555  11.490  18.594  0.00  0.00    +0.000 A 
ATOM     15  N   UNL     1       0.520  12.326  18.721  0.00  0.00    +0.000 NA
ATOM     16  N   UNL     1      -0.552  11.499  18.773  0.00  0.00    +0.000 N 
ATOM     17  C   UNL     1      -0.212  10.177  18.699  0.00  0.00    +0.000 A 
BRANCH  16  18
ATOM     18  C   UNL     1      -1.883  12.039  19.015  0.00  0.00    +0.000 C 
BRANCH  18  19
ATOM     19  C   UNL     1      -2.192  12.122  20.488  0.00  0.00    +0.000 A 
ATOM     20  C   UNL     1      -1.240  11.722  21.436  0.00  0.00    +0.000 A 
ATOM     21  C   UNL     1      -1.514  11.824  22.799  0.00  0.00    +0.000 A 
ATOM     22  C   UNL     1      -2.736  12.338  23.231  0.00  0.00    +0.000 A 
ATOM     23  C   UNL     1      -3.698  12.748  22.303  0.00  0.00    +0.000 A 
ATOM     24  C   UNL     1      -5.004  13.335  22.753  0.00  0.00    +0.000 C 
ATOM     25  C   UNL     1      -3.422  12.631  20.934  0.00  0.00    +0.000 A 
ENDBRANCH  18  19
ENDBRANCH  16  18
ENDBRANCH   6  13
BRANCH   1  26
ATOM     26  C   UNL     1       5.690   4.578  17.223  0.00  0.00    +0.000 C 
BRANCH  26  28
ATOM     27  C   UNL     1       5.972   4.005  14.744  0.00  0.00    +0.000 C 
ATOM     28  C   UNL     1       5.215   3.730  16.035  0.00  0.00    +0.000 C 
ENDBRANCH  26  28
ENDBRANCH   1  26
BRANCH   9  29
ATOM     29  C   UNL     1       2.290   5.157  20.755  0.00  0.00    +0.000 C 
BRANCH  29  30
ATOM     30  C   UNL     1       1.113   4.226  20.439  0.00  0.00    +0.000 C 
ATOM     31  C   UNL     1       1.235   2.850  21.076  0.00  0.00    +0.000 C 
ENDBRANCH  29  30
ENDBRANCH   9  29
TORSDOF 7
ENDMDL
