MODEL 1
REMARK VINA RESULT:      -7.4      0.000      0.000
REMARK  Name = 
REMARK  4 active torsions:
REMARK  status: ('A' for Active; 'I' for Inactive)
REMARK    1  A    between atoms: N_1  and  C_2
REMARK    2  A    between atoms: C_2  and  C_3
REMARK    3  A    between atoms: C_3  and  C_4
REMARK    4  A    between atoms: C_9  and  C_10
REMARK                            x       y       z     vdW  Elec       q    Type
REMARK                         _______ _______ _______ _____ _____    ______ ____
ROOT
ATOM      1  C   UNL     1       6.529   4.461  14.518  0.00  0.00    +0.000 A 
ATOM      2  C   UNL     1       7.490   4.813  15.503  0.00  0.00    +0.000 A 
ATOM      3  C   UNL     1       7.155   4.809  16.867  0.00  0.00    +0.000 A 
ATOM      4  C   UNL     1       5.862   4.443  17.203  0.00  0.00    +0.000 A 
ATOM      5  N   UNL     1       5.332   4.334  18.430  0.00  0.00    +0.000 NA
ATOM      6  C   UNL     1       4.065   3.919  18.180  0.00  0.00    +0.000 A 
ATOM      7  O   UNL     1       3.815   3.786  16.885  0.00  0.00    +0.000 OA
ATOM      8  C   UNL     1       4.925   4.108  16.274  0.00  0.00    +0.000 A 
ATOM      9  C   UNL     1       5.212   4.111  14.909  0.00  0.00    +0.000 A 
ENDROOT
BRANCH   6  10
ATOM     10  C   UNL     1       3.101   3.601  19.252  0.00  0.00    +0.000 A 
ATOM     11  C   UNL     1       1.768   4.045  19.155  0.00  0.00    +0.000 A 
ATOM     12  C   UNL     1       0.857   3.773  20.176  0.00  0.00    +0.000 A 
ATOM     13  C   UNL     1       1.262   3.055  21.303  0.00  0.00    +0.000 A 
ATOM     14  C   UNL     1       2.585   2.610  21.409  0.00  0.00    +0.000 A 
ATOM     15  C   UNL     1       3.501   2.880  20.387  0.00  0.00    +0.000 A 
ENDBRANCH   6  10
BRANCH   1  16
ATOM     16  C   UNL     1       6.931   4.433  13.070  0.00  0.00    +0.000 C 
BRANCH  16  17
ATOM     17  C   UNL     1       6.037   3.451  12.296  0.00  0.00    +0.000 C 
BRANCH  17  18
ATOM     18  N   UNL     1       6.788   2.280  11.845  0.00  0.00    +0.000 NA
ATOM     19  H   UNL     1       6.129   1.468  11.788  0.00  0.00    +0.000 HD
ATOM     20  H   UNL     1       7.187   2.423  10.894  0.00  0.00    +0.000 HD
ENDBRANCH  17  18
ENDBRANCH  16  17
ENDBRANCH   1  16
TORSDOF 4
ENDMDL
MODEL 2
REMARK VINA RESULT:      -7.4      0.157      1.151
REMARK  Name = 
REMARK  4 active torsions:
REMARK  status: ('A' for Active; 'I' for Inactive)
REMARK    1  A    between atoms: N_1  and  C_2
REMARK    2  A    between atoms: C_2  and  C_3
REMARK    3  A    between atoms: C_3  and  C_4
REMARK    4  A    between atoms: C_9  and  C_10
REMARK                            x       y       z     vdW  Elec       q    Type
REMARK                         _______ _______ _______ _____ _____    ______ ____
ROOT
ATOM      1  C   UNL     1       6.557   4.371  14.635  0.00  0.00    +0.000 A 
ATOM      2  C   UNL     1       7.516   4.749  15.613  0.00  0.00    +0.000 A 
ATOM      3  C   UNL     1       7.175   4.788  16.974  0.00  0.00    +0.000 A 
ATOM      4  C   UNL     1       5.878   4.439  17.316  0.00  0.00    +0.000 A 
ATOM      5  N   UNL     1       5.343   4.371  18.543  0.00  0.00    +0.000 NA
ATOM      6  C   UNL     1       4.074   3.954  18.301  0.00  0.00    +0.000 A 
ATOM      7  O   UNL     1       3.829   3.782  17.009  0.00  0.00    +0.000 OA
ATOM      8  C   UNL     1       4.944   4.080  16.394  0.00  0.00    +0.000 A 
ATOM      9  C   UNL     1       5.237   4.039  15.030  0.00  0.00    +0.000 A 
ENDROOT
BRANCH   6  10
ATOM     10  C   UNL     1       3.104   3.673  19.378  0.00  0.00    +0.000 A 
ATOM     11  C   UNL     1       3.474   2.856  20.462  0.00  0.00    +0.000 A 
ATOM     12  C   UNL     1       2.556   2.561  21.470  0.00  0.00    +0.000 A 
ATOM     13  C   UNL     1       1.260   3.078  21.410  0.00  0.00    +0.000 A 
ATOM     14  C   UNL     1       0.883   3.892  20.335  0.00  0.00    +0.000 A 
ATOM     15  C   UNL     1       1.801   4.190  19.324  0.00  0.00    +0.000 A 
ENDBRANCH   6  10
BRANCH   1  16
ATOM     16  C   UNL     1       6.966   4.296  13.190  0.00  0.00    +0.000 C 
BRANCH  16  17
ATOM     17  C   UNL     1       5.929   3.489  12.393  0.00  0.00    +0.000 C 
BRANCH  17  18
ATOM     18  N   UNL     1       6.480   2.219  11.922  0.00  0.00    +0.000 NA
ATOM     19  H   UNL     1       7.145   2.420  11.137  0.00  0.00    +0.000 HD
ATOM     20  H   UNL     1       7.020   1.735  12.670  0.00  0.00    +0.000 HD
ENDBRANCH  17  18
ENDBRANCH  16  17
ENDBRANCH   1  16
TORSDOF 4
ENDMDL
MODEL 3
REMARK VINA RESULT:      -7.0      1.884      6.946
REMARK  Name = 
REMARK  4 active torsions:
REMARK  status: ('A' for Active; 'I' for Inactive)
REMARK    1  A    between atoms: N_1  and  C_2
REMARK    2  A    between atoms: C_2  and  C_3
REMARK    3  A    between atoms: C_3  and  C_4
REMARK    4  A    between atoms: C_9  and  C_10
REMARK                            x       y       z     vdW  Elec       q    Type
REMARK                         _______ _______ _______ _____ _____    ______ ____
ROOT
ATOM      1  C   UNL     1       2.143   4.442  19.385  0.00  0.00    +0.000 A 
ATOM      2  C   UNL     1       2.760   5.698  19.629  0.00  0.00    +0.000 A 
ATOM      3  C   UNL     1       3.763   6.184  18.775  0.00  0.00    +0.000 A 
ATOM      4  C   UNL     1       4.113   5.394  17.691  0.00  0.00    +0.000 A 
ATOM      5  N   UNL     1       5.011   5.667  16.733  0.00  0.00    +0.000 NA
ATOM      6  C   UNL     1       4.930   4.583  15.921  0.00  0.00    +0.000 A 
ATOM      7  O   UNL     1       4.048   3.688  16.347  0.00  0.00    +0.000 OA
ATOM      8  C   UNL     1       3.539   4.186  17.443  0.00  0.00    +0.000 A 
ATOM      9  C   UNL     1       2.547   3.661  18.273  0.00  0.00    +0.000 A 
ENDROOT
BRANCH   6  10
ATOM     10  C   UNL     1       5.706   4.458  14.672  0.00  0.00    +0.000 A 
ATOM     11  C   UNL     1       5.212   3.676  13.611  0.00  0.00    +0.000 A 
ATOM     12  C   UNL     1       5.951   3.529  12.437  0.00  0.00    +0.000 A 
ATOM     13  C   UNL     1       7.189   4.161  12.306  0.00  0.00    +0.000 A 
ATOM     14  C   UNL     1       7.689   4.941  13.355  0.00  0.00    +0.000 A 
ATOM     15  C   UNL     1       6.951   5.091  14.533  0.00  0.00    +0.000 A 
ENDBRANCH   6  10
BRANCH   1  16
ATOM     16  C   UNL     1       1.042   3.970  20.293  0.00  0.00    +0.000 C 
BRANCH  16  17
ATOM     17  C   UNL     1       1.479   2.692  21.026  0.00  0.00    +0.000 C 
BRANCH  17  18
ATOM     18  N   UNL     1       2.443   2.981  22.086  0.00  0.00    +0.000 NA
ATOM     19  H   UNL     1       2.810   3.952  21.942  0.00  0.00    +0.000 HD
ATOM     20  H   UNL     1       1.998   2.954  23.027  0.00  0.00    +0.000 HD
ENDBRANCH  17  18
ENDBRANCH  16  17
ENDBRANCH   1  16
TORSDOF 4
ENDMDL
MODEL 4
REMARK VINA RESULT:      -7.0      1.899      7.017
REMARK  Name = 
REMARK  4 active torsions:
REMARK  status: ('A' for Active; 'I' for Inactive)
REMARK    1  A    between atoms: N_1  and  C_2
REMARK    2  A    between atoms: C_2  and  C_3
REMARK    3  A    between atoms: C_3  and  C_4
REMARK    4  A    between atoms: C_9  and  C_10
REMARK                            x       y       z     vdW  Elec       q    Type
REMARK                         _______ _______ _______ _____ _____    ______ ____
ROOT
ATOM      1  C   UNL     1       2.219   4.566  19.262  0.00  0.00    +0.000 A 
ATOM      2  C   UNL     1       2.855   5.818  19.474  0.00  0.00    +0.000 A 
ATOM      3  C   UNL     1       3.862   6.269  18.605  0.00  0.00    +0.000 A 
ATOM      4  C   UNL     1       4.196   5.448  17.539  0.00  0.00    +0.000 A 
ATOM      5  N   UNL     1       5.094   5.685  16.572  0.00  0.00    +0.000 NA
ATOM      6  C   UNL     1       4.994   4.583  15.786  0.00  0.00    +0.000 A 
ATOM      7  O   UNL     1       4.101   3.711  16.236  0.00  0.00    +0.000 OA
ATOM      8  C   UNL     1       3.603   4.243  17.322  0.00  0.00    +0.000 A 
ATOM      9  C   UNL     1       2.607   3.752  18.167  0.00  0.00    +0.000 A 
ENDROOT
BRANCH   6  10
ATOM     10  C   UNL     1       5.763   4.418  14.537  0.00  0.00    +0.000 A 
ATOM     11  C   UNL     1       6.972   5.116  14.358  0.00  0.00    +0.000 A 
ATOM     12  C   UNL     1       7.692   4.988  13.170  0.00  0.00    +0.000 A 
ATOM     13  C   UNL     1       7.218   4.163  12.149  0.00  0.00    +0.000 A 
ATOM     14  C   UNL     1       6.016   3.465  12.317  0.00  0.00    +0.000 A 
ATOM     15  C   UNL     1       5.292   3.589  13.507  0.00  0.00    +0.000 A 
ENDBRANCH   6  10
BRANCH   1  16
ATOM     16  C   UNL     1       1.114   4.132  20.185  0.00  0.00    +0.000 C 
BRANCH  16  17
ATOM     17  C   UNL     1       1.471   2.785  20.832  0.00  0.00    +0.000 C 
BRANCH  17  18
ATOM     18  N   UNL     1       2.028   2.962  22.173  0.00  0.00    +0.000 NA
ATOM     19  H   UNL     1       2.668   2.156  22.373  0.00  0.00    +0.000 HD
ATOM     20  H   UNL     1       2.596   3.833  22.240  0.00  0.00    +0.000 HD
ENDBRANCH  17  18
ENDBRANCH  16  17
ENDBRANCH   1  16
TORSDOF 4
ENDMDL
MODEL 5
REMARK VINA RESULT:      -6.9      0.993      1.543
REMARK  Name = 
REMARK  4 active torsions:
REMARK  status: ('A' for Active; 'I' for Inactive)
REMARK    1  A    between atoms: N_1  and  C_2
REMARK    2  A    between atoms: C_2  and  C_3
REMARK    3  A    between atoms: C_3  and  C_4
REMARK    4  A    between atoms: C_9  and  C_10
REMARK                            x       y       z     vdW  Elec       q    Type
REMARK                         _______ _______ _______ _____ _____    ______ ____
ROOT
ATOM      1  C   UNL     1       6.116   4.591  14.565  0.00  0.00    +0.000 A 
ATOM      2  C   UNL     1       5.920   5.948  14.935  0.00  0.00    +0.000 A 
ATOM      3  C   UNL     1       5.137   6.283  16.052  0.00  0.00    +0.000 A 
ATOM      4  C   UNL     1       4.577   5.239  16.772  0.00  0.00    +0.000 A 
ATOM      5  N   UNL     1       3.830   5.316  17.882  0.00  0.00    +0.000 NA
ATOM      6  C   UNL     1       3.581   4.014  18.174  0.00  0.00    +0.000 A 
ATOM      7  O   UNL     1       4.129   3.179  17.301  0.00  0.00    +0.000 OA
ATOM      8  C   UNL     1       4.748   3.933  16.431  0.00  0.00    +0.000 A 
ATOM      9  C   UNL     1       5.508   3.557  15.322  0.00  0.00    +0.000 A 
ENDROOT
BRANCH   6  10
ATOM     10  C   UNL     1       2.829   3.592  19.372  0.00  0.00    +0.000 A 
ATOM     11  C   UNL     1       3.478   2.871  20.393  0.00  0.00    +0.000 A 
ATOM     12  C   UNL     1       2.770   2.443  21.515  0.00  0.00    +0.000 A 
ATOM     13  C   UNL     1       1.409   2.729  21.636  0.00  0.00    +0.000 A 
ATOM     14  C   UNL     1       0.754   3.445  20.626  0.00  0.00    +0.000 A 
ATOM     15  C   UNL     1       1.461   3.876  19.500  0.00  0.00    +0.000 A 
ENDBRANCH   6  10
BRANCH   1  16
ATOM     16  C   UNL     1       6.995   4.264  13.391  0.00  0.00    +0.000 C 
BRANCH  16  17
ATOM     17  C   UNL     1       6.160   3.616  12.275  0.00  0.00    +0.000 C 
BRANCH  17  18
ATOM     18  N   UNL     1       6.681   2.300  11.907  0.00  0.00    +0.000 NA
ATOM     19  H   UNL     1       6.428   1.622  12.664  0.00  0.00    +0.000 HD
ATOM     20  H   UNL     1       6.254   1.953  11.023  0.00  0.00    +0.000 HD
ENDBRANCH  17  18
ENDBRANCH  16  17
ENDBRANCH   1  16
TORSDOF 4
ENDMDL
MODEL 6
REMARK VINA RESULT:      -6.9      1.848      6.920
REMARK  Name = 
REMARK  4 active torsions:
REMARK  status: ('A' for Active; 'I' for Inactive)
REMARK    1  A    between atoms: N_1  and  C_2
REMARK    2  A    between atoms: C_2  and  C_3
REMARK    3  A    between atoms: C_3  and  C_4
REMARK    4  A    between atoms: C_9  and  C_10
REMARK                            x       y       z     vdW  Elec       q    Type
REMARK                         _______ _______ _______ _____ _____    ______ ____
ROOT
ATOM      1  C   UNL     1       3.295   4.012  19.760  0.00  0.00    +0.000 A 
ATOM      2  C   UNL     1       3.181   5.420  19.608  0.00  0.00    +0.000 A 
ATOM      3  C   UNL     1       3.715   6.067  18.482  0.00  0.00    +0.000 A 
ATOM      4  C   UNL     1       4.345   5.276  17.534  0.00  0.00    +0.000 A 
ATOM      5  N   UNL     1       4.893   5.665  16.374  0.00  0.00    +0.000 NA
ATOM      6  C   UNL     1       5.330   4.499  15.835  0.00  0.00    +0.000 A 
ATOM      7  O   UNL     1       5.080   3.451  16.610  0.00  0.00    +0.000 OA
ATOM      8  C   UNL     1       4.469   3.927  17.663  0.00  0.00    +0.000 A 
ATOM      9  C   UNL     1       3.964   3.246  18.771  0.00  0.00    +0.000 A 
ENDROOT
BRANCH   6  10
ATOM     10  C   UNL     1       5.961   4.419  14.503  0.00  0.00    +0.000 A 
ATOM     11  C   UNL     1       5.403   3.592  13.509  0.00  0.00    +0.000 A 
ATOM     12  C   UNL     1       6.008   3.488  12.256  0.00  0.00    +0.000 A 
ATOM     13  C   UNL     1       7.173   4.205  11.979  0.00  0.00    +0.000 A 
ATOM     14  C   UNL     1       7.735   5.030  12.961  0.00  0.00    +0.000 A 
ATOM     15  C   UNL     1       7.131   5.138  14.218  0.00  0.00    +0.000 A 
ENDBRANCH   6  10
BRANCH   1  16
ATOM     16  C   UNL     1       2.674   3.345  20.955  0.00  0.00    +0.000 C 
BRANCH  16  17
ATOM     17  C   UNL     1       1.160   3.608  20.974  0.00  0.00    +0.000 C 
BRANCH  17  18
ATOM     18  N   UNL     1       0.488   2.967  19.845  0.00  0.00    +0.000 NA
ATOM     19  H   UNL     1      -0.493   2.736  20.133  0.00  0.00    +0.000 HD
ATOM     20  H   UNL     1       0.428   3.603  19.023  0.00  0.00    +0.000 HD
ENDBRANCH  17  18
ENDBRANCH  16  17
ENDBRANCH   1  16
TORSDOF 4
ENDMDL
MODEL 7
REMARK VINA RESULT:      -6.8      0.971      1.078
REMARK  Name = 
REMARK  4 active torsions:
REMARK  status: ('A' for Active; 'I' for Inactive)
REMARK    1  A    between atoms: N_1  and  C_2
REMARK    2  A    between atoms: C_2  and  C_3
REMARK    3  A    between atoms: C_3  and  C_4
REMARK    4  A    between atoms: C_9  and  C_10
REMARK                            x       y       z     vdW  Elec       q    Type
REMARK                         _______ _______ _______ _____ _____    ______ ____
ROOT
ATOM      1  C   UNL     1       6.242   4.680  14.634  0.00  0.00    +0.000 A 
ATOM      2  C   UNL     1       5.944   6.029  14.968  0.00  0.00    +0.000 A 
ATOM      3  C   UNL     1       5.101   6.332  16.048  0.00  0.00    +0.000 A 
ATOM      4  C   UNL     1       4.584   5.267  16.769  0.00  0.00    +0.000 A 
ATOM      5  N   UNL     1       3.792   5.316  17.850  0.00  0.00    +0.000 NA
ATOM      6  C   UNL     1       3.618   4.007  18.161  0.00  0.00    +0.000 A 
ATOM      7  O   UNL     1       4.251   3.193  17.326  0.00  0.00    +0.000 OA
ATOM      8  C   UNL     1       4.852   3.969  16.463  0.00  0.00    +0.000 A 
ATOM      9  C   UNL     1       5.675   3.623  15.390  0.00  0.00    +0.000 A 
ENDROOT
BRANCH   6  10
ATOM     10  C   UNL     1       2.852   3.558  19.340  0.00  0.00    +0.000 A 
ATOM     11  C   UNL     1       1.487   3.881  19.457  0.00  0.00    +0.000 A 
ATOM     12  C   UNL     1       0.760   3.487  20.581  0.00  0.00    +0.000 A 
ATOM     13  C   UNL     1       1.384   2.765  21.600  0.00  0.00    +0.000 A 
ATOM     14  C   UNL     1       2.742   2.440  21.494  0.00  0.00    +0.000 A 
ATOM     15  C   UNL     1       3.473   2.833  20.368  0.00  0.00    +0.000 A 
ENDBRANCH   6  10
BRANCH   1  16
ATOM     16  C   UNL     1       7.184   4.391  13.499  0.00  0.00    +0.000 C 
BRANCH  16  17
ATOM     17  C   UNL     1       6.393   3.912  12.271  0.00  0.00    +0.000 C 
BRANCH  17  18
ATOM     18  N   UNL     1       6.473   2.461  12.110  0.00  0.00    +0.000 NA
ATOM     19  H   UNL     1       5.541   2.050  12.356  0.00  0.00    +0.000 HD
ATOM     20  H   UNL     1       6.679   2.195  11.124  0.00  0.00    +0.000 HD
ENDBRANCH  17  18
ENDBRANCH  16  17
ENDBRANCH   1  16
TORSDOF 4
ENDMDL
MODEL 8
REMARK VINA RESULT:      -6.8      3.707      4.794
REMARK  Name = 
REMARK  4 active torsions:
REMARK  status: ('A' for Active; 'I' for Inactive)
REMARK    1  A    between atoms: N_1  and  C_2
REMARK    2  A    between atoms: C_2  and  C_3
REMARK    3  A    between atoms: C_3  and  C_4
REMARK    4  A    between atoms: C_9  and  C_10
REMARK                            x       y       z     vdW  Elec       q    Type
REMARK                         _______ _______ _______ _____ _____    ______ ____
ROOT
ATOM      1  C   UNL     1       4.842   4.487  16.735  0.00  0.00    +0.000 A 
ATOM      2  C   UNL     1       4.281   3.539  17.632  0.00  0.00    +0.000 A 
ATOM      3  C   UNL     1       3.412   3.946  18.657  0.00  0.00    +0.000 A 
ATOM      4  C   UNL     1       3.124   5.299  18.747  0.00  0.00    +0.000 A 
ATOM      5  N   UNL     1       2.302   5.907  19.614  0.00  0.00    +0.000 NA
ATOM      6  C   UNL     1       2.370   7.209  19.238  0.00  0.00    +0.000 A 
ATOM      7  O   UNL     1       3.186   7.404  18.210  0.00  0.00    +0.000 OA
ATOM      8  C   UNL     1       3.655   6.223  17.901  0.00  0.00    +0.000 A 
ATOM      9  C   UNL     1       4.532   5.863  16.877  0.00  0.00    +0.000 A 
ENDROOT
BRANCH   6  10
ATOM     10  C   UNL     1       1.569   8.270  19.879  0.00  0.00    +0.000 A 
ATOM     11  C   UNL     1       1.156   8.129  21.217  0.00  0.00    +0.000 A 
ATOM     12  C   UNL     1       0.375   9.113  21.823  0.00  0.00    +0.000 A 
ATOM     13  C   UNL     1      -0.002  10.249  21.104  0.00  0.00    +0.000 A 
ATOM     14  C   UNL     1       0.404  10.399  19.773  0.00  0.00    +0.000 A 
ATOM     15  C   UNL     1       1.188   9.415  19.162  0.00  0.00    +0.000 A 
ENDBRANCH   6  10
BRANCH   1  16
ATOM     16  C   UNL     1       5.734   4.014  15.622  0.00  0.00    +0.000 C 
BRANCH  16  17
ATOM     17  C   UNL     1       7.114   4.681  15.736  0.00  0.00    +0.000 C 
BRANCH  17  18
ATOM     18  N   UNL     1       7.838   4.222  16.921  0.00  0.00    +0.000 NA
ATOM     19  H   UNL     1       8.684   4.827  17.046  0.00  0.00    +0.000 HD
ATOM     20  H   UNL     1       7.260   4.313  17.783  0.00  0.00    +0.000 HD
ENDBRANCH  17  18
ENDBRANCH  16  17
ENDBRANCH   1  16
TORSDOF 4
ENDMDL
MODEL 9
REMARK VINA RESULT:      -6.7      3.827      4.852
REMARK  Name = 
REMARK  4 active torsions:
REMARK  status: ('A' for Active; 'I' for Inactive)
REMARK    1  A    between atoms: N_1  and  C_2
REMARK    2  A    between atoms: C_2  and  C_3
REMARK    3  A    between atoms: C_3  and  C_4
REMARK    4  A    between atoms: C_9  and  C_10
REMARK                            x       y       z     vdW  Elec       q    Type
REMARK                         _______ _______ _______ _____ _____    ______ ____
ROOT
ATOM      1  C   UNL     1       4.792   4.535  17.003  0.00  0.00    +0.000 A 
ATOM      2  C   UNL     1       4.353   3.640  18.014  0.00  0.00    +0.000 A 
ATOM      3  C   UNL     1       3.528   4.087  19.060  0.00  0.00    +0.000 A 
ATOM      4  C   UNL     1       3.161   5.423  19.054  0.00  0.00    +0.000 A 
ATOM      5  N   UNL     1       2.361   6.058  19.922  0.00  0.00    +0.000 NA
ATOM      6  C   UNL     1       2.321   7.323  19.432  0.00  0.00    +0.000 A 
ATOM      7  O   UNL     1       3.054   7.472  18.337  0.00  0.00    +0.000 OA
ATOM      8  C   UNL     1       3.575   6.297  18.097  0.00  0.00    +0.000 A 
ATOM      9  C   UNL     1       4.405   5.899  17.048  0.00  0.00    +0.000 A 
ENDROOT
BRANCH   6  10
ATOM     10  C   UNL     1       1.498   8.390  20.036  0.00  0.00    +0.000 A 
ATOM     11  C   UNL     1       1.069   9.476  19.250  0.00  0.00    +0.000 A 
ATOM     12  C   UNL     1       0.314  10.504  19.818  0.00  0.00    +0.000 A 
ATOM     13  C   UNL     1      -0.022  10.460  21.172  0.00  0.00    +0.000 A 
ATOM     14  C   UNL     1       0.400   9.383  21.961  0.00  0.00    +0.000 A 
ATOM     15  C   UNL     1       1.156   8.351  21.396  0.00  0.00    +0.000 A 
ENDBRANCH   6  10
BRANCH   1  16
ATOM     16  C   UNL     1       5.637   4.016  15.873  0.00  0.00    +0.000 C 
BRANCH  16  17
ATOM     17  C   UNL     1       7.006   4.715  15.880  0.00  0.00    +0.000 C 
BRANCH  17  18
ATOM     18  N   UNL     1       7.858   4.222  16.961  0.00  0.00    +0.000 NA
ATOM     19  H   UNL     1       7.359   3.437  17.442  0.00  0.00    +0.000 HD
ATOM     20  H   UNL     1       8.757   3.841  16.597  0.00  0.00    +0.000 HD
ENDBRANCH  17  18
ENDBRANCH  16  17
ENDBRANCH   1  16
TORSDOF 4
ENDMDL
