MODEL 1
REMARK VINA RESULT:      -8.6      0.000      0.000
REMARK  Name = 
REMARK  9 active torsions:
REMARK  status: ('A' for Active; 'I' for Inactive)
REMARK    1  A    between atoms: C_1  and  O_2
REMARK    2  A    between atoms: O_2  and  C_3
REMARK    3  A    between atoms: C_12  and  O_13
REMARK    4  A    between atoms: O_13  and  C_14
REMARK    5  A    between atoms: C_16  and  C_17
REMARK    6  A    between atoms: C_17  and  N_18
REMARK    7  A    between atoms: N_18  and  C_19
REMARK    8  A    between atoms: N_18  and  C_20
REMARK    9  A    between atoms: N_18  and  C_21
REMARK                            x       y       z     vdW  Elec       q    Type
REMARK                         _______ _______ _______ _____ _____    ______ ____
ROOT
ATOM      1  C   UNL     1       0.980   9.828  21.420  0.00  0.00    +0.000 A 
ATOM      2  C   UNL     1       0.618  11.132  21.063  0.00  0.00    +0.000 A 
ATOM      3  C   UNL     1       0.725  11.570  19.742  0.00  0.00    +0.000 A 
ATOM      4  C   UNL     1       1.249  10.718  18.773  0.00  0.00    +0.000 A 
ATOM      5  C   UNL     1       1.613   9.409  19.117  0.00  0.00    +0.000 A 
ATOM      6  C   UNL     1       1.408   8.940  20.423  0.00  0.00    +0.000 A 
ATOM      7  C   UNL     1       1.463   7.482  20.623  0.00  0.00    +0.000 C 
ATOM      8  O   UNL     1       0.657   6.934  21.364  0.00  0.00    +0.000 OA
ATOM      9  C   UNL     1       2.349   6.667  19.776  0.00  0.00    +0.000 A 
ATOM     10  C   UNL     1       2.759   5.370  20.113  0.00  0.00    +0.000 A 
ATOM     11  C   UNL     1       3.452   4.600  19.177  0.00  0.00    +0.000 A 
ATOM     12  C   UNL     1       3.786   5.104  17.915  0.00  0.00    +0.000 A 
ATOM     13  C   UNL     1       3.374   6.400  17.582  0.00  0.00    +0.000 A 
ATOM     14  C   UNL     1       2.665   7.172  18.512  0.00  0.00    +0.000 A 
ATOM     15  C   UNL     1       2.203   8.521  18.105  0.00  0.00    +0.000 C 
ATOM     16  O   UNL     1       2.361   8.884  16.942  0.00  0.00    +0.000 OA
ENDROOT
BRANCH   1  18
ATOM     17  C   UNL     1      -0.486   9.852  23.255  0.00  0.00    +0.000 C 
ATOM     18  O   UNL     1       0.813   9.528  22.745  0.00  0.00    +0.000 OA
ENDBRANCH   1  18
BRANCH  10  19
ATOM     19  O   UNL     1       2.463   4.686  21.258  0.00  0.00    +0.000 OA
ATOM     20  C   UNL     1       1.634   3.536  21.066  0.00  0.00    +0.000 C 
ENDBRANCH  10  19
BRANCH  12  21
ATOM     21  C   UNL     1       4.558   4.248  16.948  0.00  0.00    +0.000 C 
BRANCH  21  22
ATOM     22  N   UNL     1       5.678   4.949  16.139  0.00  0.00    +0.000 NA
ATOM     23  C   UNL     1       6.419   3.878  15.333  0.00  0.00    +0.000 C 
ATOM     24  C   UNL     1       5.110   5.996  15.188  0.00  0.00    +0.000 C 
BRANCH  22  25
ATOM     25  C   UNL     1       6.650   5.648  17.095  0.00  0.00    +0.000 A 
ATOM     26  C   UNL     1       7.227   4.946  18.165  0.00  0.00    +0.000 A 
ATOM     27  C   UNL     1       8.010   5.602  19.121  0.00  0.00    +0.000 A 
ATOM     28  C   UNL     1       8.260   6.963  19.004  0.00  0.00    +0.000 A 
ATOM     29  C   UNL     1       7.775   7.657  17.904  0.00  0.00    +0.000 A 
ATOM     30  C   UNL     1       6.992   7.002  16.947  0.00  0.00    +0.000 A 
ENDBRANCH  22  25
ENDBRANCH  21  22
ENDBRANCH  12  21
TORSDOF 5
ENDMDL
MODEL 2
REMARK VINA RESULT:      -8.0      1.078      2.568
REMARK  Name = 
REMARK  9 active torsions:
REMARK  status: ('A' for Active; 'I' for Inactive)
REMARK    1  A    between atoms: C_1  and  O_2
REMARK    2  A    between atoms: O_2  and  C_3
REMARK    3  A    between atoms: C_12  and  O_13
REMARK    4  A    between atoms: O_13  and  C_14
REMARK    5  A    between atoms: C_16  and  C_17
REMARK    6  A    between atoms: C_17  and  N_18
REMARK    7  A    between atoms: N_18  and  C_19
REMARK    8  A    between atoms: N_18  and  C_20
REMARK    9  A    between atoms: N_18  and  C_21
REMARK                            x       y       z     vdW  Elec       q    Type
REMARK                         _______ _______ _______ _____ _____    ______ ____
ROOT
ATOM      1  C   UNL     1       0.905   9.882  21.547  0.00  0.00    +0.000 A 
ATOM      2  C   UNL     1       0.486  11.186  21.258  0.00  0.00    +0.000 A 
ATOM      3  C   UNL     1       0.532  11.682  19.955  0.00  0.00    +0.000 A 
ATOM      4  C   UNL     1       1.053  10.891  18.933  0.00  0.00    +0.000 A 
ATOM      5  C   UNL     1       1.474   9.584  19.208  0.00  0.00    +0.000 A 
ATOM      6  C   UNL     1       1.330   9.053  20.500  0.00  0.00    +0.000 A 
ATOM      7  C   UNL     1       1.442   7.591  20.634  0.00  0.00    +0.000 C 
ATOM      8  O   UNL     1       0.682   6.983  21.377  0.00  0.00    +0.000 OA
ATOM      9  C   UNL     1       2.327   6.844  19.724  0.00  0.00    +0.000 A 
ATOM     10  C   UNL     1       2.793   5.550  19.992  0.00  0.00    +0.000 A 
ATOM     11  C   UNL     1       3.480   4.846  19.002  0.00  0.00    +0.000 A 
ATOM     12  C   UNL     1       3.754   5.415  17.752  0.00  0.00    +0.000 A 
ATOM     13  C   UNL     1       3.286   6.707  17.489  0.00  0.00    +0.000 A 
ATOM     14  C   UNL     1       2.581   7.414  18.475  0.00  0.00    +0.000 A 
ATOM     15  C   UNL     1       2.059   8.760  18.141  0.00  0.00    +0.000 C 
ATOM     16  O   UNL     1       2.165   9.177  16.990  0.00  0.00    +0.000 OA
ENDROOT
BRANCH   1  18
ATOM     17  C   UNL     1      -0.524   9.683  23.400  0.00  0.00    +0.000 C 
ATOM     18  O   UNL     1       0.793   9.521  22.862  0.00  0.00    +0.000 OA
ENDBRANCH   1  18
BRANCH  10  19
ATOM     19  O   UNL     1       2.560   4.809  21.116  0.00  0.00    +0.000 OA
ATOM     20  C   UNL     1       1.639   3.729  20.935  0.00  0.00    +0.000 C 
ENDBRANCH  10  19
BRANCH  12  21
ATOM     21  C   UNL     1       4.522   4.628  16.725  0.00  0.00    +0.000 C 
BRANCH  21  22
ATOM     22  N   UNL     1       5.971   5.093  16.434  0.00  0.00    +0.000 NA
ATOM     23  C   UNL     1       6.020   6.614  16.605  0.00  0.00    +0.000 C 
ATOM     24  C   UNL     1       6.970   4.444  17.385  0.00  0.00    +0.000 C 
BRANCH  22  25
ATOM     25  C   UNL     1       6.360   4.717  15.001  0.00  0.00    +0.000 A 
ATOM     26  C   UNL     1       7.477   5.304  14.387  0.00  0.00    +0.000 A 
ATOM     27  C   UNL     1       7.767   5.070  13.038  0.00  0.00    +0.000 A 
ATOM     28  C   UNL     1       6.966   4.216  12.290  0.00  0.00    +0.000 A 
ATOM     29  C   UNL     1       5.911   3.554  12.903  0.00  0.00    +0.000 A 
ATOM     30  C   UNL     1       5.621   3.786  14.252  0.00  0.00    +0.000 A 
ENDBRANCH  22  25
ENDBRANCH  21  22
ENDBRANCH  12  21
TORSDOF 5
ENDMDL
MODEL 3
REMARK VINA RESULT:      -7.9      0.968      1.506
REMARK  Name = 
REMARK  9 active torsions:
REMARK  status: ('A' for Active; 'I' for Inactive)
REMARK    1  A    between atoms: C_1  and  O_2
REMARK    2  A    between atoms: O_2  and  C_3
REMARK    3  A    between atoms: C_12  and  O_13
REMARK    4  A    between atoms: O_13  and  C_14
REMARK    5  A    between atoms: C_16  and  C_17
REMARK    6  A    between atoms: C_17  and  N_18
REMARK    7  A    between atoms: N_18  and  C_19
REMARK    8  A    between atoms: N_18  and  C_20
REMARK    9  A    between atoms: N_18  and  C_21
REMARK                            x       y       z     vdW  Elec       q    Type
REMARK                         _______ _______ _______ _____ _____    ______ ____
ROOT
ATOM      1  C   UNL     1       0.579  10.647  21.633  0.00  0.00    +0.000 A 
ATOM      2  C   UNL     1       0.328  11.995  21.352  0.00  0.00    +0.000 A 
ATOM      3  C   UNL     1       0.535  12.512  20.072  0.00  0.00    +0.000 A 
ATOM      4  C   UNL     1       1.050  11.692  19.072  0.00  0.00    +0.000 A 
ATOM      5  C   UNL     1       1.304  10.340  19.339  0.00  0.00    +0.000 A 
ATOM      6  C   UNL     1       0.998   9.800  20.598  0.00  0.00    +0.000 A 
ATOM      7  C   UNL     1       0.941   8.332  20.696  0.00  0.00    +0.000 C 
ATOM      8  O   UNL     1       0.061   7.794  21.356  0.00  0.00    +0.000 OA
ATOM      9  C   UNL     1       1.813   7.513  19.836  0.00  0.00    +0.000 A 
ATOM     10  C   UNL     1       2.113   6.170  20.100  0.00  0.00    +0.000 A 
ATOM     11  C   UNL     1       2.800   5.417  19.146  0.00  0.00    +0.000 A 
ATOM     12  C   UNL     1       3.235   5.979  17.941  0.00  0.00    +0.000 A 
ATOM     13  C   UNL     1       2.932   7.321  17.681  0.00  0.00    +0.000 A 
ATOM     14  C   UNL     1       2.229   8.078  18.629  0.00  0.00    +0.000 A 
ATOM     15  C   UNL     1       1.883   9.481  18.296  0.00  0.00    +0.000 C 
ATOM     16  O   UNL     1       2.128   9.909  17.171  0.00  0.00    +0.000 OA
ENDROOT
BRANCH   1  18
ATOM     17  C   UNL     1      -1.050  10.419  23.309  0.00  0.00    +0.000 C 
ATOM     18  O   UNL     1       0.322  10.271  22.923  0.00  0.00    +0.000 OA
ENDBRANCH   1  18
BRANCH  10  19
ATOM     19  O   UNL     1       1.710   5.434  21.178  0.00  0.00    +0.000 OA
ATOM     20  C   UNL     1       2.196   4.088  21.194  0.00  0.00    +0.000 C 
ENDBRANCH  10  19
BRANCH  12  21
ATOM     21  C   UNL     1       3.997   5.136  16.953  0.00  0.00    +0.000 C 
BRANCH  21  22
ATOM     22  N   UNL     1       5.331   4.523  17.447  0.00  0.00    +0.000 NA
ATOM     23  C   UNL     1       5.024   3.651  18.669  0.00  0.00    +0.000 C 
ATOM     24  C   UNL     1       5.989   3.670  16.369  0.00  0.00    +0.000 C 
BRANCH  22  25
ATOM     25  C   UNL     1       6.304   5.640  17.835  0.00  0.00    +0.000 A 
ATOM     26  C   UNL     1       6.426   6.789  17.037  0.00  0.00    +0.000 A 
ATOM     27  C   UNL     1       7.403   7.754  17.306  0.00  0.00    +0.000 A 
ATOM     28  C   UNL     1       8.250   7.607  18.397  0.00  0.00    +0.000 A 
ATOM     29  C   UNL     1       8.085   6.524  19.251  0.00  0.00    +0.000 A 
ATOM     30  C   UNL     1       7.109   5.558  18.984  0.00  0.00    +0.000 A 
ENDBRANCH  22  25
ENDBRANCH  21  22
ENDBRANCH  12  21
TORSDOF 5
ENDMDL
MODEL 4
REMARK VINA RESULT:      -7.8      1.542      3.104
REMARK  Name = 
REMARK  9 active torsions:
REMARK  status: ('A' for Active; 'I' for Inactive)
REMARK    1  A    between atoms: C_1  and  O_2
REMARK    2  A    between atoms: O_2  and  C_3
REMARK    3  A    between atoms: C_12  and  O_13
REMARK    4  A    between atoms: O_13  and  C_14
REMARK    5  A    between atoms: C_16  and  C_17
REMARK    6  A    between atoms: C_17  and  N_18
REMARK    7  A    between atoms: N_18  and  C_19
REMARK    8  A    between atoms: N_18  and  C_20
REMARK    9  A    between atoms: N_18  and  C_21
REMARK                            x       y       z     vdW  Elec       q    Type
REMARK                         _______ _______ _______ _____ _____    ______ ____
ROOT
ATOM      1  C   UNL     1       0.176  11.329  21.569  0.00  0.00    +0.000 A 
ATOM      2  C   UNL     1      -0.090  12.680  21.320  0.00  0.00    +0.000 A 
ATOM      3  C   UNL     1       0.228  13.259  20.090  0.00  0.00    +0.000 A 
ATOM      4  C   UNL     1       0.866  12.499  19.114  0.00  0.00    +0.000 A 
ATOM      5  C   UNL     1       1.136  11.144  19.349  0.00  0.00    +0.000 A 
ATOM      6  C   UNL     1       0.723  10.540  20.547  0.00  0.00    +0.000 A 
ATOM      7  C   UNL     1       0.704   9.068  20.577  0.00  0.00    +0.000 C 
ATOM      8  O   UNL     1      -0.220   8.477  21.123  0.00  0.00    +0.000 OA
ATOM      9  C   UNL     1       1.683   8.313  19.777  0.00  0.00    +0.000 A 
ATOM     10  C   UNL     1       1.999   6.969  20.014  0.00  0.00    +0.000 A 
ATOM     11  C   UNL     1       2.802   6.279  19.105  0.00  0.00    +0.000 A 
ATOM     12  C   UNL     1       3.337   6.906  17.974  0.00  0.00    +0.000 A 
ATOM     13  C   UNL     1       3.018   8.249  17.741  0.00  0.00    +0.000 A 
ATOM     14  C   UNL     1       2.200   8.943  18.643  0.00  0.00    +0.000 A 
ATOM     15  C   UNL     1       1.844  10.350  18.336  0.00  0.00    +0.000 C 
ATOM     16  O   UNL     1       2.186  10.834  17.260  0.00  0.00    +0.000 OA
ENDROOT
BRANCH   1  18
ATOM     17  C   UNL     1      -1.544  11.222  23.164  0.00  0.00    +0.000 C 
ATOM     18  O   UNL     1      -0.197  10.889  22.810  0.00  0.00    +0.000 OA
ENDBRANCH   1  18
BRANCH  10  19
ATOM     19  O   UNL     1       1.514   6.174  21.014  0.00  0.00    +0.000 OA
ATOM     20  C   UNL     1       2.110   4.875  21.083  0.00  0.00    +0.000 C 
ENDBRANCH  10  19
BRANCH  12  21
ATOM     21  C   UNL     1       4.221   6.129  17.035  0.00  0.00    +0.000 C 
BRANCH  21  22
ATOM     22  N   UNL     1       5.192   5.109  17.679  0.00  0.00    +0.000 NA
ATOM     23  C   UNL     1       6.269   4.767  16.645  0.00  0.00    +0.000 C 
ATOM     24  C   UNL     1       5.851   5.676  18.931  0.00  0.00    +0.000 C 
BRANCH  22  25
ATOM     25  C   UNL     1       4.427   3.841  18.073  0.00  0.00    +0.000 A 
ATOM     26  C   UNL     1       3.439   3.312  17.227  0.00  0.00    +0.000 A 
ATOM     27  C   UNL     1       2.643   2.235  17.632  0.00  0.00    +0.000 A 
ATOM     28  C   UNL     1       2.845   1.645  18.873  0.00  0.00    +0.000 A 
ATOM     29  C   UNL     1       3.877   2.094  19.687  0.00  0.00    +0.000 A 
ATOM     30  C   UNL     1       4.674   3.171  19.283  0.00  0.00    +0.000 A 
ENDBRANCH  22  25
ENDBRANCH  21  22
ENDBRANCH  12  21
TORSDOF 5
ENDMDL
MODEL 5
REMARK VINA RESULT:      -7.6      1.131      2.456
REMARK  Name = 
REMARK  9 active torsions:
REMARK  status: ('A' for Active; 'I' for Inactive)
REMARK    1  A    between atoms: C_1  and  O_2
REMARK    2  A    between atoms: O_2  and  C_3
REMARK    3  A    between atoms: C_12  and  O_13
REMARK    4  A    between atoms: O_13  and  C_14
REMARK    5  A    between atoms: C_16  and  C_17
REMARK    6  A    between atoms: C_17  and  N_18
REMARK    7  A    between atoms: N_18  and  C_19
REMARK    8  A    between atoms: N_18  and  C_20
REMARK    9  A    between atoms: N_18  and  C_21
REMARK                            x       y       z     vdW  Elec       q    Type
REMARK                         _______ _______ _______ _____ _____    ______ ____
ROOT
ATOM      1  C   UNL     1       0.659  10.425  21.543  0.00  0.00    +0.000 A 
ATOM      2  C   UNL     1       0.329  11.741  21.201  0.00  0.00    +0.000 A 
ATOM      3  C   UNL     1       0.467  12.198  19.889  0.00  0.00    +0.000 A 
ATOM      4  C   UNL     1       0.991  11.352  18.916  0.00  0.00    +0.000 A 
ATOM      5  C   UNL     1       1.324  10.031  19.244  0.00  0.00    +0.000 A 
ATOM      6  C   UNL     1       1.087   9.545  20.539  0.00  0.00    +0.000 A 
ATOM      7  C   UNL     1       1.109   8.083  20.716  0.00  0.00    +0.000 C 
ATOM      8  O   UNL     1       0.280   7.539  21.435  0.00  0.00    +0.000 OA
ATOM      9  C   UNL     1       1.994   7.264  19.871  0.00  0.00    +0.000 A 
ATOM     10  C   UNL     1       2.372   5.954  20.194  0.00  0.00    +0.000 A 
ATOM     11  C   UNL     1       3.066   5.186  19.258  0.00  0.00    +0.000 A 
ATOM     12  C   UNL     1       3.432   5.703  18.010  0.00  0.00    +0.000 A 
ATOM     13  C   UNL     1       3.052   7.012  17.691  0.00  0.00    +0.000 A 
ATOM     14  C   UNL     1       2.341   7.783  18.622  0.00  0.00    +0.000 A 
ATOM     15  C   UNL     1       1.913   9.147  18.229  0.00  0.00    +0.000 C 
ATOM     16  O   UNL     1       2.099   9.525  17.075  0.00  0.00    +0.000 OA
ENDROOT
BRANCH   1  18
ATOM     17  C   UNL     1      -0.883  10.302  23.310  0.00  0.00    +0.000 C 
ATOM     18  O   UNL     1       0.462  10.107  22.860  0.00  0.00    +0.000 OA
ENDBRANCH   1  18
BRANCH  10  19
ATOM     19  O   UNL     1       2.043   5.258  21.323  0.00  0.00    +0.000 OA
ATOM     20  C   UNL     1       2.297   3.852  21.249  0.00  0.00    +0.000 C 
ENDBRANCH  10  19
BRANCH  12  21
ATOM     21  C   UNL     1       4.205   4.847  17.043  0.00  0.00    +0.000 C 
BRANCH  21  22
ATOM     22  N   UNL     1       5.685   5.235  16.799  0.00  0.00    +0.000 NA
ATOM     23  C   UNL     1       5.825   6.738  17.056  0.00  0.00    +0.000 C 
ATOM     24  C   UNL     1       6.624   4.472  17.726  0.00  0.00    +0.000 C 
BRANCH  22  25
ATOM     25  C   UNL     1       6.074   4.914  15.353  0.00  0.00    +0.000 A 
ATOM     26  C   UNL     1       5.249   4.107  14.554  0.00  0.00    +0.000 A 
ATOM     27  C   UNL     1       5.655   3.698  13.278  0.00  0.00    +0.000 A 
ATOM     28  C   UNL     1       6.876   4.118  12.766  0.00  0.00    +0.000 A 
ATOM     29  C   UNL     1       7.666   4.990  13.503  0.00  0.00    +0.000 A 
ATOM     30  C   UNL     1       7.261   5.401  14.778  0.00  0.00    +0.000 A 
ENDBRANCH  22  25
ENDBRANCH  21  22
ENDBRANCH  12  21
TORSDOF 5
ENDMDL
MODEL 6
REMARK VINA RESULT:      -7.4      1.991      4.301
REMARK  Name = 
REMARK  9 active torsions:
REMARK  status: ('A' for Active; 'I' for Inactive)
REMARK    1  A    between atoms: C_1  and  O_2
REMARK    2  A    between atoms: O_2  and  C_3
REMARK    3  A    between atoms: C_12  and  O_13
REMARK    4  A    between atoms: O_13  and  C_14
REMARK    5  A    between atoms: C_16  and  C_17
REMARK    6  A    between atoms: C_17  and  N_18
REMARK    7  A    between atoms: N_18  and  C_19
REMARK    8  A    between atoms: N_18  and  C_20
REMARK    9  A    between atoms: N_18  and  C_21
REMARK                            x       y       z     vdW  Elec       q    Type
REMARK                         _______ _______ _______ _____ _____    ______ ____
ROOT
ATOM      1  C   UNL     1      -0.736  12.150  19.527  0.00  0.00    +0.000 A 
ATOM      2  C   UNL     1      -1.532  12.884  20.414  0.00  0.00    +0.000 A 
ATOM      3  C   UNL     1      -1.717  12.462  21.731  0.00  0.00    +0.000 A 
ATOM      4  C   UNL     1      -1.149  11.265  22.158  0.00  0.00    +0.000 A 
ATOM      5  C   UNL     1      -0.348  10.520  21.281  0.00  0.00    +0.000 A 
ATOM      6  C   UNL     1      -0.080  11.000  19.990  0.00  0.00    +0.000 A 
ATOM      7  C   UNL     1       1.039  10.374  19.267  0.00  0.00    +0.000 C 
ATOM      8  O   UNL     1       1.805  11.064  18.604  0.00  0.00    +0.000 OA
ATOM      9  C   UNL     1       1.356   8.956  19.507  0.00  0.00    +0.000 A 
ATOM     10  C   UNL     1       2.123   8.178  18.629  0.00  0.00    +0.000 A 
ATOM     11  C   UNL     1       2.525   6.899  19.014  0.00  0.00    +0.000 A 
ATOM     12  C   UNL     1       2.149   6.350  20.245  0.00  0.00    +0.000 A 
ATOM     13  C   UNL     1       1.383   7.131  21.119  0.00  0.00    +0.000 A 
ATOM     14  C   UNL     1       0.989   8.423  20.745  0.00  0.00    +0.000 A 
ATOM     15  C   UNL     1       0.222   9.237  21.717  0.00  0.00    +0.000 C 
ATOM     16  O   UNL     1       0.041   8.804  22.852  0.00  0.00    +0.000 OA
ENDROOT
BRANCH   1  18
ATOM     17  C   UNL     1      -0.155  14.035  18.254  0.00  0.00    +0.000 C 
ATOM     18  O   UNL     1      -0.630  12.684  18.272  0.00  0.00    +0.000 OA
ENDBRANCH   1  18
BRANCH  10  19
ATOM     19  O   UNL     1       2.644   8.567  17.427  0.00  0.00    +0.000 OA
ATOM     20  C   UNL     1       3.733   7.764  16.964  0.00  0.00    +0.000 C 
ENDBRANCH  10  19
BRANCH  12  21
ATOM     21  C   UNL     1       2.583   4.954  20.607  0.00  0.00    +0.000 C 
BRANCH  21  22
ATOM     22  N   UNL     1       2.536   3.897  19.475  0.00  0.00    +0.000 NA
ATOM     23  C   UNL     1       2.528   2.511  20.126  0.00  0.00    +0.000 C 
ATOM     24  C   UNL     1       1.292   4.058  18.609  0.00  0.00    +0.000 C 
BRANCH  22  25
ATOM     25  C   UNL     1       3.768   4.045  18.576  0.00  0.00    +0.000 A 
ATOM     26  C   UNL     1       5.025   4.335  19.130  0.00  0.00    +0.000 A 
ATOM     27  C   UNL     1       6.129   4.602  18.313  0.00  0.00    +0.000 A 
ATOM     28  C   UNL     1       6.006   4.547  16.931  0.00  0.00    +0.000 A 
ATOM     29  C   UNL     1       4.794   4.172  16.365  0.00  0.00    +0.000 A 
ATOM     30  C   UNL     1       3.689   3.904  17.180  0.00  0.00    +0.000 A 
ENDBRANCH  22  25
ENDBRANCH  21  22
ENDBRANCH  12  21
TORSDOF 5
ENDMDL
MODEL 7
REMARK VINA RESULT:      -7.2      3.814      8.560
REMARK  Name = 
REMARK  9 active torsions:
REMARK  status: ('A' for Active; 'I' for Inactive)
REMARK    1  A    between atoms: C_1  and  O_2
REMARK    2  A    between atoms: O_2  and  C_3
REMARK    3  A    between atoms: C_12  and  O_13
REMARK    4  A    between atoms: O_13  and  C_14
REMARK    5  A    between atoms: C_16  and  C_17
REMARK    6  A    between atoms: C_17  and  N_18
REMARK    7  A    between atoms: N_18  and  C_19
REMARK    8  A    between atoms: N_18  and  C_20
REMARK    9  A    between atoms: N_18  and  C_21
REMARK                            x       y       z     vdW  Elec       q    Type
REMARK                         _______ _______ _______ _____ _____    ______ ____
ROOT
ATOM      1  C   UNL     1       1.991   6.417  19.879  0.00  0.00    +0.000 A 
ATOM      2  C   UNL     1       2.805   5.716  18.982  0.00  0.00    +0.000 A 
ATOM      3  C   UNL     1       3.391   6.360  17.891  0.00  0.00    +0.000 A 
ATOM      4  C   UNL     1       3.122   7.706  17.658  0.00  0.00    +0.000 A 
ATOM      5  C   UNL     1       2.310   8.420  18.549  0.00  0.00    +0.000 A 
ATOM      6  C   UNL     1       1.806   7.796  19.700  0.00  0.00    +0.000 A 
ATOM      7  C   UNL     1       1.283   8.675  20.759  0.00  0.00    +0.000 C 
ATOM      8  O   UNL     1       1.518   8.426  21.935  0.00  0.00    +0.000 OA
ATOM      9  C   UNL     1       0.658   9.958  20.395  0.00  0.00    +0.000 A 
ATOM     10  C   UNL     1      -0.187  10.675  21.252  0.00  0.00    +0.000 A 
ATOM     11  C   UNL     1      -0.594  11.962  20.900  0.00  0.00    +0.000 A 
ATOM     12  C   UNL     1      -0.212  12.548  19.688  0.00  0.00    +0.000 A 
ATOM     13  C   UNL     1       0.633  11.829  18.835  0.00  0.00    +0.000 A 
ATOM     14  C   UNL     1       1.058  10.541  19.190  0.00  0.00    +0.000 A 
ATOM     15  C   UNL     1       1.992   9.831  18.284  0.00  0.00    +0.000 C 
ATOM     16  O   UNL     1       2.447  10.421  17.308  0.00  0.00    +0.000 OA
ENDROOT
BRANCH   1  18
ATOM     17  C   UNL     1       1.175   4.319  20.546  0.00  0.00    +0.000 C 
ATOM     18  O   UNL     1       1.492   5.668  20.909  0.00  0.00    +0.000 OA
ENDBRANCH   1  18
BRANCH  10  19
ATOM     19  O   UNL     1      -0.601  10.301  22.499  0.00  0.00    +0.000 OA
ATOM     20  C   UNL     1      -1.483  11.231  23.135  0.00  0.00    +0.000 C 
ENDBRANCH  10  19
BRANCH  12  21
ATOM     21  C   UNL     1      -0.698  13.929  19.338  0.00  0.00    +0.000 C 
BRANCH  21  22
ATOM     22  N   UNL     1       0.021  15.115  20.030  0.00  0.00    +0.000 NA
ATOM     23  C   UNL     1      -0.899  15.643  21.134  0.00  0.00    +0.000 C 
ATOM     24  C   UNL     1       1.351  14.686  20.639  0.00  0.00    +0.000 C 
BRANCH  22  25
ATOM     25  C   UNL     1       0.298  16.222  19.007  0.00  0.00    +0.000 A 
ATOM     26  C   UNL     1      -0.756  16.980  18.473  0.00  0.00    +0.000 A 
ATOM     27  C   UNL     1      -0.534  17.902  17.444  0.00  0.00    +0.000 A 
ATOM     28  C   UNL     1       0.750  18.108  16.956  0.00  0.00    +0.000 A 
ATOM     29  C   UNL     1       1.819  17.435  17.533  0.00  0.00    +0.000 A 
ATOM     30  C   UNL     1       1.598  16.514  18.563  0.00  0.00    +0.000 A 
ENDBRANCH  22  25
ENDBRANCH  21  22
ENDBRANCH  12  21
TORSDOF 5
ENDMDL
MODEL 8
REMARK VINA RESULT:      -7.1      3.547      8.083
REMARK  Name = 
REMARK  9 active torsions:
REMARK  status: ('A' for Active; 'I' for Inactive)
REMARK    1  A    between atoms: C_1  and  O_2
REMARK    2  A    between atoms: O_2  and  C_3
REMARK    3  A    between atoms: C_12  and  O_13
REMARK    4  A    between atoms: O_13  and  C_14
REMARK    5  A    between atoms: C_16  and  C_17
REMARK    6  A    between atoms: C_17  and  N_18
REMARK    7  A    between atoms: N_18  and  C_19
REMARK    8  A    between atoms: N_18  and  C_20
REMARK    9  A    between atoms: N_18  and  C_21
REMARK                            x       y       z     vdW  Elec       q    Type
REMARK                         _______ _______ _______ _____ _____    ______ ____
ROOT
ATOM      1  C   UNL     1       2.024   6.234  19.845  0.00  0.00    +0.000 A 
ATOM      2  C   UNL     1       2.861   5.551  18.955  0.00  0.00    +0.000 A 
ATOM      3  C   UNL     1       3.459   6.212  17.881  0.00  0.00    +0.000 A 
ATOM      4  C   UNL     1       3.179   7.558  17.656  0.00  0.00    +0.000 A 
ATOM      5  C   UNL     1       2.344   8.254  18.541  0.00  0.00    +0.000 A 
ATOM      6  C   UNL     1       1.828   7.612  19.677  0.00  0.00    +0.000 A 
ATOM      7  C   UNL     1       1.278   8.475  20.736  0.00  0.00    +0.000 C 
ATOM      8  O   UNL     1       1.495   8.216  21.913  0.00  0.00    +0.000 OA
ATOM      9  C   UNL     1       0.646   9.755  20.374  0.00  0.00    +0.000 A 
ATOM     10  C   UNL     1      -0.222  10.454  21.224  0.00  0.00    +0.000 A 
ATOM     11  C   UNL     1      -0.637  11.741  20.879  0.00  0.00    +0.000 A 
ATOM     12  C   UNL     1      -0.240  12.343  19.679  0.00  0.00    +0.000 A 
ATOM     13  C   UNL     1       0.626  11.642  18.833  0.00  0.00    +0.000 A 
ATOM     14  C   UNL     1       1.059  10.355  19.182  0.00  0.00    +0.000 A 
ATOM     15  C   UNL     1       2.016   9.664  18.285  0.00  0.00    +0.000 C 
ATOM     16  O   UNL     1       2.481  10.269  17.323  0.00  0.00    +0.000 OA
ENDROOT
BRANCH   1  18
ATOM     17  C   UNL     1       1.139   4.147  20.456  0.00  0.00    +0.000 C 
ATOM     18  O   UNL     1       1.516   5.469  20.859  0.00  0.00    +0.000 OA
ENDBRANCH   1  18
BRANCH  10  19
ATOM     19  O   UNL     1      -0.653  10.063  22.460  0.00  0.00    +0.000 OA
ATOM     20  C   UNL     1      -1.391  11.059  23.174  0.00  0.00    +0.000 C 
ENDBRANCH  10  19
BRANCH  12  21
ATOM     21  C   UNL     1      -0.735  13.723  19.335  0.00  0.00    +0.000 C 
BRANCH  21  22
ATOM     22  N   UNL     1      -0.009  14.911  20.015  0.00  0.00    +0.000 NA
ATOM     23  C   UNL     1      -1.075  15.900  20.496  0.00  0.00    +0.000 C 
ATOM     24  C   UNL     1       0.829  14.451  21.201  0.00  0.00    +0.000 C 
BRANCH  22  25
ATOM     25  C   UNL     1       0.920  15.595  19.008  0.00  0.00    +0.000 A 
ATOM     26  C   UNL     1       2.133  14.994  18.633  0.00  0.00    +0.000 A 
ATOM     27  C   UNL     1       3.051  15.666  17.818  0.00  0.00    +0.000 A 
ATOM     28  C   UNL     1       2.757  16.935  17.335  0.00  0.00    +0.000 A 
ATOM     29  C   UNL     1       1.525  17.509  17.619  0.00  0.00    +0.000 A 
ATOM     30  C   UNL     1       0.606  16.838  18.433  0.00  0.00    +0.000 A 
ENDBRANCH  22  25
ENDBRANCH  21  22
ENDBRANCH  12  21
TORSDOF 5
ENDMDL
MODEL 9
REMARK VINA RESULT:      -7.1      3.172      7.616
REMARK  Name = 
REMARK  9 active torsions:
REMARK  status: ('A' for Active; 'I' for Inactive)
REMARK    1  A    between atoms: C_1  and  O_2
REMARK    2  A    between atoms: O_2  and  C_3
REMARK    3  A    between atoms: C_12  and  O_13
REMARK    4  A    between atoms: O_13  and  C_14
REMARK    5  A    between atoms: C_16  and  C_17
REMARK    6  A    between atoms: C_17  and  N_18
REMARK    7  A    between atoms: N_18  and  C_19
REMARK    8  A    between atoms: N_18  and  C_20
REMARK    9  A    between atoms: N_18  and  C_21
REMARK                            x       y       z     vdW  Elec       q    Type
REMARK                         _______ _______ _______ _____ _____    ______ ____
ROOT
ATOM      1  C   UNL     1       2.180   6.084  19.804  0.00  0.00    +0.000 A 
ATOM      2  C   UNL     1       3.055   5.437  18.923  0.00  0.00    +0.000 A 
ATOM      3  C   UNL     1       3.623   6.119  17.846  0.00  0.00    +0.000 A 
ATOM      4  C   UNL     1       3.276   7.446  17.608  0.00  0.00    +0.000 A 
ATOM      5  C   UNL     1       2.402   8.106  18.483  0.00  0.00    +0.000 A 
ATOM      6  C   UNL     1       1.914   7.449  19.622  0.00  0.00    +0.000 A 
ATOM      7  C   UNL     1       1.315   8.291  20.671  0.00  0.00    +0.000 C 
ATOM      8  O   UNL     1       1.539   8.054  21.852  0.00  0.00    +0.000 OA
ATOM      9  C   UNL     1       0.620   9.534  20.295  0.00  0.00    +0.000 A 
ATOM     10  C   UNL     1      -0.286  10.195  21.135  0.00  0.00    +0.000 A 
ATOM     11  C   UNL     1      -0.765  11.455  20.777  0.00  0.00    +0.000 A 
ATOM     12  C   UNL     1      -0.394  12.067  19.574  0.00  0.00    +0.000 A 
ATOM     13  C   UNL     1       0.511  11.404  18.738  0.00  0.00    +0.000 A 
ATOM     14  C   UNL     1       1.008  10.144  19.100  0.00  0.00    +0.000 A 
ATOM     15  C   UNL     1       2.004   9.495  18.213  0.00  0.00    +0.000 C 
ATOM     16  O   UNL     1       2.441  10.115  17.248  0.00  0.00    +0.000 OA
ENDROOT
BRANCH   1  18
ATOM     17  C   UNL     1       1.218   4.025  20.395  0.00  0.00    +0.000 C 
ATOM     18  O   UNL     1       1.707   5.302  20.822  0.00  0.00    +0.000 OA
ENDBRANCH   1  18
BRANCH  10  19
ATOM     19  O   UNL     1      -0.703   9.793  22.373  0.00  0.00    +0.000 OA
ATOM     20  C   UNL     1      -1.164  10.852  23.217  0.00  0.00    +0.000 C 
ENDBRANCH  10  19
BRANCH  12  21
ATOM     21  C   UNL     1      -0.958  13.416  19.216  0.00  0.00    +0.000 C 
BRANCH  21  22
ATOM     22  N   UNL     1      -0.369  14.637  19.966  0.00  0.00    +0.000 NA
ATOM     23  C   UNL     1      -0.825  15.903  19.236  0.00  0.00    +0.000 C 
ATOM     24  C   UNL     1      -0.843  14.687  21.414  0.00  0.00    +0.000 C 
BRANCH  22  25
ATOM     25  C   UNL     1       1.161  14.557  19.966  0.00  0.00    +0.000 A 
ATOM     26  C   UNL     1       1.858  14.212  21.135  0.00  0.00    +0.000 A 
ATOM     27  C   UNL     1       3.255  14.264  21.185  0.00  0.00    +0.000 A 
ATOM     28  C   UNL     1       3.982  14.626  20.058  0.00  0.00    +0.000 A 
ATOM     29  C   UNL     1       3.316  14.883  18.867  0.00  0.00    +0.000 A 
ATOM     30  C   UNL     1       1.919  14.831  18.815  0.00  0.00    +0.000 A 
ENDBRANCH  22  25
ENDBRANCH  21  22
ENDBRANCH  12  21
TORSDOF 5
ENDMDL
