MODEL 1
REMARK VINA RESULT:      -9.1      0.000      0.000
REMARK  Name = 
REMARK  7 active torsions:
REMARK  status: ('A' for Active; 'I' for Inactive)
REMARK    1  A    between atoms: C_2  and  C_3
REMARK    2  A    between atoms: C_3  and  N_4
REMARK    3  A    between atoms: N_14  and  C_15
REMARK    4  A    between atoms: C_15  and  C_16
REMARK    5  A    between atoms: N_26  and  C_27
REMARK    6  A    between atoms: C_27  and  C_28
REMARK    7  A    between atoms: C_28  and  C_29
REMARK                            x       y       z     vdW  Elec       q    Type
REMARK                         _______ _______ _______ _____ _____    ______ ____
ROOT
ATOM      1  N   UNL     1       2.686   7.765  18.316  0.00  0.00    +0.000 N 
ATOM      2  N   UNL     1       2.618   6.904  19.431  0.00  0.00    +0.000 NA
ATOM      3  C   UNL     1       1.978   7.302  20.491  0.00  0.00    +0.000 A 
ATOM      4  C   UNL     1       1.224   8.530  20.489  0.00  0.00    +0.000 A 
ATOM      5  C   UNL     1       0.463   9.206  21.474  0.00  0.00    +0.000 A 
ATOM      6  C   UNL     1       0.221   8.997  22.847  0.00  0.00    +0.000 A 
ATOM      7  C   UNL     1      -0.554   9.917  23.560  0.00  0.00    +0.000 A 
ATOM      8  C   UNL     1      -1.124  11.012  22.919  0.00  0.00    +0.000 A 
ATOM      9  C   UNL     1      -0.926  11.225  21.554  0.00  0.00    +0.000 A 
ATOM     10  C   UNL     1      -0.109  10.325  20.851  0.00  0.00    +0.000 A 
ATOM     11  N   UNL     1       0.285  10.315  19.515  0.00  0.00    +0.000 N 
ATOM     12  C   UNL     1       1.258   9.345  19.372  0.00  0.00    +0.000 A 
ATOM     13  C   UNL     1       2.197   9.072  18.333  0.00  0.00    +0.000 A 
ATOM     14  O   UNL     1       2.526   9.927  17.494  0.00  0.00    +0.000 OA
ENDROOT
BRANCH   1  15
ATOM     15  C   UNL     1       3.249   7.240  17.070  0.00  0.00    +0.000 C 
BRANCH  15  17
ATOM     16  O   UNL     1       5.379   6.203  17.670  0.00  0.00    +0.000 OA
ATOM     17  C   UNL     1       4.227   6.051  17.291  0.00  0.00    +0.000 C 
ATOM     18  N   UNL     1       3.679   4.784  17.165  0.00  0.00    +0.000 N 
ATOM     19  H   UNL     1       2.921   4.737  16.499  0.00  0.00    +0.000 HD
BRANCH  18  20
ATOM     20  C   UNL     1       4.465   3.582  17.405  0.00  0.00    +0.000 C 
BRANCH  20  21
ATOM     21  C   UNL     1       3.604   2.376  17.806  0.00  0.00    +0.000 C 
BRANCH  21  22
ATOM     22  C   UNL     1       2.840   2.625  19.083  0.00  0.00    +0.000 C 
ATOM     23  C   UNL     1       3.443   2.583  20.286  0.00  0.00    +0.000 C 
ATOM     24  C   UNL     1       2.726   2.815  21.584  0.00  0.00    +0.000 C 
ATOM     25  C   UNL     1       1.206   2.754  21.449  0.00  0.00    +0.000 C 
ATOM     26  C   UNL     1       0.738   3.503  20.207  0.00  0.00    +0.000 C 
ATOM     27  C   UNL     1       1.363   2.916  18.941  0.00  0.00    +0.000 C 
ENDBRANCH  21  22
ENDBRANCH  20  21
ENDBRANCH  18  20
ENDBRANCH  15  17
ENDBRANCH   1  15
BRANCH  11  28
ATOM     28  C   UNL     1      -0.218  11.280  18.516  0.00  0.00    +0.000 C 
BRANCH  28  29
ATOM     29  C   UNL     1      -1.636  11.000  18.039  0.00  0.00    +0.000 A 
ATOM     30  C   UNL     1      -1.888  10.087  16.993  0.00  0.00    +0.000 A 
ATOM     31  C   UNL     1      -3.134  10.076  16.352  0.00  0.00    +0.000 A 
ATOM     32  C   UNL     1      -4.138  10.930  16.793  0.00  0.00    +0.000 A 
ATOM     33  F   UNL     1      -5.269  11.039  16.084  0.00  0.00    +0.000 F 
ATOM     34  C   UNL     1      -3.952  11.734  17.911  0.00  0.00    +0.000 A 
ATOM     35  C   UNL     1      -2.708  11.754  18.548  0.00  0.00    +0.000 A 
ENDBRANCH  28  29
ENDBRANCH  11  28
TORSDOF 7
ENDMDL
MODEL 2
REMARK VINA RESULT:      -8.9      3.476      8.982
REMARK  Name = 
REMARK  7 active torsions:
REMARK  status: ('A' for Active; 'I' for Inactive)
REMARK    1  A    between atoms: C_2  and  C_3
REMARK    2  A    between atoms: C_3  and  N_4
REMARK    3  A    between atoms: N_14  and  C_15
REMARK    4  A    between atoms: C_15  and  C_16
REMARK    5  A    between atoms: N_26  and  C_27
REMARK    6  A    between atoms: C_27  and  C_28
REMARK    7  A    between atoms: C_28  and  C_29
REMARK                            x       y       z     vdW  Elec       q    Type
REMARK                         _______ _______ _______ _____ _____    ______ ____
ROOT
ATOM      1  N   UNL     1       1.805   8.882  19.061  0.00  0.00    +0.000 N 
ATOM      2  N   UNL     1       1.351   8.638  20.375  0.00  0.00    +0.000 NA
ATOM      3  C   UNL     1       1.454   7.435  20.858  0.00  0.00    +0.000 A 
ATOM      4  C   UNL     1       2.148   6.398  20.137  0.00  0.00    +0.000 A 
ATOM      5  C   UNL     1       2.397   5.029  20.400  0.00  0.00    +0.000 A 
ATOM      6  C   UNL     1       1.992   4.131  21.409  0.00  0.00    +0.000 A 
ATOM      7  C   UNL     1       2.379   2.789  21.335  0.00  0.00    +0.000 A 
ATOM      8  C   UNL     1       3.194   2.342  20.301  0.00  0.00    +0.000 A 
ATOM      9  C   UNL     1       3.633   3.216  19.306  0.00  0.00    +0.000 A 
ATOM     10  C   UNL     1       3.205   4.552  19.358  0.00  0.00    +0.000 A 
ATOM     11  N   UNL     1       3.452   5.616  18.493  0.00  0.00    +0.000 N 
ATOM     12  C   UNL     1       2.632   6.662  18.869  0.00  0.00    +0.000 A 
ATOM     13  C   UNL     1       2.254   7.871  18.211  0.00  0.00    +0.000 A 
ATOM     14  O   UNL     1       2.351   8.016  16.981  0.00  0.00    +0.000 OA
ENDROOT
BRANCH   1  15
ATOM     15  C   UNL     1       1.852  10.269  18.594  0.00  0.00    +0.000 C 
BRANCH  15  17
ATOM     16  O   UNL     1      -0.345  11.337  18.547  0.00  0.00    +0.000 OA
ATOM     17  C   UNL     1       0.698  11.147  19.155  0.00  0.00    +0.000 C 
ATOM     18  N   UNL     1       0.858  11.599  20.455  0.00  0.00    +0.000 N 
ATOM     19  H   UNL     1       1.823  11.754  20.713  0.00  0.00    +0.000 HD
BRANCH  18  20
ATOM     20  C   UNL     1      -0.172  12.379  21.127  0.00  0.00    +0.000 C 
BRANCH  20  21
ATOM     21  C   UNL     1      -0.691  11.707  22.407  0.00  0.00    +0.000 C 
BRANCH  21  22
ATOM     22  C   UNL     1      -1.701  12.566  23.127  0.00  0.00    +0.000 C 
ATOM     23  C   UNL     1      -2.939  12.117  23.406  0.00  0.00    +0.000 C 
ATOM     24  C   UNL     1      -3.980  12.935  24.112  0.00  0.00    +0.000 C 
ATOM     25  C   UNL     1      -3.638  14.423  24.170  0.00  0.00    +0.000 C 
ATOM     26  C   UNL     1      -2.172  14.631  24.530  0.00  0.00    +0.000 C 
ATOM     27  C   UNL     1      -1.252  13.958  23.510  0.00  0.00    +0.000 C 
ENDBRANCH  21  22
ENDBRANCH  20  21
ENDBRANCH  18  20
ENDBRANCH  15  17
ENDBRANCH   1  15
BRANCH  11  28
ATOM     28  C   UNL     1       4.365   5.522  17.336  0.00  0.00    +0.000 C 
BRANCH  28  29
ATOM     29  C   UNL     1       5.774   6.029  17.610  0.00  0.00    +0.000 A 
ATOM     30  C   UNL     1       6.594   5.418  18.582  0.00  0.00    +0.000 A 
ATOM     31  C   UNL     1       7.740   6.073  19.051  0.00  0.00    +0.000 A 
ATOM     32  C   UNL     1       8.096   7.303  18.508  0.00  0.00    +0.000 A 
ATOM     33  F   UNL     1       9.092   8.005  19.063  0.00  0.00    +0.000 F 
ATOM     34  C   UNL     1       7.378   7.852  17.453  0.00  0.00    +0.000 A 
ATOM     35  C   UNL     1       6.229   7.205  16.988  0.00  0.00    +0.000 A 
ENDBRANCH  28  29
ENDBRANCH  11  28
TORSDOF 7
ENDMDL
MODEL 3
REMARK VINA RESULT:      -8.9      4.485      7.935
REMARK  Name = 
REMARK  7 active torsions:
REMARK  status: ('A' for Active; 'I' for Inactive)
REMARK    1  A    between atoms: C_2  and  C_3
REMARK    2  A    between atoms: C_3  and  N_4
REMARK    3  A    between atoms: N_14  and  C_15
REMARK    4  A    between atoms: C_15  and  C_16
REMARK    5  A    between atoms: N_26  and  C_27
REMARK    6  A    between atoms: C_27  and  C_28
REMARK    7  A    between atoms: C_28  and  C_29
REMARK                            x       y       z     vdW  Elec       q    Type
REMARK                         _______ _______ _______ _____ _____    ______ ____
ROOT
ATOM      1  N   UNL     1       6.419   4.811  17.534  0.00  0.00    +0.000 N 
ATOM      2  N   UNL     1       5.989   3.812  16.635  0.00  0.00    +0.000 NA
ATOM      3  C   UNL     1       4.839   3.239  16.841  0.00  0.00    +0.000 A 
ATOM      4  C   UNL     1       3.947   3.704  17.872  0.00  0.00    +0.000 A 
ATOM      5  C   UNL     1       2.675   3.277  18.324  0.00  0.00    +0.000 A 
ATOM      6  C   UNL     1       1.834   2.189  18.013  0.00  0.00    +0.000 A 
ATOM      7  C   UNL     1       0.634   2.022  18.712  0.00  0.00    +0.000 A 
ATOM      8  C   UNL     1       0.242   2.942  19.678  0.00  0.00    +0.000 A 
ATOM      9  C   UNL     1       1.041   4.044  19.983  0.00  0.00    +0.000 A 
ATOM     10  C   UNL     1       2.267   4.183  19.314  0.00  0.00    +0.000 A 
ATOM     11  N   UNL     1       3.264   5.147  19.443  0.00  0.00    +0.000 N 
ATOM     12  C   UNL     1       4.359   4.719  18.717  0.00  0.00    +0.000 A 
ATOM     13  C   UNL     1       5.723   5.137  18.700  0.00  0.00    +0.000 A 
ATOM     14  O   UNL     1       6.237   5.768  19.638  0.00  0.00    +0.000 OA
ENDROOT
BRANCH   1  15
ATOM     15  C   UNL     1       7.622   5.575  17.195  0.00  0.00    +0.000 C 
BRANCH  15  17
ATOM     16  O   UNL     1       6.454   7.644  16.627  0.00  0.00    +0.000 OA
ATOM     17  C   UNL     1       7.394   7.113  17.198  0.00  0.00    +0.000 C 
ATOM     18  N   UNL     1       8.247   7.850  18.004  0.00  0.00    +0.000 N 
ATOM     19  H   UNL     1       9.168   7.444  18.094  0.00  0.00    +0.000 HD
BRANCH  18  20
ATOM     20  C   UNL     1       8.108   9.292  18.149  0.00  0.00    +0.000 C 
BRANCH  20  21
ATOM     21  C   UNL     1       9.094   9.888  19.165  0.00  0.00    +0.000 C 
BRANCH  21  22
ATOM     22  C   UNL     1       9.738  11.153  18.652  0.00  0.00    +0.000 C 
ATOM     23  C   UNL     1       9.051  12.048  17.919  0.00  0.00    +0.000 C 
ATOM     24  C   UNL     1       9.648  13.315  17.380  0.00  0.00    +0.000 C 
ATOM     25  C   UNL     1      11.175  13.329  17.432  0.00  0.00    +0.000 C 
ATOM     26  C   UNL     1      11.679  12.788  18.764  0.00  0.00    +0.000 C 
ATOM     27  C   UNL     1      11.197  11.355  18.997  0.00  0.00    +0.000 C 
ENDBRANCH  21  22
ENDBRANCH  20  21
ENDBRANCH  18  20
ENDBRANCH  15  17
ENDBRANCH   1  15
BRANCH  11  28
ATOM     28  C   UNL     1       3.134   6.334  20.312  0.00  0.00    +0.000 C 
BRANCH  28  29
ATOM     29  C   UNL     1       2.243   7.429  19.743  0.00  0.00    +0.000 A 
ATOM     30  C   UNL     1       2.311   7.791  18.381  0.00  0.00    +0.000 A 
ATOM     31  C   UNL     1       1.736   8.991  17.941  0.00  0.00    +0.000 A 
ATOM     32  C   UNL     1       1.046   9.792  18.845  0.00  0.00    +0.000 A 
ATOM     33  F   UNL     1       0.639  11.010  18.469  0.00  0.00    +0.000 F 
ATOM     34  C   UNL     1       0.850   9.380  20.158  0.00  0.00    +0.000 A 
ATOM     35  C   UNL     1       1.428   8.188  20.603  0.00  0.00    +0.000 A 
ENDBRANCH  28  29
ENDBRANCH  11  28
TORSDOF 7
ENDMDL
MODEL 4
REMARK VINA RESULT:      -8.9      1.721      2.999
REMARK  Name = 
REMARK  7 active torsions:
REMARK  status: ('A' for Active; 'I' for Inactive)
REMARK    1  A    between atoms: C_2  and  C_3
REMARK    2  A    between atoms: C_3  and  N_4
REMARK    3  A    between atoms: N_14  and  C_15
REMARK    4  A    between atoms: C_15  and  C_16
REMARK    5  A    between atoms: N_26  and  C_27
REMARK    6  A    between atoms: C_27  and  C_28
REMARK    7  A    between atoms: C_28  and  C_29
REMARK                            x       y       z     vdW  Elec       q    Type
REMARK                         _______ _______ _______ _____ _____    ______ ____
ROOT
ATOM      1  N   UNL     1       1.857   8.492  19.245  0.00  0.00    +0.000 N 
ATOM      2  N   UNL     1       1.661   7.895  20.508  0.00  0.00    +0.000 NA
ATOM      3  C   UNL     1       0.903   8.500  21.375  0.00  0.00    +0.000 A 
ATOM      4  C   UNL     1       0.155   9.679  21.017  0.00  0.00    +0.000 A 
ATOM      5  C   UNL     1      -0.715  10.534  21.736  0.00  0.00    +0.000 A 
ATOM      6  C   UNL     1      -1.112  10.625  23.086  0.00  0.00    +0.000 A 
ATOM      7  C   UNL     1      -1.964  11.660  23.486  0.00  0.00    +0.000 A 
ATOM      8  C   UNL     1      -2.457  12.573  22.559  0.00  0.00    +0.000 A 
ATOM      9  C   UNL     1      -2.103  12.486  21.212  0.00  0.00    +0.000 A 
ATOM     10  C   UNL     1      -1.211  11.475  20.822  0.00  0.00    +0.000 A 
ATOM     11  N   UNL     1      -0.665  11.182  19.574  0.00  0.00    +0.000 N 
ATOM     12  C   UNL     1       0.317  10.228  19.759  0.00  0.00    +0.000 A 
ATOM     13  C   UNL     1       1.370   9.758  18.918  0.00  0.00    +0.000 A 
ATOM     14  O   UNL     1       1.794  10.416  17.953  0.00  0.00    +0.000 OA
ENDROOT
BRANCH   1  15
ATOM     15  C   UNL     1       2.560   7.720  18.218  0.00  0.00    +0.000 C 
BRANCH  15  17
ATOM     16  O   UNL     1       1.820   5.421  17.845  0.00  0.00    +0.000 OA
ATOM     17  C   UNL     1       2.534   6.187  18.476  0.00  0.00    +0.000 C 
ATOM     18  N   UNL     1       3.472   5.708  19.376  0.00  0.00    +0.000 N 
ATOM     19  H   UNL     1       3.709   6.370  20.103  0.00  0.00    +0.000 HD
BRANCH  18  20
ATOM     20  C   UNL     1       3.600   4.287  19.666  0.00  0.00    +0.000 C 
BRANCH  20  21
ATOM     21  C   UNL     1       4.972   3.719  19.274  0.00  0.00    +0.000 C 
BRANCH  21  22
ATOM     22  C   UNL     1       5.454   4.266  17.953  0.00  0.00    +0.000 C 
ATOM     23  C   UNL     1       6.458   5.160  17.883  0.00  0.00    +0.000 C 
ATOM     24  C   UNL     1       6.967   5.739  16.596  0.00  0.00    +0.000 C 
ATOM     25  C   UNL     1       6.027   5.500  15.416  0.00  0.00    +0.000 C 
ATOM     26  C   UNL     1       5.500   4.070  15.421  0.00  0.00    +0.000 C 
ATOM     27  C   UNL     1       4.745   3.764  16.715  0.00  0.00    +0.000 C 
ENDBRANCH  21  22
ENDBRANCH  20  21
ENDBRANCH  18  20
ENDBRANCH  15  17
ENDBRANCH   1  15
BRANCH  11  28
ATOM     28  C   UNL     1      -1.049  11.891  18.337  0.00  0.00    +0.000 C 
BRANCH  28  29
ATOM     29  C   UNL     1      -2.073  11.151  17.487  0.00  0.00    +0.000 A 
ATOM     30  C   UNL     1      -1.707  10.026  16.717  0.00  0.00    +0.000 A 
ATOM     31  C   UNL     1      -2.557   9.556  15.708  0.00  0.00    +0.000 A 
ATOM     32  C   UNL     1      -3.790  10.169  15.509  0.00  0.00    +0.000 A 
ATOM     33  F   UNL     1      -4.530   9.831  14.447  0.00  0.00    +0.000 F 
ATOM     34  C   UNL     1      -4.224  11.187  16.350  0.00  0.00    +0.000 A 
ATOM     35  C   UNL     1      -3.376  11.664  17.353  0.00  0.00    +0.000 A 
ENDBRANCH  28  29
ENDBRANCH  11  28
TORSDOF 7
ENDMDL
MODEL 5
REMARK VINA RESULT:      -8.9      0.736      1.365
REMARK  Name = 
REMARK  7 active torsions:
REMARK  status: ('A' for Active; 'I' for Inactive)
REMARK    1  A    between atoms: C_2  and  C_3
REMARK    2  A    between atoms: C_3  and  N_4
REMARK    3  A    between atoms: N_14  and  C_15
REMARK    4  A    between atoms: C_15  and  C_16
REMARK    5  A    between atoms: N_26  and  C_27
REMARK    6  A    between atoms: C_27  and  C_28
REMARK    7  A    between atoms: C_28  and  C_29
REMARK                            x       y       z     vdW  Elec       q    Type
REMARK                         _______ _______ _______ _____ _____    ______ ____
ROOT
ATOM      1  N   UNL     1       2.576   8.016  18.274  0.00  0.00    +0.000 N 
ATOM      2  N   UNL     1       2.517   7.147  19.384  0.00  0.00    +0.000 NA
ATOM      3  C   UNL     1       1.872   7.533  20.446  0.00  0.00    +0.000 A 
ATOM      4  C   UNL     1       1.106   8.754  20.451  0.00  0.00    +0.000 A 
ATOM      5  C   UNL     1       0.339   9.416  21.440  0.00  0.00    +0.000 A 
ATOM      6  C   UNL     1       0.099   9.197  22.811  0.00  0.00    +0.000 A 
ATOM      7  C   UNL     1      -0.685  10.106  23.530  0.00  0.00    +0.000 A 
ATOM      8  C   UNL     1      -1.265  11.198  22.895  0.00  0.00    +0.000 A 
ATOM      9  C   UNL     1      -1.069  11.422  21.532  0.00  0.00    +0.000 A 
ATOM     10  C   UNL     1      -0.244  10.534  20.824  0.00  0.00    +0.000 A 
ATOM     11  N   UNL     1       0.151  10.535  19.488  0.00  0.00    +0.000 N 
ATOM     12  C   UNL     1       1.133   9.575  19.339  0.00  0.00    +0.000 A 
ATOM     13  C   UNL     1       2.075   9.318  18.298  0.00  0.00    +0.000 A 
ATOM     14  O   UNL     1       2.396  10.180  17.464  0.00  0.00    +0.000 OA
ENDROOT
BRANCH   1  15
ATOM     15  C   UNL     1       3.144   7.503  17.025  0.00  0.00    +0.000 C 
BRANCH  15  17
ATOM     16  O   UNL     1       5.452   6.843  17.482  0.00  0.00    +0.000 OA
ATOM     17  C   UNL     1       4.305   6.492  17.247  0.00  0.00    +0.000 C 
ATOM     18  N   UNL     1       3.943   5.156  17.301  0.00  0.00    +0.000 N 
ATOM     19  H   UNL     1       3.140   4.932  16.730  0.00  0.00    +0.000 HD
BRANCH  18  20
ATOM     20  C   UNL     1       4.919   4.108  17.565  0.00  0.00    +0.000 C 
BRANCH  20  21
ATOM     21  C   UNL     1       4.786   3.508  18.972  0.00  0.00    +0.000 C 
BRANCH  21  22
ATOM     22  C   UNL     1       3.348   3.231  19.335  0.00  0.00    +0.000 C 
ATOM     23  C   UNL     1       2.555   2.477  18.551  0.00  0.00    +0.000 C 
ATOM     24  C   UNL     1       1.117   2.180  18.864  0.00  0.00    +0.000 C 
ATOM     25  C   UNL     1       0.539   3.086  19.950  0.00  0.00    +0.000 C 
ATOM     26  C   UNL     1       1.523   3.251  21.102  0.00  0.00    +0.000 C 
ATOM     27  C   UNL     1       2.844   3.851  20.619  0.00  0.00    +0.000 C 
ENDBRANCH  21  22
ENDBRANCH  20  21
ENDBRANCH  18  20
ENDBRANCH  15  17
ENDBRANCH   1  15
BRANCH  11  28
ATOM     28  C   UNL     1      -0.361  11.501  18.494  0.00  0.00    +0.000 C 
BRANCH  28  29
ATOM     29  C   UNL     1      -1.829  11.312  18.140  0.00  0.00    +0.000 A 
ATOM     30  C   UNL     1      -2.814  12.207  18.607  0.00  0.00    +0.000 A 
ATOM     31  C   UNL     1      -4.170  11.857  18.551  0.00  0.00    +0.000 A 
ATOM     32  C   UNL     1      -4.540  10.645  17.979  0.00  0.00    +0.000 A 
ATOM     33  F   UNL     1      -5.811  10.234  18.070  0.00  0.00    +0.000 F 
ATOM     34  C   UNL     1      -3.594   9.815  17.388  0.00  0.00    +0.000 A 
ATOM     35  C   UNL     1      -2.241  10.158  17.448  0.00  0.00    +0.000 A 
ENDBRANCH  28  29
ENDBRANCH  11  28
TORSDOF 7
ENDMDL
MODEL 6
REMARK VINA RESULT:      -8.7      2.188      2.911
REMARK  Name = 
REMARK  7 active torsions:
REMARK  status: ('A' for Active; 'I' for Inactive)
REMARK    1  A    between atoms: C_2  and  C_3
REMARK    2  A    between atoms: C_3  and  N_4
REMARK    3  A    between atoms: N_14  and  C_15
REMARK    4  A    between atoms: C_15  and  C_16
REMARK    5  A    between atoms: N_26  and  C_27
REMARK    6  A    between atoms: C_27  and  C_28
REMARK    7  A    between atoms: C_28  and  C_29
REMARK                            x       y       z     vdW  Elec       q    Type
REMARK                         _______ _______ _______ _____ _____    ______ ____
ROOT
ATOM      1  N   UNL     1       2.637   7.875  18.372  0.00  0.00    +0.000 N 
ATOM      2  N   UNL     1       2.460   7.003  19.467  0.00  0.00    +0.000 NA
ATOM      3  C   UNL     1       1.775   7.418  20.492  0.00  0.00    +0.000 A 
ATOM      4  C   UNL     1       1.082   8.681  20.465  0.00  0.00    +0.000 A 
ATOM      5  C   UNL     1       0.295   9.380  21.412  0.00  0.00    +0.000 A 
ATOM      6  C   UNL     1      -0.039   9.165  22.765  0.00  0.00    +0.000 A 
ATOM      7  C   UNL     1      -0.812  10.112  23.444  0.00  0.00    +0.000 A 
ATOM      8  C   UNL     1      -1.290  11.241  22.788  0.00  0.00    +0.000 A 
ATOM      9  C   UNL     1      -0.999  11.463  21.441  0.00  0.00    +0.000 A 
ATOM     10  C   UNL     1      -0.184  10.534  20.775  0.00  0.00    +0.000 A 
ATOM     11  N   UNL     1       0.290  10.522  19.465  0.00  0.00    +0.000 N 
ATOM     12  C   UNL     1       1.223   9.508  19.365  0.00  0.00    +0.000 A 
ATOM     13  C   UNL     1       2.210   9.204  18.380  0.00  0.00    +0.000 A 
ATOM     14  O   UNL     1       2.630  10.053  17.576  0.00  0.00    +0.000 OA
ENDROOT
BRANCH   1  15
ATOM     15  C   UNL     1       3.249   7.340  17.154  0.00  0.00    +0.000 C 
BRANCH  15  17
ATOM     16  O   UNL     1       5.282   6.265  17.981  0.00  0.00    +0.000 OA
ATOM     17  C   UNL     1       4.202   6.141  17.422  0.00  0.00    +0.000 C 
ATOM     18  N   UNL     1       3.700   4.886  17.112  0.00  0.00    +0.000 N 
ATOM     19  H   UNL     1       3.051   4.892  16.338  0.00  0.00    +0.000 HD
BRANCH  18  20
ATOM     20  C   UNL     1       4.461   3.672  17.369  0.00  0.00    +0.000 C 
BRANCH  20  21
ATOM     21  C   UNL     1       3.571   2.477  17.742  0.00  0.00    +0.000 C 
BRANCH  21  22
ATOM     22  C   UNL     1       2.827   2.708  19.034  0.00  0.00    +0.000 C 
ATOM     23  C   UNL     1       3.441   2.615  20.228  0.00  0.00    +0.000 C 
ATOM     24  C   UNL     1       2.743   2.827  21.540  0.00  0.00    +0.000 C 
ATOM     25  C   UNL     1       1.220   2.808  21.421  0.00  0.00    +0.000 C 
ATOM     26  C   UNL     1       0.759   3.604  20.206  0.00  0.00    +0.000 C 
ATOM     27  C   UNL     1       1.357   3.040  18.916  0.00  0.00    +0.000 C 
ENDBRANCH  21  22
ENDBRANCH  20  21
ENDBRANCH  18  20
ENDBRANCH  15  17
ENDBRANCH   1  15
BRANCH  11  28
ATOM     28  C   UNL     1      -0.104  11.523  18.453  0.00  0.00    +0.000 C 
BRANCH  28  29
ATOM     29  C   UNL     1       0.417  12.926  18.727  0.00  0.00    +0.000 A 
ATOM     30  C   UNL     1      -0.463  14.023  18.839  0.00  0.00    +0.000 A 
ATOM     31  C   UNL     1       0.031  15.333  18.770  0.00  0.00    +0.000 A 
ATOM     32  C   UNL     1       1.400  15.543  18.650  0.00  0.00    +0.000 A 
ATOM     33  F   UNL     1       1.859  16.779  18.420  0.00  0.00    +0.000 F 
ATOM     34  C   UNL     1       2.291  14.477  18.680  0.00  0.00    +0.000 A 
ATOM     35  C   UNL     1       1.802  13.169  18.742  0.00  0.00    +0.000 A 
ENDBRANCH  28  29
ENDBRANCH  11  28
TORSDOF 7
ENDMDL
MODEL 7
REMARK VINA RESULT:      -8.7      3.256      8.816
REMARK  Name = 
REMARK  7 active torsions:
REMARK  status: ('A' for Active; 'I' for Inactive)
REMARK    1  A    between atoms: C_2  and  C_3
REMARK    2  A    between atoms: C_3  and  N_4
REMARK    3  A    between atoms: N_14  and  C_15
REMARK    4  A    between atoms: C_15  and  C_16
REMARK    5  A    between atoms: N_26  and  C_27
REMARK    6  A    between atoms: C_27  and  C_28
REMARK    7  A    between atoms: C_28  and  C_29
REMARK                            x       y       z     vdW  Elec       q    Type
REMARK                         _______ _______ _______ _____ _____    ______ ____
ROOT
ATOM      1  N   UNL     1       1.956   8.889  18.823  0.00  0.00    +0.000 N 
ATOM      2  N   UNL     1       1.448   8.720  20.128  0.00  0.00    +0.000 NA
ATOM      3  C   UNL     1       1.503   7.539  20.672  0.00  0.00    +0.000 A 
ATOM      4  C   UNL     1       2.196   6.452  20.028  0.00  0.00    +0.000 A 
ATOM      5  C   UNL     1       2.401   5.093  20.365  0.00  0.00    +0.000 A 
ATOM      6  C   UNL     1       1.938   4.255  21.400  0.00  0.00    +0.000 A 
ATOM      7  C   UNL     1       2.293   2.902  21.404  0.00  0.00    +0.000 A 
ATOM      8  C   UNL     1       3.133   2.386  20.424  0.00  0.00    +0.000 A 
ATOM      9  C   UNL     1       3.630   3.201  19.406  0.00  0.00    +0.000 A 
ATOM     10  C   UNL     1       3.234   4.547  19.378  0.00  0.00    +0.000 A 
ATOM     11  N   UNL     1       3.540   5.561  18.473  0.00  0.00    +0.000 N 
ATOM     12  C   UNL     1       2.733   6.644  18.767  0.00  0.00    +0.000 A 
ATOM     13  C   UNL     1       2.410   7.828  18.039  0.00  0.00    +0.000 A 
ATOM     14  O   UNL     1       2.555   7.911  16.808  0.00  0.00    +0.000 OA
ENDROOT
BRANCH   1  15
ATOM     15  C   UNL     1       2.055  10.251  18.291  0.00  0.00    +0.000 C 
BRANCH  15  17
ATOM     16  O   UNL     1       1.257  11.787  20.015  0.00  0.00    +0.000 OA
ATOM     17  C   UNL     1       1.048  11.239  18.943  0.00  0.00    +0.000 C 
ATOM     18  N   UNL     1      -0.053  11.579  18.172  0.00  0.00    +0.000 N 
ATOM     19  H   UNL     1      -0.353  10.840  17.550  0.00  0.00    +0.000 HD
BRANCH  18  20
ATOM     20  C   UNL     1      -1.044  12.541  18.633  0.00  0.00    +0.000 C 
BRANCH  20  21
ATOM     21  C   UNL     1      -2.077  11.923  19.588  0.00  0.00    +0.000 C 
BRANCH  21  22
ATOM     22  C   UNL     1      -3.460  11.901  18.986  0.00  0.00    +0.000 C 
ATOM     23  C   UNL     1      -4.519  12.424  19.632  0.00  0.00    +0.000 C 
ATOM     24  C   UNL     1      -5.914  12.420  19.080  0.00  0.00    +0.000 C 
ATOM     25  C   UNL     1      -6.090  11.469  17.898  0.00  0.00    +0.000 C 
ATOM     26  C   UNL     1      -4.918  11.580  16.930  0.00  0.00    +0.000 C 
ATOM     27  C   UNL     1      -3.595  11.255  17.626  0.00  0.00    +0.000 C 
ENDBRANCH  21  22
ENDBRANCH  20  21
ENDBRANCH  18  20
ENDBRANCH  15  17
ENDBRANCH   1  15
BRANCH  11  28
ATOM     28  C   UNL     1       4.492   5.390  17.357  0.00  0.00    +0.000 C 
BRANCH  28  29
ATOM     29  C   UNL     1       5.878   5.957  17.627  0.00  0.00    +0.000 A 
ATOM     30  C   UNL     1       6.709   5.411  18.627  0.00  0.00    +0.000 A 
ATOM     31  C   UNL     1       7.826   6.123  19.084  0.00  0.00    +0.000 A 
ATOM     32  C   UNL     1       8.143   7.345  18.502  0.00  0.00    +0.000 A 
ATOM     33  F   UNL     1       9.106   8.102  19.042  0.00  0.00    +0.000 F 
ATOM     34  C   UNL     1       7.417   7.831  17.421  0.00  0.00    +0.000 A 
ATOM     35  C   UNL     1       6.297   7.127  16.968  0.00  0.00    +0.000 A 
ENDBRANCH  28  29
ENDBRANCH  11  28
TORSDOF 7
ENDMDL
MODEL 8
REMARK VINA RESULT:      -8.6      3.607      9.040
REMARK  Name = 
REMARK  7 active torsions:
REMARK  status: ('A' for Active; 'I' for Inactive)
REMARK    1  A    between atoms: C_2  and  C_3
REMARK    2  A    between atoms: C_3  and  N_4
REMARK    3  A    between atoms: N_14  and  C_15
REMARK    4  A    between atoms: C_15  and  C_16
REMARK    5  A    between atoms: N_26  and  C_27
REMARK    6  A    between atoms: C_27  and  C_28
REMARK    7  A    between atoms: C_28  and  C_29
REMARK                            x       y       z     vdW  Elec       q    Type
REMARK                         _______ _______ _______ _____ _____    ______ ____
ROOT
ATOM      1  N   UNL     1       1.401   9.806  19.560  0.00  0.00    +0.000 N 
ATOM      2  N   UNL     1       1.091   9.284  20.833  0.00  0.00    +0.000 NA
ATOM      3  C   UNL     1       1.275   8.015  21.050  0.00  0.00    +0.000 A 
ATOM      4  C   UNL     1       1.919   7.176  20.071  0.00  0.00    +0.000 A 
ATOM      5  C   UNL     1       2.230   5.795  20.026  0.00  0.00    +0.000 A 
ATOM      6  C   UNL     1       1.956   4.697  20.866  0.00  0.00    +0.000 A 
ATOM      7  C   UNL     1       2.369   3.416  20.485  0.00  0.00    +0.000 A 
ATOM      8  C   UNL     1       3.085   3.223  19.308  0.00  0.00    +0.000 A 
ATOM      9  C   UNL     1       3.397   4.297  18.475  0.00  0.00    +0.000 A 
ATOM     10  C   UNL     1       2.940   5.574  18.837  0.00  0.00    +0.000 A 
ATOM     11  N   UNL     1       3.068   6.799  18.187  0.00  0.00    +0.000 N 
ATOM     12  C   UNL     1       2.263   7.711  18.843  0.00  0.00    +0.000 A 
ATOM     13  C   UNL     1       1.788   9.007  18.483  0.00  0.00    +0.000 A 
ATOM     14  O   UNL     1       1.754   9.399  17.305  0.00  0.00    +0.000 OA
ENDROOT
BRANCH   1  15
ATOM     15  C   UNL     1       1.363  11.259  19.381  0.00  0.00    +0.000 C 
BRANCH  15  17
ATOM     16  O   UNL     1       1.753  12.852  21.192  0.00  0.00    +0.000 OA
ATOM     17  C   UNL     1       1.006  12.030  20.683  0.00  0.00    +0.000 C 
ATOM     18  N   UNL     1      -0.276  11.833  21.172  0.00  0.00    +0.000 N 
ATOM     19  H   UNL     1      -0.646  10.914  20.975  0.00  0.00    +0.000 HD
BRANCH  18  20
ATOM     20  C   UNL     1      -0.763  12.538  22.349  0.00  0.00    +0.000 C 
BRANCH  20  21
ATOM     21  C   UNL     1      -1.800  11.730  23.143  0.00  0.00    +0.000 C 
BRANCH  21  22
ATOM     22  C   UNL     1      -3.180  12.333  23.049  0.00  0.00    +0.000 C 
ATOM     23  C   UNL     1      -3.948  12.511  24.140  0.00  0.00    +0.000 C 
ATOM     24  C   UNL     1      -5.328  13.098  24.097  0.00  0.00    +0.000 C 
ATOM     25  C   UNL     1      -5.917  13.147  22.688  0.00  0.00    +0.000 C 
ATOM     26  C   UNL     1      -4.881  13.633  21.681  0.00  0.00    +0.000 C 
ATOM     27  C   UNL     1      -3.655  12.718  21.666  0.00  0.00    +0.000 C 
ENDBRANCH  21  22
ENDBRANCH  20  21
ENDBRANCH  18  20
ENDBRANCH  15  17
ENDBRANCH   1  15
BRANCH  11  28
ATOM     28  C   UNL     1       3.860   6.981  16.953  0.00  0.00    +0.000 C 
BRANCH  28  29
ATOM     29  C   UNL     1       5.245   6.351  17.003  0.00  0.00    +0.000 A 
ATOM     30  C   UNL     1       5.594   5.286  16.146  0.00  0.00    +0.000 A 
ATOM     31  C   UNL     1       6.732   4.512  16.410  0.00  0.00    +0.000 A 
ATOM     32  C   UNL     1       7.546   4.838  17.489  0.00  0.00    +0.000 A 
ATOM     33  F   UNL     1       8.536   4.009  17.841  0.00  0.00    +0.000 F 
ATOM     34  C   UNL     1       7.293   5.968  18.258  0.00  0.00    +0.000 A 
ATOM     35  C   UNL     1       6.156   6.738  18.002  0.00  0.00    +0.000 A 
ENDBRANCH  28  29
ENDBRANCH  11  28
TORSDOF 7
ENDMDL
MODEL 9
REMARK VINA RESULT:      -8.6      3.585      9.022
REMARK  Name = 
REMARK  7 active torsions:
REMARK  status: ('A' for Active; 'I' for Inactive)
REMARK    1  A    between atoms: C_2  and  C_3
REMARK    2  A    between atoms: C_3  and  N_4
REMARK    3  A    between atoms: N_14  and  C_15
REMARK    4  A    between atoms: C_15  and  C_16
REMARK    5  A    between atoms: N_26  and  C_27
REMARK    6  A    between atoms: C_27  and  C_28
REMARK    7  A    between atoms: C_28  and  C_29
REMARK                            x       y       z     vdW  Elec       q    Type
REMARK                         _______ _______ _______ _____ _____    ______ ____
ROOT
ATOM      1  N   UNL     1       1.584   9.017  19.428  0.00  0.00    +0.000 N 
ATOM      2  N   UNL     1       1.187   8.637  20.728  0.00  0.00    +0.000 NA
ATOM      3  C   UNL     1       1.321   7.393  21.084  0.00  0.00    +0.000 A 
ATOM      4  C   UNL     1       1.993   6.442  20.236  0.00  0.00    +0.000 A 
ATOM      5  C   UNL     1       2.265   5.057  20.351  0.00  0.00    +0.000 A 
ATOM      6  C   UNL     1       1.911   4.059  21.280  0.00  0.00    +0.000 A 
ATOM      7  C   UNL     1       2.307   2.736  21.057  0.00  0.00    +0.000 A 
ATOM      8  C   UNL     1       3.082   2.404  19.951  0.00  0.00    +0.000 A 
ATOM      9  C   UNL     1       3.472   3.379  19.032  0.00  0.00    +0.000 A 
ATOM     10  C   UNL     1       3.034   4.698  19.234  0.00  0.00    +0.000 A 
ATOM     11  N   UNL     1       3.236   5.845  18.471  0.00  0.00    +0.000 N 
ATOM     12  C   UNL     1       2.422   6.838  18.982  0.00  0.00    +0.000 A 
ATOM     13  C   UNL     1       2.007   8.101  18.464  0.00  0.00    +0.000 A 
ATOM     14  O   UNL     1       2.052   8.370  17.252  0.00  0.00    +0.000 OA
ENDROOT
BRANCH   1  15
ATOM     15  C   UNL     1       1.600  10.444  19.100  0.00  0.00    +0.000 C 
BRANCH  15  17
ATOM     16  O   UNL     1       1.609  12.189  20.810  0.00  0.00    +0.000 OA
ATOM     17  C   UNL     1       0.973  11.336  20.209  0.00  0.00    +0.000 C 
ATOM     18  N   UNL     1      -0.395  11.208  20.389  0.00  0.00    +0.000 N 
ATOM     19  H   UNL     1      -0.743  10.281  20.187  0.00  0.00    +0.000 HD
BRANCH  18  20
ATOM     20  C   UNL     1      -1.120  12.026  21.351  0.00  0.00    +0.000 C 
BRANCH  20  21
ATOM     21  C   UNL     1      -2.451  12.558  20.798  0.00  0.00    +0.000 C 
BRANCH  21  22
ATOM     22  C   UNL     1      -3.503  12.677  21.874  0.00  0.00    +0.000 C 
ATOM     23  C   UNL     1      -4.808  12.805  21.574  0.00  0.00    +0.000 C 
ATOM     24  C   UNL     1      -5.889  12.936  22.607  0.00  0.00    +0.000 C 
ATOM     25  C   UNL     1      -5.354  13.264  23.999  0.00  0.00    +0.000 C 
ATOM     26  C   UNL     1      -4.126  12.421  24.323  0.00  0.00    +0.000 C 
ATOM     27  C   UNL     1      -3.011  12.655  23.304  0.00  0.00    +0.000 C 
ENDBRANCH  21  22
ENDBRANCH  20  21
ENDBRANCH  18  20
ENDBRANCH  15  17
ENDBRANCH   1  15
BRANCH  11  28
ATOM     28  C   UNL     1       4.101   5.879  17.274  0.00  0.00    +0.000 C 
BRANCH  28  29
ATOM     29  C   UNL     1       5.558   6.207  17.568  0.00  0.00    +0.000 A 
ATOM     30  C   UNL     1       6.295   5.471  18.519  0.00  0.00    +0.000 A 
ATOM     31  C   UNL     1       7.509   5.969  19.011  0.00  0.00    +0.000 A 
ATOM     32  C   UNL     1       8.009   7.167  18.511  0.00  0.00    +0.000 A 
ATOM     33  F   UNL     1       9.078   7.727  19.091  0.00  0.00    +0.000 F 
ATOM     34  C   UNL     1       7.366   7.832  17.474  0.00  0.00    +0.000 A 
ATOM     35  C   UNL     1       6.152   7.341  16.986  0.00  0.00    +0.000 A 
ENDBRANCH  28  29
ENDBRANCH  11  28
TORSDOF 7
ENDMDL
