MODEL 1
REMARK VINA RESULT:      -9.0      0.000      0.000
REMARK  Name = 
REMARK  6 active torsions:
REMARK  status: ('A' for Active; 'I' for Inactive)
REMARK    1  A    between atoms: C_1  and  C_2
REMARK    2  A    between atoms: C_5  and  C_6
REMARK    3  A    between atoms: C_10  and  C_11
REMARK    4  A    between atoms: N_13  and  C_14
REMARK    5  A    between atoms: N_17  and  C_18
REMARK    6  A    between atoms: C_18  and  C_19
REMARK                            x       y       z     vdW  Elec       q    Type
REMARK                         _______ _______ _______ _____ _____    ______ ____
ROOT
ATOM      1  C   UNL     1       2.964   6.899  18.389  0.00  0.00    +0.000 A 
ATOM      2  N   UNL     1       2.342   8.014  18.062  0.00  0.00    +0.000 NA
ATOM      3  C   UNL     1       1.746   8.451  19.207  0.00  0.00    +0.000 A 
ATOM      4  C   UNL     1       1.145   9.683  19.448  0.00  0.00    +0.000 A 
ATOM      5  C   UNL     1       0.754   9.974  20.763  0.00  0.00    +0.000 A 
ATOM      6  C   UNL     1       0.761   8.972  21.749  0.00  0.00    +0.000 A 
ATOM      7  C   UNL     1       1.313   7.707  21.497  0.00  0.00    +0.000 A 
ATOM      8  C   UNL     1       1.879   7.534  20.235  0.00  0.00    +0.000 A 
ATOM      9  N   UNL     1       2.725   6.593  19.711  0.00  0.00    +0.000 N 
ATOM     10  H   UNL     1       3.183   5.867  20.238  0.00  0.00    +0.000 HD
ENDROOT
BRANCH   1  15
ATOM     11  C   UNL     1       6.218   3.892  14.688  0.00  0.00    +0.000 C 
ATOM     12  C   UNL     1       5.405   4.682  15.672  0.00  0.00    +0.000 A 
ATOM     13  C   UNL     1       5.492   6.077  15.736  0.00  0.00    +0.000 A 
ATOM     14  C   UNL     1       4.699   6.782  16.638  0.00  0.00    +0.000 A 
ATOM     15  C   UNL     1       3.803   6.115  17.489  0.00  0.00    +0.000 A 
ATOM     16  C   UNL     1       3.746   4.719  17.444  0.00  0.00    +0.000 A 
ATOM     17  C   UNL     1       4.545   4.009  16.538  0.00  0.00    +0.000 A 
ENDBRANCH   1  15
BRANCH   5  18
ATOM     18  C   UNL     1       0.602  11.402  21.176  0.00  0.00    +0.000 C 
ATOM     19  O   UNL     1       1.516  12.197  20.997  0.00  0.00    +0.000 OA
ATOM     20  N   UNL     1      -0.650  11.753  21.628  0.00  0.00    +0.000 N 
ATOM     21  H   UNL     1      -1.237  11.026  22.008  0.00  0.00    +0.000 HD
BRANCH  20  22
ATOM     22  C   UNL     1      -1.155  13.122  21.707  0.00  0.00    +0.000 C 
ATOM     23  C   UNL     1      -2.530  13.130  22.380  0.00  0.00    +0.000 C 
ATOM     24  C   UNL     1      -3.626  12.514  21.494  0.00  0.00    +0.000 C 
ATOM     25  N   UNL     1      -3.685  13.054  20.126  0.00  0.00    +0.000 NA
ATOM     26  C   UNL     1      -2.362  13.118  19.482  0.00  0.00    +0.000 C 
ATOM     27  C   UNL     1      -1.301  13.800  20.343  0.00  0.00    +0.000 C 
BRANCH  25  28
ATOM     28  C   UNL     1      -4.578  12.232  19.271  0.00  0.00    +0.000 C 
BRANCH  28  29
ATOM     29  C   UNL     1      -3.878  11.489  18.155  0.00  0.00    +0.000 A 
ATOM     30  C   UNL     1      -2.767  10.681  18.432  0.00  0.00    +0.000 A 
ATOM     31  C   UNL     1      -2.147   9.953  17.418  0.00  0.00    +0.000 A 
ATOM     32  C   UNL     1      -2.627  10.023  16.111  0.00  0.00    +0.000 A 
ATOM     33  C   UNL     1      -3.731  10.820  15.823  0.00  0.00    +0.000 A 
ATOM     34  C   UNL     1      -4.358  11.547  16.838  0.00  0.00    +0.000 A 
ENDBRANCH  28  29
ENDBRANCH  25  28
ENDBRANCH  20  22
ENDBRANCH   5  18
TORSDOF 5
ENDMDL
MODEL 2
REMARK VINA RESULT:      -8.8      1.732      2.227
REMARK  Name = 
REMARK  6 active torsions:
REMARK  status: ('A' for Active; 'I' for Inactive)
REMARK    1  A    between atoms: C_1  and  C_2
REMARK    2  A    between atoms: C_5  and  C_6
REMARK    3  A    between atoms: C_10  and  C_11
REMARK    4  A    between atoms: N_13  and  C_14
REMARK    5  A    between atoms: N_17  and  C_18
REMARK    6  A    between atoms: C_18  and  C_19
REMARK                            x       y       z     vdW  Elec       q    Type
REMARK                         _______ _______ _______ _____ _____    ______ ____
ROOT
ATOM      1  C   UNL     1       2.708   7.144  18.671  0.00  0.00    +0.000 A 
ATOM      2  N   UNL     1       2.148   8.279  18.303  0.00  0.00    +0.000 NA
ATOM      3  C   UNL     1       1.529   8.763  19.416  0.00  0.00    +0.000 A 
ATOM      4  C   UNL     1       0.975  10.024  19.614  0.00  0.00    +0.000 A 
ATOM      5  C   UNL     1       0.549  10.356  20.907  0.00  0.00    +0.000 A 
ATOM      6  C   UNL     1       0.476   9.373  21.910  0.00  0.00    +0.000 A 
ATOM      7  C   UNL     1       0.980   8.080  21.701  0.00  0.00    +0.000 A 
ATOM      8  C   UNL     1       1.585   7.860  20.465  0.00  0.00    +0.000 A 
ATOM      9  N   UNL     1       2.407   6.873  19.988  0.00  0.00    +0.000 N 
ATOM     10  H   UNL     1       2.813   6.138  20.545  0.00  0.00    +0.000 HD
ENDROOT
BRANCH   1  15
ATOM     11  C   UNL     1       5.959   3.929  15.148  0.00  0.00    +0.000 C 
ATOM     12  C   UNL     1       5.147   4.772  16.086  0.00  0.00    +0.000 A 
ATOM     13  C   UNL     1       5.275   6.166  16.111  0.00  0.00    +0.000 A 
ATOM     14  C   UNL     1       4.482   6.922  16.970  0.00  0.00    +0.000 A 
ATOM     15  C   UNL     1       3.544   6.308  17.817  0.00  0.00    +0.000 A 
ATOM     16  C   UNL     1       3.445   4.914  17.812  0.00  0.00    +0.000 A 
ATOM     17  C   UNL     1       4.244   4.152  16.949  0.00  0.00    +0.000 A 
ENDBRANCH   1  15
BRANCH   5  18
ATOM     18  C   UNL     1       0.445  11.797  21.291  0.00  0.00    +0.000 C 
ATOM     19  O   UNL     1       1.353  12.573  21.025  0.00  0.00    +0.000 OA
ATOM     20  N   UNL     1      -0.767  12.178  21.820  0.00  0.00    +0.000 N 
ATOM     21  H   UNL     1      -1.335  11.470  22.261  0.00  0.00    +0.000 HD
BRANCH  20  22
ATOM     22  C   UNL     1      -1.249  13.555  21.896  0.00  0.00    +0.000 C 
ATOM     23  C   UNL     1      -2.157  13.721  23.118  0.00  0.00    +0.000 C 
ATOM     24  C   UNL     1      -3.505  12.999  22.955  0.00  0.00    +0.000 C 
ATOM     25  N   UNL     1      -4.216  13.300  21.703  0.00  0.00    +0.000 NA
ATOM     26  C   UNL     1      -3.344  13.211  20.519  0.00  0.00    +0.000 C 
ATOM     27  C   UNL     1      -2.042  13.995  20.664  0.00  0.00    +0.000 C 
BRANCH  25  28
ATOM     28  C   UNL     1      -5.359  12.373  21.508  0.00  0.00    +0.000 C 
BRANCH  28  29
ATOM     29  C   UNL     1      -6.100  12.549  20.200  0.00  0.00    +0.000 A 
ATOM     30  C   UNL     1      -6.638  13.795  19.854  0.00  0.00    +0.000 A 
ATOM     31  C   UNL     1      -7.278  13.978  18.630  0.00  0.00    +0.000 A 
ATOM     32  C   UNL     1      -7.391  12.917  17.733  0.00  0.00    +0.000 A 
ATOM     33  C   UNL     1      -6.858  11.674  18.063  0.00  0.00    +0.000 A 
ATOM     34  C   UNL     1      -6.212  11.489  19.288  0.00  0.00    +0.000 A 
ENDBRANCH  28  29
ENDBRANCH  25  28
ENDBRANCH  20  22
ENDBRANCH   5  18
TORSDOF 5
ENDMDL
MODEL 3
REMARK VINA RESULT:      -8.8      1.550      2.237
REMARK  Name = 
REMARK  6 active torsions:
REMARK  status: ('A' for Active; 'I' for Inactive)
REMARK    1  A    between atoms: C_1  and  C_2
REMARK    2  A    between atoms: C_5  and  C_6
REMARK    3  A    between atoms: C_10  and  C_11
REMARK    4  A    between atoms: N_13  and  C_14
REMARK    5  A    between atoms: N_17  and  C_18
REMARK    6  A    between atoms: C_18  and  C_19
REMARK                            x       y       z     vdW  Elec       q    Type
REMARK                         _______ _______ _______ _____ _____    ______ ____
ROOT
ATOM      1  C   UNL     1       2.625   7.282  18.689  0.00  0.00    +0.000 A 
ATOM      2  N   UNL     1       2.054   8.408  18.311  0.00  0.00    +0.000 NA
ATOM      3  C   UNL     1       1.449   8.907  19.425  0.00  0.00    +0.000 A 
ATOM      4  C   UNL     1       0.891  10.167  19.610  0.00  0.00    +0.000 A 
ATOM      5  C   UNL     1       0.483  10.519  20.905  0.00  0.00    +0.000 A 
ATOM      6  C   UNL     1       0.431   9.553  21.924  0.00  0.00    +0.000 A 
ATOM      7  C   UNL     1       0.939   8.260  21.729  0.00  0.00    +0.000 A 
ATOM      8  C   UNL     1       1.526   8.022  20.488  0.00  0.00    +0.000 A 
ATOM      9  N   UNL     1       2.346   7.032  20.015  0.00  0.00    +0.000 N 
ATOM     10  H   UNL     1       2.765   6.308  20.577  0.00  0.00    +0.000 HD
ENDROOT
BRANCH   1  15
ATOM     11  C   UNL     1       5.951   3.840  15.462  0.00  0.00    +0.000 C 
ATOM     12  C   UNL     1       5.055   4.727  16.276  0.00  0.00    +0.000 A 
ATOM     13  C   UNL     1       4.039   4.197  17.079  0.00  0.00    +0.000 A 
ATOM     14  C   UNL     1       3.247   5.047  17.849  0.00  0.00    +0.000 A 
ATOM     15  C   UNL     1       3.453   6.436  17.837  0.00  0.00    +0.000 A 
ATOM     16  C   UNL     1       4.448   6.961  17.007  0.00  0.00    +0.000 A 
ATOM     17  C   UNL     1       5.243   6.108  16.231  0.00  0.00    +0.000 A 
ENDBRANCH   1  15
BRANCH   5  18
ATOM     18  C   UNL     1       0.376  11.966  21.265  0.00  0.00    +0.000 C 
ATOM     19  O   UNL     1       1.066  12.798  20.690  0.00  0.00    +0.000 OA
ATOM     20  N   UNL     1      -0.620  12.276  22.163  0.00  0.00    +0.000 N 
ATOM     21  H   UNL     1      -0.938  11.549  22.787  0.00  0.00    +0.000 HD
BRANCH  20  22
ATOM     22  C   UNL     1      -1.176  13.611  22.363  0.00  0.00    +0.000 C 
ATOM     23  C   UNL     1      -2.342  13.545  23.354  0.00  0.00    +0.000 C 
ATOM     24  C   UNL     1      -3.581  12.849  22.764  0.00  0.00    +0.000 C 
ATOM     25  N   UNL     1      -4.007  13.363  21.453  0.00  0.00    +0.000 NA
ATOM     26  C   UNL     1      -2.890  13.498  20.504  0.00  0.00    +0.000 C 
ATOM     27  C   UNL     1      -1.696  14.258  21.077  0.00  0.00    +0.000 C 
BRANCH  25  28
ATOM     28  C   UNL     1      -5.029  12.474  20.844  0.00  0.00    +0.000 C 
BRANCH  28  29
ATOM     29  C   UNL     1      -5.590  12.965  19.527  0.00  0.00    +0.000 A 
ATOM     30  C   UNL     1      -5.488  12.171  18.376  0.00  0.00    +0.000 A 
ATOM     31  C   UNL     1      -6.046  12.594  17.171  0.00  0.00    +0.000 A 
ATOM     32  C   UNL     1      -6.714  13.815  17.097  0.00  0.00    +0.000 A 
ATOM     33  C   UNL     1      -6.824  14.611  18.234  0.00  0.00    +0.000 A 
ATOM     34  C   UNL     1      -6.270  14.189  19.445  0.00  0.00    +0.000 A 
ENDBRANCH  28  29
ENDBRANCH  25  28
ENDBRANCH  20  22
ENDBRANCH   5  18
TORSDOF 5
ENDMDL
MODEL 4
REMARK VINA RESULT:      -8.7      3.297     10.213
REMARK  Name = 
REMARK  6 active torsions:
REMARK  status: ('A' for Active; 'I' for Inactive)
REMARK    1  A    between atoms: C_1  and  C_2
REMARK    2  A    between atoms: C_5  and  C_6
REMARK    3  A    between atoms: C_10  and  C_11
REMARK    4  A    between atoms: N_13  and  C_14
REMARK    5  A    between atoms: N_17  and  C_18
REMARK    6  A    between atoms: C_18  and  C_19
REMARK                            x       y       z     vdW  Elec       q    Type
REMARK                         _______ _______ _______ _____ _____    ______ ____
ROOT
ATOM      1  C   UNL     1       0.531  10.800  20.911  0.00  0.00    +0.000 A 
ATOM      2  N   UNL     1       0.530   9.595  21.445  0.00  0.00    +0.000 NA
ATOM      3  C   UNL     1       1.100   8.779  20.515  0.00  0.00    +0.000 A 
ATOM      4  C   UNL     1       1.520   7.462  20.667  0.00  0.00    +0.000 A 
ATOM      5  C   UNL     1       2.243   6.880  19.616  0.00  0.00    +0.000 A 
ATOM      6  C   UNL     1       2.340   7.526  18.371  0.00  0.00    +0.000 A 
ATOM      7  C   UNL     1       1.867   8.835  18.192  0.00  0.00    +0.000 A 
ATOM      8  C   UNL     1       1.342   9.449  19.327  0.00  0.00    +0.000 A 
ATOM      9  N   UNL     1       1.044  10.751  19.633  0.00  0.00    +0.000 N 
ATOM     10  H   UNL     1       1.270  11.548  19.060  0.00  0.00    +0.000 HD
ENDROOT
BRANCH   1  15
ATOM     11  C   UNL     1      -1.087  15.634  23.619  0.00  0.00    +0.000 C 
ATOM     12  C   UNL     1      -0.685  14.390  22.882  0.00  0.00    +0.000 A 
ATOM     13  C   UNL     1       0.291  14.421  21.879  0.00  0.00    +0.000 A 
ATOM     14  C   UNL     1       0.665  13.242  21.238  0.00  0.00    +0.000 A 
ATOM     15  C   UNL     1       0.079  12.013  21.583  0.00  0.00    +0.000 A 
ATOM     16  C   UNL     1      -0.919  11.995  22.561  0.00  0.00    +0.000 A 
ATOM     17  C   UNL     1      -1.297  13.180  23.205  0.00  0.00    +0.000 A 
ENDBRANCH   1  15
BRANCH   5  18
ATOM     18  C   UNL     1       3.139   5.719  19.905  0.00  0.00    +0.000 C 
ATOM     19  O   UNL     1       2.723   4.765  20.550  0.00  0.00    +0.000 OA
ATOM     20  N   UNL     1       4.370   5.758  19.291  0.00  0.00    +0.000 N 
ATOM     21  H   UNL     1       4.740   6.660  19.028  0.00  0.00    +0.000 HD
BRANCH  20  22
ATOM     22  C   UNL     1       5.240   4.602  19.091  0.00  0.00    +0.000 C 
ATOM     23  C   UNL     1       6.577   5.054  18.498  0.00  0.00    +0.000 C 
ATOM     24  C   UNL     1       6.450   5.521  17.038  0.00  0.00    +0.000 C 
ATOM     25  N   UNL     1       5.751   4.577  16.151  0.00  0.00    +0.000 NA
ATOM     26  C   UNL     1       4.493   4.076  16.730  0.00  0.00    +0.000 C 
ATOM     27  C   UNL     1       4.650   3.546  18.153  0.00  0.00    +0.000 C 
BRANCH  25  28
ATOM     28  C   UNL     1       5.441   5.210  14.844  0.00  0.00    +0.000 C 
BRANCH  28  29
ATOM     29  C   UNL     1       5.819   4.383  13.634  0.00  0.00    +0.000 A 
ATOM     30  C   UNL     1       7.141   4.371  13.171  0.00  0.00    +0.000 A 
ATOM     31  C   UNL     1       7.507   3.574  12.088  0.00  0.00    +0.000 A 
ATOM     32  C   UNL     1       6.557   2.776  11.452  0.00  0.00    +0.000 A 
ATOM     33  C   UNL     1       5.241   2.776  11.905  0.00  0.00    +0.000 A 
ATOM     34  C   UNL     1       4.871   3.571  12.993  0.00  0.00    +0.000 A 
ENDBRANCH  28  29
ENDBRANCH  25  28
ENDBRANCH  20  22
ENDBRANCH   5  18
TORSDOF 5
ENDMDL
MODEL 5
REMARK VINA RESULT:      -8.7      4.263      5.919
REMARK  Name = 
REMARK  6 active torsions:
REMARK  status: ('A' for Active; 'I' for Inactive)
REMARK    1  A    between atoms: C_1  and  C_2
REMARK    2  A    between atoms: C_5  and  C_6
REMARK    3  A    between atoms: C_10  and  C_11
REMARK    4  A    between atoms: N_13  and  C_14
REMARK    5  A    between atoms: N_17  and  C_18
REMARK    6  A    between atoms: C_18  and  C_19
REMARK                            x       y       z     vdW  Elec       q    Type
REMARK                         _______ _______ _______ _____ _____    ______ ____
ROOT
ATOM      1  C   UNL     1       2.713   7.177  18.543  0.00  0.00    +0.000 A 
ATOM      2  N   UNL     1       2.063   8.229  18.088  0.00  0.00    +0.000 NA
ATOM      3  C   UNL     1       1.453   8.784  19.173  0.00  0.00    +0.000 A 
ATOM      4  C   UNL     1       0.821  10.019  19.266  0.00  0.00    +0.000 A 
ATOM      5  C   UNL     1       0.421  10.455  20.538  0.00  0.00    +0.000 A 
ATOM      6  C   UNL     1       0.452   9.578  21.636  0.00  0.00    +0.000 A 
ATOM      7  C   UNL     1       1.037   8.306  21.536  0.00  0.00    +0.000 A 
ATOM      8  C   UNL     1       1.609   8.000  20.303  0.00  0.00    +0.000 A 
ATOM      9  N   UNL     1       2.480   7.024  19.893  0.00  0.00    +0.000 N 
ATOM     10  H   UNL     1       2.956   6.378  20.502  0.00  0.00    +0.000 HD
ENDROOT
BRANCH   1  15
ATOM     11  C   UNL     1       6.069   3.853  15.225  0.00  0.00    +0.000 C 
ATOM     12  C   UNL     1       5.228   4.724  16.112  0.00  0.00    +0.000 A 
ATOM     13  C   UNL     1       5.393   6.114  16.137  0.00  0.00    +0.000 A 
ATOM     14  C   UNL     1       4.573   6.896  16.947  0.00  0.00    +0.000 A 
ATOM     15  C   UNL     1       3.573   6.313  17.742  0.00  0.00    +0.000 A 
ATOM     16  C   UNL     1       3.436   4.922  17.738  0.00  0.00    +0.000 A 
ATOM     17  C   UNL     1       4.261   4.134  16.925  0.00  0.00    +0.000 A 
ENDBRANCH   1  15
BRANCH   5  18
ATOM     18  C   UNL     1       0.231  11.918  20.778  0.00  0.00    +0.000 C 
ATOM     19  O   UNL     1      -0.831  12.338  21.218  0.00  0.00    +0.000 OA
ATOM     20  N   UNL     1       1.354  12.694  20.600  0.00  0.00    +0.000 N 
ATOM     21  H   UNL     1       2.077  12.347  19.986  0.00  0.00    +0.000 HD
BRANCH  20  22
ATOM     22  C   UNL     1       1.534  14.039  21.141  0.00  0.00    +0.000 C 
ATOM     23  C   UNL     1       1.036  15.076  20.130  0.00  0.00    +0.000 C 
ATOM     24  C   UNL     1       1.948  15.184  18.896  0.00  0.00    +0.000 C 
ATOM     25  N   UNL     1       3.376  15.362  19.202  0.00  0.00    +0.000 NA
ATOM     26  C   UNL     1       3.862  14.418  20.222  0.00  0.00    +0.000 C 
ATOM     27  C   UNL     1       2.989  14.376  21.474  0.00  0.00    +0.000 C 
BRANCH  25  28
ATOM     28  C   UNL     1       4.203  15.192  17.981  0.00  0.00    +0.000 C 
BRANCH  28  29
ATOM     29  C   UNL     1       5.657  15.580  18.142  0.00  0.00    +0.000 A 
ATOM     30  C   UNL     1       6.000  16.823  18.689  0.00  0.00    +0.000 A 
ATOM     31  C   UNL     1       7.336  17.168  18.888  0.00  0.00    +0.000 A 
ATOM     32  C   UNL     1       8.349  16.276  18.542  0.00  0.00    +0.000 A 
ATOM     33  C   UNL     1       8.022  15.036  18.000  0.00  0.00    +0.000 A 
ATOM     34  C   UNL     1       6.683  14.685  17.804  0.00  0.00    +0.000 A 
ENDBRANCH  28  29
ENDBRANCH  25  28
ENDBRANCH  20  22
ENDBRANCH   5  18
TORSDOF 5
ENDMDL
MODEL 6
REMARK VINA RESULT:      -8.6      4.242      5.973
REMARK  Name = 
REMARK  6 active torsions:
REMARK  status: ('A' for Active; 'I' for Inactive)
REMARK    1  A    between atoms: C_1  and  C_2
REMARK    2  A    between atoms: C_5  and  C_6
REMARK    3  A    between atoms: C_10  and  C_11
REMARK    4  A    between atoms: N_13  and  C_14
REMARK    5  A    between atoms: N_17  and  C_18
REMARK    6  A    between atoms: C_18  and  C_19
REMARK                            x       y       z     vdW  Elec       q    Type
REMARK                         _______ _______ _______ _____ _____    ______ ____
ROOT
ATOM      1  C   UNL     1       2.150   7.711  19.156  0.00  0.00    +0.000 A 
ATOM      2  N   UNL     1       1.550   8.814  18.752  0.00  0.00    +0.000 NA
ATOM      3  C   UNL     1       0.970   9.346  19.864  0.00  0.00    +0.000 A 
ATOM      4  C   UNL     1       0.398  10.605  20.018  0.00  0.00    +0.000 A 
ATOM      5  C   UNL     1       0.021  10.999  21.309  0.00  0.00    +0.000 A 
ATOM      6  C   UNL     1       0.012  10.071  22.366  0.00  0.00    +0.000 A 
ATOM      7  C   UNL     1       0.535   8.779  22.204  0.00  0.00    +0.000 A 
ATOM      8  C   UNL     1       1.090   8.503  20.956  0.00  0.00    +0.000 A 
ATOM      9  N   UNL     1       1.911   7.507  20.498  0.00  0.00    +0.000 N 
ATOM     10  H   UNL     1       2.357   6.812  21.075  0.00  0.00    +0.000 HD
ENDROOT
BRANCH   1  15
ATOM     11  C   UNL     1       5.424   4.189  15.965  0.00  0.00    +0.000 C 
ATOM     12  C   UNL     1       4.542   5.098  16.769  0.00  0.00    +0.000 A 
ATOM     13  C   UNL     1       3.498   4.594  17.553  0.00  0.00    +0.000 A 
ATOM     14  C   UNL     1       2.720   5.463  18.314  0.00  0.00    +0.000 A 
ATOM     15  C   UNL     1       2.966   6.846  18.313  0.00  0.00    +0.000 A 
ATOM     16  C   UNL     1       3.988   7.346  17.501  0.00  0.00    +0.000 A 
ATOM     17  C   UNL     1       4.771   6.473  16.734  0.00  0.00    +0.000 A 
ENDBRANCH   1  15
BRANCH   5  18
ATOM     18  C   UNL     1      -0.098  12.457  21.619  0.00  0.00    +0.000 C 
ATOM     19  O   UNL     1      -0.678  12.827  22.631  0.00  0.00    +0.000 OA
ATOM     20  N   UNL     1       0.592  13.295  20.772  0.00  0.00    +0.000 N 
ATOM     21  H   UNL     1       0.793  12.966  19.840  0.00  0.00    +0.000 HD
BRANCH  20  22
ATOM     22  C   UNL     1       0.957  14.675  21.081  0.00  0.00    +0.000 C 
ATOM     23  C   UNL     1       0.845  15.537  19.820  0.00  0.00    +0.000 C 
ATOM     24  C   UNL     1       1.939  15.219  18.787  0.00  0.00    +0.000 C 
ATOM     25  N   UNL     1       3.309  15.215  19.325  0.00  0.00    +0.000 NA
ATOM     26  C   UNL     1       3.427  14.447  20.576  0.00  0.00    +0.000 C 
ATOM     27  C   UNL     1       2.381  14.826  21.621  0.00  0.00    +0.000 C 
BRANCH  25  28
ATOM     28  C   UNL     1       4.263  14.646  18.339  0.00  0.00    +0.000 C 
BRANCH  28  29
ATOM     29  C   UNL     1       5.634  15.288  18.342  0.00  0.00    +0.000 A 
ATOM     30  C   UNL     1       6.735  14.603  17.813  0.00  0.00    +0.000 A 
ATOM     31  C   UNL     1       7.991  15.206  17.767  0.00  0.00    +0.000 A 
ATOM     32  C   UNL     1       8.164  16.502  18.249  0.00  0.00    +0.000 A 
ATOM     33  C   UNL     1       7.077  17.195  18.774  0.00  0.00    +0.000 A 
ATOM     34  C   UNL     1       5.816  16.595  18.819  0.00  0.00    +0.000 A 
ENDBRANCH  28  29
ENDBRANCH  25  28
ENDBRANCH  20  22
ENDBRANCH   5  18
TORSDOF 5
ENDMDL
MODEL 7
REMARK VINA RESULT:      -8.6      5.284      8.960
REMARK  Name = 
REMARK  6 active torsions:
REMARK  status: ('A' for Active; 'I' for Inactive)
REMARK    1  A    between atoms: C_1  and  C_2
REMARK    2  A    between atoms: C_5  and  C_6
REMARK    3  A    between atoms: C_10  and  C_11
REMARK    4  A    between atoms: N_13  and  C_14
REMARK    5  A    between atoms: N_17  and  C_18
REMARK    6  A    between atoms: C_18  and  C_19
REMARK                            x       y       z     vdW  Elec       q    Type
REMARK                         _______ _______ _______ _____ _____    ______ ____
ROOT
ATOM      1  C   UNL     1       8.428   9.000  18.217  0.00  0.00    +0.000 A 
ATOM      2  N   UNL     1       7.877   8.500  17.129  0.00  0.00    +0.000 NA
ATOM      3  C   UNL     1       7.683   7.177  17.390  0.00  0.00    +0.000 A 
ATOM      4  C   UNL     1       6.949   6.253  16.652  0.00  0.00    +0.000 A 
ATOM      5  C   UNL     1       6.743   4.984  17.212  0.00  0.00    +0.000 A 
ATOM      6  C   UNL     1       7.442   4.590  18.366  0.00  0.00    +0.000 A 
ATOM      7  C   UNL     1       8.232   5.500  19.085  0.00  0.00    +0.000 A 
ATOM      8  C   UNL     1       8.238   6.808  18.603  0.00  0.00    +0.000 A 
ATOM      9  N   UNL     1       8.636   8.002  19.144  0.00  0.00    +0.000 N 
ATOM     10  H   UNL     1       8.924   8.138  20.100  0.00  0.00    +0.000 HD
ENDROOT
BRANCH   1  15
ATOM     11  C   UNL     1       9.755  14.582  18.852  0.00  0.00    +0.000 C 
ATOM     12  C   UNL     1       9.372  13.139  18.700  0.00  0.00    +0.000 A 
ATOM     13  C   UNL     1       8.506  12.717  17.685  0.00  0.00    +0.000 A 
ATOM     14  C   UNL     1       8.199  11.365  17.551  0.00  0.00    +0.000 A 
ATOM     15  C   UNL     1       8.748  10.408  18.421  0.00  0.00    +0.000 A 
ATOM     16  C   UNL     1       9.585  10.840  19.453  0.00  0.00    +0.000 A 
ATOM     17  C   UNL     1       9.894  12.200  19.590  0.00  0.00    +0.000 A 
ENDBRANCH   1  15
BRANCH   5  18
ATOM     18  C   UNL     1       5.581   4.165  16.749  0.00  0.00    +0.000 C 
ATOM     19  O   UNL     1       5.515   3.790  15.586  0.00  0.00    +0.000 OA
ATOM     20  N   UNL     1       4.705   3.776  17.737  0.00  0.00    +0.000 N 
ATOM     21  H   UNL     1       4.659   4.335  18.576  0.00  0.00    +0.000 HD
BRANCH  20  22
ATOM     22  C   UNL     1       3.750   2.677  17.619  0.00  0.00    +0.000 C 
ATOM     23  C   UNL     1       2.379   3.222  17.210  0.00  0.00    +0.000 C 
ATOM     24  C   UNL     1       1.698   4.019  18.335  0.00  0.00    +0.000 C 
ATOM     25  N   UNL     1       1.644   3.325  19.632  0.00  0.00    +0.000 NA
ATOM     26  C   UNL     1       2.938   2.734  20.016  0.00  0.00    +0.000 C 
ATOM     27  C   UNL     1       3.566   1.883  18.915  0.00  0.00    +0.000 C 
BRANCH  25  28
ATOM     28  C   UNL     1       1.219   4.252  20.711  0.00  0.00    +0.000 C 
BRANCH  28  29
ATOM     29  C   UNL     1       1.442   5.719  20.409  0.00  0.00    +0.000 A 
ATOM     30  C   UNL     1       0.804   6.702  21.176  0.00  0.00    +0.000 A 
ATOM     31  C   UNL     1       1.042   8.055  20.937  0.00  0.00    +0.000 A 
ATOM     32  C   UNL     1       1.921   8.444  19.928  0.00  0.00    +0.000 A 
ATOM     33  C   UNL     1       2.564   7.476  19.161  0.00  0.00    +0.000 A 
ATOM     34  C   UNL     1       2.330   6.120  19.400  0.00  0.00    +0.000 A 
ENDBRANCH  28  29
ENDBRANCH  25  28
ENDBRANCH  20  22
ENDBRANCH   5  18
TORSDOF 5
ENDMDL
MODEL 8
REMARK VINA RESULT:      -8.5      4.094      5.845
REMARK  Name = 
REMARK  6 active torsions:
REMARK  status: ('A' for Active; 'I' for Inactive)
REMARK    1  A    between atoms: C_1  and  C_2
REMARK    2  A    between atoms: C_5  and  C_6
REMARK    3  A    between atoms: C_10  and  C_11
REMARK    4  A    between atoms: N_13  and  C_14
REMARK    5  A    between atoms: N_17  and  C_18
REMARK    6  A    between atoms: C_18  and  C_19
REMARK                            x       y       z     vdW  Elec       q    Type
REMARK                         _______ _______ _______ _____ _____    ______ ____
ROOT
ATOM      1  C   UNL     1       1.842   7.914  19.620  0.00  0.00    +0.000 A 
ATOM      2  N   UNL     1       1.293   9.036  19.200  0.00  0.00    +0.000 NA
ATOM      3  C   UNL     1       0.682   9.577  20.291  0.00  0.00    +0.000 A 
ATOM      4  C   UNL     1       0.141  10.852  20.431  0.00  0.00    +0.000 A 
ATOM      5  C   UNL     1      -0.279  11.247  21.709  0.00  0.00    +0.000 A 
ATOM      6  C   UNL     1      -0.361  10.313  22.755  0.00  0.00    +0.000 A 
ATOM      7  C   UNL     1       0.130   9.007  22.605  0.00  0.00    +0.000 A 
ATOM      8  C   UNL     1       0.730   8.724  21.380  0.00  0.00    +0.000 A 
ATOM      9  N   UNL     1       1.541   7.707  20.948  0.00  0.00    +0.000 N 
ATOM     10  H   UNL     1       1.940   6.994  21.537  0.00  0.00    +0.000 HD
ENDROOT
BRANCH   1  15
ATOM     11  C   UNL     1       5.187   4.354  16.544  0.00  0.00    +0.000 C 
ATOM     12  C   UNL     1       4.284   5.264  17.324  0.00  0.00    +0.000 A 
ATOM     13  C   UNL     1       3.437   4.771  18.322  0.00  0.00    +0.000 A 
ATOM     14  C   UNL     1       2.637   5.648  19.051  0.00  0.00    +0.000 A 
ATOM     15  C   UNL     1       2.668   7.030  18.804  0.00  0.00    +0.000 A 
ATOM     16  C   UNL     1       3.491   7.513  17.784  0.00  0.00    +0.000 A 
ATOM     17  C   UNL     1       4.295   6.631  17.049  0.00  0.00    +0.000 A 
ENDBRANCH   1  15
BRANCH   5  18
ATOM     18  C   UNL     1      -0.368  12.706  22.025  0.00  0.00    +0.000 C 
ATOM     19  O   UNL     1      -0.880  13.080  23.072  0.00  0.00    +0.000 OA
ATOM     20  N   UNL     1       0.272  13.540  21.137  0.00  0.00    +0.000 N 
ATOM     21  H   UNL     1       0.412  13.210  20.194  0.00  0.00    +0.000 HD
BRANCH  20  22
ATOM     22  C   UNL     1       0.666  14.918  21.422  0.00  0.00    +0.000 C 
ATOM     23  C   UNL     1       0.404  15.797  20.197  0.00  0.00    +0.000 C 
ATOM     24  C   UNL     1       1.370  15.501  19.037  0.00  0.00    +0.000 C 
ATOM     25  N   UNL     1       2.794  15.497  19.411  0.00  0.00    +0.000 NA
ATOM     26  C   UNL     1       3.060  14.710  20.627  0.00  0.00    +0.000 C 
ATOM     27  C   UNL     1       2.143  15.068  21.794  0.00  0.00    +0.000 C 
BRANCH  25  28
ATOM     28  C   UNL     1       3.627  14.948  18.312  0.00  0.00    +0.000 C 
BRANCH  28  29
ATOM     29  C   UNL     1       5.057  15.444  18.294  0.00  0.00    +0.000 A 
ATOM     30  C   UNL     1       5.375  16.702  18.821  0.00  0.00    +0.000 A 
ATOM     31  C   UNL     1       6.696  17.146  18.854  0.00  0.00    +0.000 A 
ATOM     32  C   UNL     1       7.719  16.337  18.360  0.00  0.00    +0.000 A 
ATOM     33  C   UNL     1       7.417  15.083  17.838  0.00  0.00    +0.000 A 
ATOM     34  C   UNL     1       6.094  14.634  17.806  0.00  0.00    +0.000 A 
ENDBRANCH  28  29
ENDBRANCH  25  28
ENDBRANCH  20  22
ENDBRANCH   5  18
TORSDOF 5
ENDMDL
MODEL 9
REMARK VINA RESULT:      -8.5      2.428      4.263
REMARK  Name = 
REMARK  6 active torsions:
REMARK  status: ('A' for Active; 'I' for Inactive)
REMARK    1  A    between atoms: C_1  and  C_2
REMARK    2  A    between atoms: C_5  and  C_6
REMARK    3  A    between atoms: C_10  and  C_11
REMARK    4  A    between atoms: N_13  and  C_14
REMARK    5  A    between atoms: N_17  and  C_18
REMARK    6  A    between atoms: C_18  and  C_19
REMARK                            x       y       z     vdW  Elec       q    Type
REMARK                         _______ _______ _______ _____ _____    ______ ____
ROOT
ATOM      1  C   UNL     1       0.701   9.758  19.694  0.00  0.00    +0.000 A 
ATOM      2  N   UNL     1       0.857  10.470  20.792  0.00  0.00    +0.000 NA
ATOM      3  C   UNL     1      -0.212  11.313  20.840  0.00  0.00    +0.000 A 
ATOM      4  C   UNL     1      -0.626  12.119  21.896  0.00  0.00    +0.000 A 
ATOM      5  C   UNL     1      -1.862  12.770  21.776  0.00  0.00    +0.000 A 
ATOM      6  C   UNL     1      -2.545  12.787  20.547  0.00  0.00    +0.000 A 
ATOM      7  C   UNL     1      -2.102  12.022  19.458  0.00  0.00    +0.000 A 
ATOM      8  C   UNL     1      -0.982  11.227  19.693  0.00  0.00    +0.000 A 
ATOM      9  N   UNL     1      -0.423  10.175  19.016  0.00  0.00    +0.000 N 
ATOM     10  H   UNL     1      -0.834   9.714  18.219  0.00  0.00    +0.000 HD
ENDROOT
BRANCH   1  15
ATOM     11  C   UNL     1       4.063   5.436  17.868  0.00  0.00    +0.000 C 
ATOM     12  C   UNL     1       3.222   6.583  18.347  0.00  0.00    +0.000 A 
ATOM     13  C   UNL     1       3.006   7.711  17.548  0.00  0.00    +0.000 A 
ATOM     14  C   UNL     1       2.192   8.743  18.010  0.00  0.00    +0.000 A 
ATOM     15  C   UNL     1       1.576   8.671  19.270  0.00  0.00    +0.000 A 
ATOM     16  C   UNL     1       1.824   7.557  20.076  0.00  0.00    +0.000 A 
ATOM     17  C   UNL     1       2.643   6.519  19.614  0.00  0.00    +0.000 A 
ENDBRANCH   1  15
BRANCH   5  18
ATOM     18  C   UNL     1      -2.581  13.198  23.015  0.00  0.00    +0.000 C 
ATOM     19  O   UNL     1      -2.014  13.893  23.848  0.00  0.00    +0.000 OA
ATOM     20  N   UNL     1      -3.917  12.869  23.063  0.00  0.00    +0.000 N 
ATOM     21  H   UNL     1      -4.231  12.084  22.513  0.00  0.00    +0.000 HD
BRANCH  20  22
ATOM     22  C   UNL     1      -4.900  13.499  23.942  0.00  0.00    +0.000 C 
ATOM     23  C   UNL     1      -6.110  12.576  24.113  0.00  0.00    +0.000 C 
ATOM     24  C   UNL     1      -6.957  12.468  22.834  0.00  0.00    +0.000 C 
ATOM     25  N   UNL     1      -7.336  13.759  22.238  0.00  0.00    +0.000 NA
ATOM     26  C   UNL     1      -6.199  14.689  22.124  0.00  0.00    +0.000 C 
ATOM     27  C   UNL     1      -5.412  14.845  23.423  0.00  0.00    +0.000 C 
BRANCH  25  28
ATOM     28  C   UNL     1      -7.915  13.567  20.884  0.00  0.00    +0.000 C 
BRANCH  28  29
ATOM     29  C   UNL     1      -7.137  12.625  19.990  0.00  0.00    +0.000 A 
ATOM     30  C   UNL     1      -7.440  11.258  19.970  0.00  0.00    +0.000 A 
ATOM     31  C   UNL     1      -6.762  10.392  19.114  0.00  0.00    +0.000 A 
ATOM     32  C   UNL     1      -5.771  10.881  18.265  0.00  0.00    +0.000 A 
ATOM     33  C   UNL     1      -5.462  12.238  18.273  0.00  0.00    +0.000 A 
ATOM     34  C   UNL     1      -6.142  13.109  19.127  0.00  0.00    +0.000 A 
ENDBRANCH  28  29
ENDBRANCH  25  28
ENDBRANCH  20  22
ENDBRANCH   5  18
TORSDOF 5
ENDMDL
