MODEL 1
REMARK VINA RESULT:      -7.6      0.000      0.000
REMARK  Name = 
REMARK  6 active torsions:
REMARK  status: ('A' for Active; 'I' for Inactive)
REMARK    1  A    between atoms: C_2  and  C_15
REMARK    2  A    between atoms: N_3  and  N_4
REMARK    3  A    between atoms: N_4  and  C_5
REMARK    4  A    between atoms: C_5  and  N_7
REMARK    5  A    between atoms: N_7  and  C_8
REMARK    6  A    between atoms: C_17  and  N_18
REMARK                            x       y       z     vdW  Elec       q    Type
REMARK                         _______ _______ _______ _____ _____    ______ ____
ROOT
ATOM      1  O   UNL     1       3.928   2.580  18.215  0.00  0.00    +0.000 OA
ATOM      2  C   UNL     1       4.023   3.645  17.607  0.00  0.00    +0.000 C 
ATOM      3  N   UNL     1       3.054   4.619  17.648  0.00  0.00    +0.000 N 
ATOM      4  H   UNL     1       3.141   5.494  17.138  0.00  0.00    +0.000 HD
ENDROOT
BRANCH   2   5
ATOM      5  C   UNL     1       5.172   3.983  16.788  0.00  0.00    +0.000 A 
ATOM      6  C   UNL     1       5.292   4.161  15.416  0.00  0.00    +0.000 A 
ATOM      7  C   UNL     1       6.637   4.521  15.128  0.00  0.00    +0.000 A 
ATOM      8  C   UNL     1       7.310   4.552  16.334  0.00  0.00    +0.000 A 
ATOM      9  N   UNL     1       6.417   4.238  17.327  0.00  0.00    +0.000 N 
ATOM     10  H   UNL     1       6.622   4.196  18.319  0.00  0.00    +0.000 HD
BRANCH   7  11
ATOM     11  N   UNL     1       7.196   4.809  13.830  0.00  0.00    +0.000 N 
ATOM     12  O   UNL     1       6.701   4.210  12.868  0.00  0.00    +0.000 OA
ATOM     13  O   UNL     1       8.122   5.629  13.782  0.00  0.00    +0.000 OA
ENDBRANCH   7  11
ENDBRANCH   2   5
BRANCH   3  14
ATOM     14  N   UNL     1       2.056   4.587  18.631  0.00  0.00    +0.000 N 
ATOM     15  H   UNL     1       1.098   4.673  18.294  0.00  0.00    +0.000 HD
BRANCH  14  16
ATOM     16  C   UNL     1       2.371   4.951  19.938  0.00  0.00    +0.000 C 
ATOM     17  S   UNL     1       1.983   3.993  21.266  0.00  0.00    +0.000 S 
BRANCH  16  18
ATOM     18  N   UNL     1       2.898   6.236  19.977  0.00  0.00    +0.000 N 
ATOM     19  H   UNL     1       3.897   6.257  19.805  0.00  0.00    +0.000 HD
BRANCH  18  20
ATOM     20  C   UNL     1       2.203   7.436  19.716  0.00  0.00    +0.000 A 
ATOM     21  C   UNL     1       2.258   8.057  18.465  0.00  0.00    +0.000 A 
ATOM     22  C   UNL     1       1.573   9.251  18.238  0.00  0.00    +0.000 A 
ATOM     23  C   UNL     1       0.822   9.821  19.261  0.00  0.00    +0.000 A 
ATOM     24 CL   UNL     1       0.008  11.312  18.994  0.00  0.00    +0.000 Cl
ATOM     25  C   UNL     1       0.725   9.189  20.501  0.00  0.00    +0.000 A 
ATOM     26  C   UNL     1       1.401   7.983  20.722  0.00  0.00    +0.000 A 
ENDBRANCH  18  20
ENDBRANCH  16  18
ENDBRANCH  14  16
ENDBRANCH   3  14
TORSDOF 6
ENDMDL
MODEL 2
REMARK VINA RESULT:      -7.5      1.987      2.479
REMARK  Name = 
REMARK  6 active torsions:
REMARK  status: ('A' for Active; 'I' for Inactive)
REMARK    1  A    between atoms: C_2  and  C_15
REMARK    2  A    between atoms: N_3  and  N_4
REMARK    3  A    between atoms: N_4  and  C_5
REMARK    4  A    between atoms: C_5  and  N_7
REMARK    5  A    between atoms: N_7  and  C_8
REMARK    6  A    between atoms: C_17  and  N_18
REMARK                            x       y       z     vdW  Elec       q    Type
REMARK                         _______ _______ _______ _____ _____    ______ ____
ROOT
ATOM      1  O   UNL     1       7.004   5.528  17.958  0.00  0.00    +0.000 OA
ATOM      2  C   UNL     1       6.481   4.630  17.302  0.00  0.00    +0.000 C 
ATOM      3  N   UNL     1       5.705   3.645  17.866  0.00  0.00    +0.000 N 
ATOM      4  H   UNL     1       5.280   2.906  17.313  0.00  0.00    +0.000 HD
ENDROOT
BRANCH   2   5
ATOM      5  C   UNL     1       6.624   4.523  15.861  0.00  0.00    +0.000 A 
ATOM      6  C   UNL     1       5.987   3.701  14.941  0.00  0.00    +0.000 A 
ATOM      7  C   UNL     1       6.470   4.024  13.644  0.00  0.00    +0.000 A 
ATOM      8  C   UNL     1       7.397   5.036  13.802  0.00  0.00    +0.000 A 
ATOM      9  N   UNL     1       7.474   5.336  15.139  0.00  0.00    +0.000 N 
ATOM     10  H   UNL     1       8.061   6.050  15.555  0.00  0.00    +0.000 HD
BRANCH   7  11
ATOM     11  N   UNL     1       6.069   3.421  12.397  0.00  0.00    +0.000 N 
ATOM     12  O   UNL     1       4.864   3.468  12.121  0.00  0.00    +0.000 OA
ATOM     13  O   UNL     1       6.957   2.907  11.704  0.00  0.00    +0.000 OA
ENDBRANCH   7  11
ENDBRANCH   2   5
BRANCH   3  14
ATOM     14  N   UNL     1       5.211   3.789  19.168  0.00  0.00    +0.000 N 
ATOM     15  H   UNL     1       5.902   3.733  19.915  0.00  0.00    +0.000 HD
BRANCH  14  16
ATOM     16  C   UNL     1       3.876   3.490  19.431  0.00  0.00    +0.000 C 
ATOM     17  S   UNL     1       3.114   2.120  18.818  0.00  0.00    +0.000 S 
BRANCH  16  18
ATOM     18  N   UNL     1       3.266   4.529  20.123  0.00  0.00    +0.000 N 
ATOM     19  H   UNL     1       3.459   4.504  21.119  0.00  0.00    +0.000 HD
BRANCH  18  20
ATOM     20  C   UNL     1       2.900   5.786  19.599  0.00  0.00    +0.000 A 
ATOM     21  C   UNL     1       3.233   6.160  18.293  0.00  0.00    +0.000 A 
ATOM     22  C   UNL     1       2.871   7.416  17.803  0.00  0.00    +0.000 A 
ATOM     23  C   UNL     1       2.165   8.296  18.617  0.00  0.00    +0.000 A 
ATOM     24 CL   UNL     1       1.751   9.858  18.027  0.00  0.00    +0.000 Cl
ATOM     25  C   UNL     1       1.789   7.918  19.906  0.00  0.00    +0.000 A 
ATOM     26  C   UNL     1       2.140   6.652  20.391  0.00  0.00    +0.000 A 
ENDBRANCH  18  20
ENDBRANCH  16  18
ENDBRANCH  14  16
ENDBRANCH   3  14
TORSDOF 6
ENDMDL
MODEL 3
REMARK VINA RESULT:      -7.3      1.659      1.893
REMARK  Name = 
REMARK  6 active torsions:
REMARK  status: ('A' for Active; 'I' for Inactive)
REMARK    1  A    between atoms: C_2  and  C_15
REMARK    2  A    between atoms: N_3  and  N_4
REMARK    3  A    between atoms: N_4  and  C_5
REMARK    4  A    between atoms: C_5  and  N_7
REMARK    5  A    between atoms: N_7  and  C_8
REMARK    6  A    between atoms: C_17  and  N_18
REMARK                            x       y       z     vdW  Elec       q    Type
REMARK                         _______ _______ _______ _____ _____    ______ ____
ROOT
ATOM      1  O   UNL     1       7.123   4.462  18.239  0.00  0.00    +0.000 OA
ATOM      2  C   UNL     1       6.200   4.416  17.429  0.00  0.00    +0.000 C 
ATOM      3  N   UNL     1       4.877   4.384  17.803  0.00  0.00    +0.000 N 
ATOM      4  H   UNL     1       4.122   4.342  17.124  0.00  0.00    +0.000 HD
ENDROOT
BRANCH   2   5
ATOM      5  C   UNL     1       6.413   4.396  15.993  0.00  0.00    +0.000 A 
ATOM      6  C   UNL     1       5.820   3.635  14.995  0.00  0.00    +0.000 A 
ATOM      7  C   UNL     1       6.366   4.034  13.745  0.00  0.00    +0.000 A 
ATOM      8  C   UNL     1       7.285   5.031  14.010  0.00  0.00    +0.000 A 
ATOM      9  N   UNL     1       7.298   5.248  15.365  0.00  0.00    +0.000 N 
ATOM     10  H   UNL     1       7.864   5.933  15.851  0.00  0.00    +0.000 HD
BRANCH   7  11
ATOM     11  N   UNL     1       6.025   3.510  12.445  0.00  0.00    +0.000 N 
ATOM     12  O   UNL     1       6.957   3.068  11.763  0.00  0.00    +0.000 OA
ATOM     13  O   UNL     1       4.832   3.544  12.116  0.00  0.00    +0.000 OA
ENDBRANCH   7  11
ENDBRANCH   2   5
BRANCH   3  14
ATOM     14  N   UNL     1       4.500   4.720  19.109  0.00  0.00    +0.000 N 
ATOM     15  H   UNL     1       5.070   4.319  19.853  0.00  0.00    +0.000 HD
BRANCH  14  16
ATOM     16  C   UNL     1       3.185   5.099  19.366  0.00  0.00    +0.000 C 
ATOM     17  S   UNL     1       1.860   4.219  18.813  0.00  0.00    +0.000 S 
BRANCH  16  18
ATOM     18  N   UNL     1       3.144   6.338  19.994  0.00  0.00    +0.000 N 
ATOM     19  H   UNL     1       4.000   6.554  20.494  0.00  0.00    +0.000 HD
BRANCH  18  20
ATOM     20  C   UNL     1       2.358   7.446  19.614  0.00  0.00    +0.000 A 
ATOM     21  C   UNL     1       2.354   7.926  18.301  0.00  0.00    +0.000 A 
ATOM     22  C   UNL     1       1.578   9.033  17.955  0.00  0.00    +0.000 A 
ATOM     23  C   UNL     1       0.795   9.656  18.921  0.00  0.00    +0.000 A 
ATOM     24 CL   UNL     1      -0.132  11.043  18.505  0.00  0.00    +0.000 Cl
ATOM     25  C   UNL     1       0.757   9.160  20.224  0.00  0.00    +0.000 A 
ATOM     26  C   UNL     1       1.525   8.041  20.566  0.00  0.00    +0.000 A 
ENDBRANCH  18  20
ENDBRANCH  16  18
ENDBRANCH  14  16
ENDBRANCH   3  14
TORSDOF 6
ENDMDL
MODEL 4
REMARK VINA RESULT:      -7.3      0.965      1.194
REMARK  Name = 
REMARK  6 active torsions:
REMARK  status: ('A' for Active; 'I' for Inactive)
REMARK    1  A    between atoms: C_2  and  C_15
REMARK    2  A    between atoms: N_3  and  N_4
REMARK    3  A    between atoms: N_4  and  C_5
REMARK    4  A    between atoms: C_5  and  N_7
REMARK    5  A    between atoms: N_7  and  C_8
REMARK    6  A    between atoms: C_17  and  N_18
REMARK                            x       y       z     vdW  Elec       q    Type
REMARK                         _______ _______ _______ _____ _____    ______ ____
ROOT
ATOM      1  O   UNL     1       2.991   3.833  16.941  0.00  0.00    +0.000 OA
ATOM      2  C   UNL     1       4.124   3.991  17.389  0.00  0.00    +0.000 C 
ATOM      3  N   UNL     1       4.407   3.969  18.735  0.00  0.00    +0.000 N 
ATOM      4  H   UNL     1       5.348   4.105  19.094  0.00  0.00    +0.000 HD
ENDROOT
BRANCH   2   5
ATOM      5  C   UNL     1       5.282   4.213  16.542  0.00  0.00    +0.000 A 
ATOM      6  C   UNL     1       5.389   4.363  15.167  0.00  0.00    +0.000 A 
ATOM      7  C   UNL     1       6.755   4.593  14.847  0.00  0.00    +0.000 A 
ATOM      8  C   UNL     1       7.454   4.575  16.039  0.00  0.00    +0.000 A 
ATOM      9  N   UNL     1       6.556   4.356  17.054  0.00  0.00    +0.000 N 
ATOM     10  H   UNL     1       6.777   4.307  18.041  0.00  0.00    +0.000 HD
BRANCH   7  11
ATOM     11  N   UNL     1       7.311   4.814  13.534  0.00  0.00    +0.000 N 
ATOM     12  O   UNL     1       8.222   5.646  13.450  0.00  0.00    +0.000 OA
ATOM     13  O   UNL     1       6.835   4.155  12.600  0.00  0.00    +0.000 OA
ENDBRANCH   7  11
ENDBRANCH   2   5
BRANCH   3  14
ATOM     14  N   UNL     1       3.478   3.453  19.647  0.00  0.00    +0.000 N 
ATOM     15  H   UNL     1       3.328   2.445  19.606  0.00  0.00    +0.000 HD
BRANCH  14  16
ATOM     16  C   UNL     1       2.485   4.285  20.157  0.00  0.00    +0.000 C 
ATOM     17  S   UNL     1       0.880   3.800  20.305  0.00  0.00    +0.000 S 
BRANCH  16  18
ATOM     18  N   UNL     1       2.980   5.565  20.376  0.00  0.00    +0.000 N 
ATOM     19  H   UNL     1       3.975   5.573  20.576  0.00  0.00    +0.000 HD
BRANCH  18  20
ATOM     20  C   UNL     1       2.444   6.770  19.874  0.00  0.00    +0.000 A 
ATOM     21  C   UNL     1       2.611   7.144  18.537  0.00  0.00    +0.000 A 
ATOM     22  C   UNL     1       2.082   8.349  18.070  0.00  0.00    +0.000 A 
ATOM     23  C   UNL     1       1.376   9.175  18.938  0.00  0.00    +0.000 A 
ATOM     24 CL   UNL     1       0.757  10.676  18.373  0.00  0.00    +0.000 Cl
ATOM     25  C   UNL     1       1.166   8.791  20.262  0.00  0.00    +0.000 A 
ATOM     26  C   UNL     1       1.684   7.576  20.726  0.00  0.00    +0.000 A 
ENDBRANCH  18  20
ENDBRANCH  16  18
ENDBRANCH  14  16
ENDBRANCH   3  14
TORSDOF 6
ENDMDL
MODEL 5
REMARK VINA RESULT:      -7.3      1.411      1.585
REMARK  Name = 
REMARK  6 active torsions:
REMARK  status: ('A' for Active; 'I' for Inactive)
REMARK    1  A    between atoms: C_2  and  C_15
REMARK    2  A    between atoms: N_3  and  N_4
REMARK    3  A    between atoms: N_4  and  C_5
REMARK    4  A    between atoms: C_5  and  N_7
REMARK    5  A    between atoms: N_7  and  C_8
REMARK    6  A    between atoms: C_17  and  N_18
REMARK                            x       y       z     vdW  Elec       q    Type
REMARK                         _______ _______ _______ _____ _____    ______ ____
ROOT
ATOM      1  O   UNL     1       6.846   4.459  18.504  0.00  0.00    +0.000 OA
ATOM      2  C   UNL     1       5.942   4.471  17.671  0.00  0.00    +0.000 C 
ATOM      3  N   UNL     1       4.610   4.450  18.011  0.00  0.00    +0.000 N 
ATOM      4  H   UNL     1       3.871   4.456  17.313  0.00  0.00    +0.000 HD
ENDROOT
BRANCH   2   5
ATOM      5  C   UNL     1       6.190   4.512  16.242  0.00  0.00    +0.000 A 
ATOM      6  C   UNL     1       7.226   5.080  15.513  0.00  0.00    +0.000 A 
ATOM      7  C   UNL     1       7.008   4.803  14.136  0.00  0.00    +0.000 A 
ATOM      8  C   UNL     1       5.839   4.072  14.054  0.00  0.00    +0.000 A 
ATOM      9  N   UNL     1       5.360   3.893  15.328  0.00  0.00    +0.000 N 
ATOM     10  H   UNL     1       4.523   3.382  15.582  0.00  0.00    +0.000 HD
BRANCH   7  11
ATOM     11  N   UNL     1       7.847   5.198  13.031  0.00  0.00    +0.000 N 
ATOM     12  O   UNL     1       7.547   4.748  11.918  0.00  0.00    +0.000 OA
ATOM     13  O   UNL     1       8.797   5.952  13.282  0.00  0.00    +0.000 OA
ENDBRANCH   7  11
ENDBRANCH   2   5
BRANCH   3  14
ATOM     14  N   UNL     1       4.207   4.734  19.322  0.00  0.00    +0.000 N 
ATOM     15  H   UNL     1       4.833   4.410  20.059  0.00  0.00    +0.000 HD
BRANCH  14  16
ATOM     16  C   UNL     1       2.857   4.937  19.595  0.00  0.00    +0.000 C 
ATOM     17  S   UNL     1       1.640   3.993  18.917  0.00  0.00    +0.000 S 
BRANCH  16  18
ATOM     18  N   UNL     1       2.677   6.082  20.363  0.00  0.00    +0.000 N 
ATOM     19  H   UNL     1       3.323   6.137  21.143  0.00  0.00    +0.000 HD
BRANCH  18  20
ATOM     20  C   UNL     1       2.134   7.308  19.926  0.00  0.00    +0.000 A 
ATOM     21  C   UNL     1       2.289   7.751  18.610  0.00  0.00    +0.000 A 
ATOM     22  C   UNL     1       1.753   8.976  18.208  0.00  0.00    +0.000 A 
ATOM     23  C   UNL     1       1.050   9.754  19.122  0.00  0.00    +0.000 A 
ATOM     24 CL   UNL     1       0.421  11.280  18.638  0.00  0.00    +0.000 Cl
ATOM     25  C   UNL     1       0.851   9.302  20.426  0.00  0.00    +0.000 A 
ATOM     26  C   UNL     1       1.377   8.067  20.824  0.00  0.00    +0.000 A 
ENDBRANCH  18  20
ENDBRANCH  16  18
ENDBRANCH  14  16
ENDBRANCH   3  14
TORSDOF 6
ENDMDL
MODEL 6
REMARK VINA RESULT:      -7.2      1.403      1.974
REMARK  Name = 
REMARK  6 active torsions:
REMARK  status: ('A' for Active; 'I' for Inactive)
REMARK    1  A    between atoms: C_2  and  C_15
REMARK    2  A    between atoms: N_3  and  N_4
REMARK    3  A    between atoms: N_4  and  C_5
REMARK    4  A    between atoms: C_5  and  N_7
REMARK    5  A    between atoms: N_7  and  C_8
REMARK    6  A    between atoms: C_17  and  N_18
REMARK                            x       y       z     vdW  Elec       q    Type
REMARK                         _______ _______ _______ _____ _____    ______ ____
ROOT
ATOM      1  O   UNL     1       6.772   4.719  18.631  0.00  0.00    +0.000 OA
ATOM      2  C   UNL     1       5.862   4.581  17.816  0.00  0.00    +0.000 C 
ATOM      3  N   UNL     1       4.547   4.419  18.183  0.00  0.00    +0.000 N 
ATOM      4  H   UNL     1       3.803   4.303  17.500  0.00  0.00    +0.000 HD
ENDROOT
BRANCH   2   5
ATOM      5  C   UNL     1       6.084   4.581  16.381  0.00  0.00    +0.000 A 
ATOM      6  C   UNL     1       7.138   5.070  15.622  0.00  0.00    +0.000 A 
ATOM      7  C   UNL     1       6.877   4.781  14.255  0.00  0.00    +0.000 A 
ATOM      8  C   UNL     1       5.662   4.124  14.210  0.00  0.00    +0.000 A 
ATOM      9  N   UNL     1       5.199   3.999  15.496  0.00  0.00    +0.000 N 
ATOM     10  H   UNL     1       4.337   3.546  15.775  0.00  0.00    +0.000 HD
BRANCH   7  11
ATOM     11  N   UNL     1       7.716   5.102  13.128  0.00  0.00    +0.000 N 
ATOM     12  O   UNL     1       8.602   5.945  13.318  0.00  0.00    +0.000 OA
ATOM     13  O   UNL     1       7.487   4.512  12.064  0.00  0.00    +0.000 OA
ENDBRANCH   7  11
ENDBRANCH   2   5
BRANCH   3  14
ATOM     14  N   UNL     1       4.131   4.718  19.486  0.00  0.00    +0.000 N 
ATOM     15  H   UNL     1       4.774   4.448  20.230  0.00  0.00    +0.000 HD
BRANCH  14  16
ATOM     16  C   UNL     1       2.772   4.858  19.757  0.00  0.00    +0.000 C 
ATOM     17  S   UNL     1       1.599   3.881  19.048  0.00  0.00    +0.000 S 
BRANCH  16  18
ATOM     18  N   UNL     1       2.542   5.974  20.552  0.00  0.00    +0.000 N 
ATOM     19  H   UNL     1       3.132   5.997  21.377  0.00  0.00    +0.000 HD
BRANCH  18  20
ATOM     20  C   UNL     1       2.032   7.218  20.125  0.00  0.00    +0.000 A 
ATOM     21  C   UNL     1       1.329   8.058  20.993  0.00  0.00    +0.000 A 
ATOM     22  C   UNL     1       0.822   9.277  20.541  0.00  0.00    +0.000 A 
ATOM     23  C   UNL     1       1.029   9.663  19.220  0.00  0.00    +0.000 A 
ATOM     24 CL   UNL     1       0.373  11.148  18.652  0.00  0.00    +0.000 Cl
ATOM     25  C   UNL     1       1.765   8.853  18.357  0.00  0.00    +0.000 A 
ATOM     26  C   UNL     1       2.286   7.637  18.816  0.00  0.00    +0.000 A 
ENDBRANCH  18  20
ENDBRANCH  16  18
ENDBRANCH  14  16
ENDBRANCH   3  14
TORSDOF 6
ENDMDL
MODEL 7
REMARK VINA RESULT:      -7.2      0.982      1.564
REMARK  Name = 
REMARK  6 active torsions:
REMARK  status: ('A' for Active; 'I' for Inactive)
REMARK    1  A    between atoms: C_2  and  C_15
REMARK    2  A    between atoms: N_3  and  N_4
REMARK    3  A    between atoms: N_4  and  C_5
REMARK    4  A    between atoms: C_5  and  N_7
REMARK    5  A    between atoms: N_7  and  C_8
REMARK    6  A    between atoms: C_17  and  N_18
REMARK                            x       y       z     vdW  Elec       q    Type
REMARK                         _______ _______ _______ _____ _____    ______ ____
ROOT
ATOM      1  O   UNL     1       3.110   3.515  16.861  0.00  0.00    +0.000 OA
ATOM      2  C   UNL     1       4.195   3.954  17.237  0.00  0.00    +0.000 C 
ATOM      3  N   UNL     1       4.483   4.206  18.558  0.00  0.00    +0.000 N 
ATOM      4  H   UNL     1       5.382   4.572  18.857  0.00  0.00    +0.000 HD
ENDROOT
BRANCH   2   5
ATOM      5  C   UNL     1       5.285   4.247  16.325  0.00  0.00    +0.000 A 
ATOM      6  C   UNL     1       5.359   4.174  14.941  0.00  0.00    +0.000 A 
ATOM      7  C   UNL     1       6.652   4.608  14.538  0.00  0.00    +0.000 A 
ATOM      8  C   UNL     1       7.341   4.933  15.691  0.00  0.00    +0.000 A 
ATOM      9  N   UNL     1       6.506   4.723  16.759  0.00  0.00    +0.000 N 
ATOM     10  H   UNL     1       6.733   4.890  17.732  0.00  0.00    +0.000 HD
BRANCH   7  11
ATOM     11  N   UNL     1       7.152   4.701  13.189  0.00  0.00    +0.000 N 
ATOM     12  O   UNL     1       7.955   5.613  12.957  0.00  0.00    +0.000 OA
ATOM     13  O   UNL     1       6.740   3.865  12.373  0.00  0.00    +0.000 OA
ENDBRANCH   7  11
ENDBRANCH   2   5
BRANCH   3  14
ATOM     14  N   UNL     1       3.674   3.681  19.573  0.00  0.00    +0.000 N 
ATOM     15  H   UNL     1       3.670   2.665  19.659  0.00  0.00    +0.000 HD
BRANCH  14  16
ATOM     16  C   UNL     1       2.590   4.423  20.037  0.00  0.00    +0.000 C 
ATOM     17  S   UNL     1       1.014   3.832  20.031  0.00  0.00    +0.000 S 
BRANCH  16  18
ATOM     18  N   UNL     1       2.980   5.719  20.353  0.00  0.00    +0.000 N 
ATOM     19  H   UNL     1       3.962   5.784  20.602  0.00  0.00    +0.000 HD
BRANCH  18  20
ATOM     20  C   UNL     1       2.381   6.911  19.895  0.00  0.00    +0.000 A 
ATOM     21  C   UNL     1       1.699   7.768  20.763  0.00  0.00    +0.000 A 
ATOM     22  C   UNL     1       1.103   8.934  20.281  0.00  0.00    +0.000 A 
ATOM     23  C   UNL     1       1.199   9.250  18.929  0.00  0.00    +0.000 A 
ATOM     24 CL   UNL     1       0.433  10.667  18.327  0.00  0.00    +0.000 Cl
ATOM     25  C   UNL     1       1.914   8.425  18.062  0.00  0.00    +0.000 A 
ATOM     26  C   UNL     1       2.524   7.263  18.549  0.00  0.00    +0.000 A 
ENDBRANCH  18  20
ENDBRANCH  16  18
ENDBRANCH  14  16
ENDBRANCH   3  14
TORSDOF 6
ENDMDL
MODEL 8
REMARK VINA RESULT:      -7.2      1.689      2.176
REMARK  Name = 
REMARK  6 active torsions:
REMARK  status: ('A' for Active; 'I' for Inactive)
REMARK    1  A    between atoms: C_2  and  C_15
REMARK    2  A    between atoms: N_3  and  N_4
REMARK    3  A    between atoms: N_4  and  C_5
REMARK    4  A    between atoms: C_5  and  N_7
REMARK    5  A    between atoms: N_7  and  C_8
REMARK    6  A    between atoms: C_17  and  N_18
REMARK                            x       y       z     vdW  Elec       q    Type
REMARK                         _______ _______ _______ _____ _____    ______ ____
ROOT
ATOM      1  O   UNL     1       7.226   4.917  18.458  0.00  0.00    +0.000 OA
ATOM      2  C   UNL     1       6.467   4.346  17.678  0.00  0.00    +0.000 C 
ATOM      3  N   UNL     1       5.408   3.575  18.093  0.00  0.00    +0.000 N 
ATOM      4  H   UNL     1       4.789   3.104  17.439  0.00  0.00    +0.000 HD
ENDROOT
BRANCH   2   5
ATOM      5  C   UNL     1       6.610   4.434  16.236  0.00  0.00    +0.000 A 
ATOM      6  C   UNL     1       6.054   3.671  15.218  0.00  0.00    +0.000 A 
ATOM      7  C   UNL     1       6.491   4.201  13.973  0.00  0.00    +0.000 A 
ATOM      8  C   UNL     1       7.310   5.276  14.261  0.00  0.00    +0.000 A 
ATOM      9  N   UNL     1       7.365   5.414  15.625  0.00  0.00    +0.000 N 
ATOM     10  H   UNL     1       7.879   6.127  16.129  0.00  0.00    +0.000 HD
BRANCH   7  11
ATOM     11  N   UNL     1       6.144   3.719  12.659  0.00  0.00    +0.000 N 
ATOM     12  O   UNL     1       7.042   3.731  11.808  0.00  0.00    +0.000 OA
ATOM     13  O   UNL     1       4.980   3.333  12.485  0.00  0.00    +0.000 OA
ENDBRANCH   7  11
ENDBRANCH   2   5
BRANCH   3  14
ATOM     14  N   UNL     1       4.947   3.653  19.413  0.00  0.00    +0.000 N 
ATOM     15  H   UNL     1       5.554   3.241  20.121  0.00  0.00    +0.000 HD
BRANCH  14  16
ATOM     16  C   UNL     1       3.582   3.782  19.656  0.00  0.00    +0.000 C 
ATOM     17  S   UNL     1       2.768   2.843  20.791  0.00  0.00    +0.000 S 
BRANCH  16  18
ATOM     18  N   UNL     1       3.003   4.662  18.749  0.00  0.00    +0.000 N 
ATOM     19  H   UNL     1       2.550   4.188  17.975  0.00  0.00    +0.000 HD
BRANCH  18  20
ATOM     20  C   UNL     1       2.545   5.968  19.024  0.00  0.00    +0.000 A 
ATOM     21  C   UNL     1       2.567   6.971  18.050  0.00  0.00    +0.000 A 
ATOM     22  C   UNL     1       2.122   8.259  18.352  0.00  0.00    +0.000 A 
ATOM     23  C   UNL     1       1.643   8.542  19.627  0.00  0.00    +0.000 A 
ATOM     24 CL   UNL     1       1.129  10.138  20.011  0.00  0.00    +0.000 Cl
ATOM     25  C   UNL     1       1.575   7.539  20.593  0.00  0.00    +0.000 A 
ATOM     26  C   UNL     1       2.008   6.244  20.285  0.00  0.00    +0.000 A 
ENDBRANCH  18  20
ENDBRANCH  16  18
ENDBRANCH  14  16
ENDBRANCH   3  14
TORSDOF 6
ENDMDL
MODEL 9
REMARK VINA RESULT:      -7.2      4.456      8.162
REMARK  Name = 
REMARK  6 active torsions:
REMARK  status: ('A' for Active; 'I' for Inactive)
REMARK    1  A    between atoms: C_2  and  C_15
REMARK    2  A    between atoms: N_3  and  N_4
REMARK    3  A    between atoms: N_4  and  C_5
REMARK    4  A    between atoms: C_5  and  N_7
REMARK    5  A    between atoms: N_7  and  C_8
REMARK    6  A    between atoms: C_17  and  N_18
REMARK                            x       y       z     vdW  Elec       q    Type
REMARK                         _______ _______ _______ _____ _____    ______ ____
ROOT
ATOM      1  O   UNL     1       2.511   7.799  18.298  0.00  0.00    +0.000 OA
ATOM      2  C   UNL     1       2.207   7.603  19.473  0.00  0.00    +0.000 C 
ATOM      3  N   UNL     1       2.650   6.516  20.190  0.00  0.00    +0.000 N 
ATOM      4  H   UNL     1       2.388   6.362  21.160  0.00  0.00    +0.000 HD
ENDROOT
BRANCH   2   5
ATOM      5  C   UNL     1       1.352   8.503  20.225  0.00  0.00    +0.000 A 
ATOM      6  C   UNL     1       1.071   8.570  21.583  0.00  0.00    +0.000 A 
ATOM      7  C   UNL     1       0.194   9.667  21.805  0.00  0.00    +0.000 A 
ATOM      8  C   UNL     1      -0.044  10.244  20.572  0.00  0.00    +0.000 A 
ATOM      9  N   UNL     1       0.667   9.543  19.630  0.00  0.00    +0.000 N 
ATOM     10  H   UNL     1       0.698   9.745  18.638  0.00  0.00    +0.000 HD
BRANCH   7  11
ATOM     11  N   UNL     1      -0.342  10.104  23.070  0.00  0.00    +0.000 N 
ATOM     12  O   UNL     1       0.236   9.700  24.086  0.00  0.00    +0.000 OA
ATOM     13  O   UNL     1      -1.333  10.846  23.040  0.00  0.00    +0.000 OA
ENDBRANCH   7  11
ENDBRANCH   2   5
BRANCH   3  14
ATOM     14  N   UNL     1       3.720   5.745  19.721  0.00  0.00    +0.000 N 
ATOM     15  H   UNL     1       4.343   6.205  19.058  0.00  0.00    +0.000 HD
BRANCH  14  16
ATOM     16  C   UNL     1       3.621   4.356  19.734  0.00  0.00    +0.000 C 
ATOM     17  S   UNL     1       2.353   3.542  20.484  0.00  0.00    +0.000 S 
BRANCH  16  18
ATOM     18  N   UNL     1       4.758   3.776  19.183  0.00  0.00    +0.000 N 
ATOM     19  H   UNL     1       4.931   2.840  19.533  0.00  0.00    +0.000 HD
BRANCH  18  20
ATOM     20  C   UNL     1       5.333   4.081  17.931  0.00  0.00    +0.000 A 
ATOM     21  C   UNL     1       4.609   3.955  16.742  0.00  0.00    +0.000 A 
ATOM     22  C   UNL     1       5.207   4.249  15.516  0.00  0.00    +0.000 A 
ATOM     23  C   UNL     1       6.528   4.683  15.479  0.00  0.00    +0.000 A 
ATOM     24 CL   UNL     1       7.277   5.010  13.966  0.00  0.00    +0.000 Cl
ATOM     25  C   UNL     1       7.247   4.854  16.662  0.00  0.00    +0.000 A 
ATOM     26  C   UNL     1       6.642   4.572  17.892  0.00  0.00    +0.000 A 
ENDBRANCH  18  20
ENDBRANCH  16  18
ENDBRANCH  14  16
ENDBRANCH   3  14
TORSDOF 6
ENDMDL
