MODEL 1
REMARK VINA RESULT:      -7.3      0.000      0.000
REMARK  Name = 
REMARK  5 active torsions:
REMARK  status: ('A' for Active; 'I' for Inactive)
REMARK    1  A    between atoms: N_12  and  C_13
REMARK    2  A    between atoms: N_16  and  C_17
REMARK    3  A    between atoms: N_23  and  C_24
REMARK    4  A    between atoms: C_27  and  C_28
REMARK    5  A    between atoms: C_28  and  O_29
REMARK                            x       y       z     vdW  Elec       q    Type
REMARK                         _______ _______ _______ _____ _____    ______ ____
ROOT
ATOM      1  C   UNL     1       5.567   4.396  17.287  0.00  0.00    +0.000 A 
ATOM      2  N   UNL     1       6.334   5.457  17.607  0.00  0.00    +0.000 NA
ATOM      3  C   UNL     1       7.046   6.080  16.629  0.00  0.00    +0.000 A 
ATOM      4  N   UNL     1       7.852   7.203  16.876  0.00  0.00    +0.000 N 
ATOM      5  C   UNL     1       6.978   5.543  15.330  0.00  0.00    +0.000 A 
ATOM      6  N   UNL     1       7.590   5.901  14.147  0.00  0.00    +0.000 NA
ATOM      7  C   UNL     1       7.180   5.008  13.271  0.00  0.00    +0.000 A 
ATOM      8  N   UNL     1       6.354   4.071  13.842  0.00  0.00    +0.000 N 
ATOM      9  C   UNL     1       6.161   4.447  15.146  0.00  0.00    +0.000 A 
ATOM     10  N   UNL     1       5.385   3.860  16.064  0.00  0.00    +0.000 NA
ATOM     11  H   UNL     1       8.144   7.646  16.008  0.00  0.00    +0.000 HD
ENDROOT
BRANCH   1  23
ATOM     12  O   UNL     1       3.429   2.829  20.681  0.00  0.00    +0.000 OA
ATOM     13  C   UNL     1       3.249   3.932  20.217  0.00  0.00    +0.000 C 
ATOM     14  N   UNL     1       2.456   4.937  20.725  0.00  0.00    +0.000 N 
ATOM     15  C   UNL     1       2.472   6.053  19.901  0.00  0.00    +0.000 A 
ATOM     16  C   UNL     1       1.786   7.234  20.116  0.00  0.00    +0.000 A 
ATOM     17  C   UNL     1       1.927   8.246  19.163  0.00  0.00    +0.000 A 
ATOM     18  C   UNL     1       2.700   8.028  18.018  0.00  0.00    +0.000 A 
ATOM     19  F   UNL     1       2.833   9.016  17.122  0.00  0.00    +0.000 F 
ATOM     20  C   UNL     1       3.350   6.818  17.791  0.00  0.00    +0.000 A 
ATOM     21  C   UNL     1       3.275   5.850  18.774  0.00  0.00    +0.000 A 
ATOM     22  C   UNL     1       3.893   4.518  18.939  0.00  0.00    +0.000 C 
ATOM     23  N   UNL     1       4.820   3.857  18.325  0.00  0.00    +0.000 NA
ATOM     24  H   UNL     1       1.930   4.830  21.580  0.00  0.00    +0.000 HD
ENDBRANCH   1  23
BRANCH   8  25
ATOM     25  C   UNL     1       5.807   2.893  13.197  0.00  0.00    +0.000 C 
ATOM     26  C   UNL     1       4.642   3.226  12.322  0.00  0.00    +0.000 C 
ATOM     27  C   UNL     1       4.749   2.684  11.107  0.00  0.00    +0.000 C 
ATOM     28  C   UNL     1       5.992   1.854  10.953  0.00  0.00    +0.000 C 
ATOM     29  C   UNL     1       6.786   2.181  12.234  0.00  0.00    +0.000 C 
BRANCH  28  30
ATOM     30  C   UNL     1       5.685   0.359  10.818  0.00  0.00    +0.000 C 
BRANCH  30  31
ATOM     31  O   UNL     1       6.589  -0.417  11.599  0.00  0.00    +0.000 OA
ATOM     32  H   UNL     1       6.161  -1.276  11.771  0.00  0.00    +0.000 HD
ENDBRANCH  30  31
ENDBRANCH  28  30
ENDBRANCH   8  25
BRANCH   4  33
ATOM     33  C   UNL     1       7.740   7.981  18.097  0.00  0.00    +0.000 C 
ATOM     34  C   UNL     1       8.931   8.698  18.666  0.00  0.00    +0.000 C 
ATOM     35  C   UNL     1       7.833   9.483  18.015  0.00  0.00    +0.000 C 
ENDBRANCH   4  33
TORSDOF 5
ENDMDL
MODEL 2
REMARK VINA RESULT:      -7.1      7.142     10.383
REMARK  Name = 
REMARK  5 active torsions:
REMARK  status: ('A' for Active; 'I' for Inactive)
REMARK    1  A    between atoms: N_12  and  C_13
REMARK    2  A    between atoms: N_16  and  C_17
REMARK    3  A    between atoms: N_23  and  C_24
REMARK    4  A    between atoms: C_27  and  C_28
REMARK    5  A    between atoms: C_28  and  O_29
REMARK                            x       y       z     vdW  Elec       q    Type
REMARK                         _______ _______ _______ _____ _____    ______ ____
ROOT
ATOM      1  C   UNL     1      -1.105  12.658  20.400  0.00  0.00    +0.000 A 
ATOM      2  N   UNL     1      -0.574  13.871  20.150  0.00  0.00    +0.000 NA
ATOM      3  C   UNL     1       0.529  13.962  19.357  0.00  0.00    +0.000 A 
ATOM      4  N   UNL     1       1.130  15.189  19.033  0.00  0.00    +0.000 N 
ATOM      5  C   UNL     1       1.087  12.763  18.876  0.00  0.00    +0.000 A 
ATOM      6  N   UNL     1       2.197  12.505  18.098  0.00  0.00    +0.000 NA
ATOM      7  C   UNL     1       2.248  11.193  18.008  0.00  0.00    +0.000 A 
ATOM      8  N   UNL     1       1.238  10.589  18.717  0.00  0.00    +0.000 N 
ATOM      9  C   UNL     1       0.446  11.590  19.218  0.00  0.00    +0.000 A 
ATOM     10  N   UNL     1      -0.683  11.469  19.925  0.00  0.00    +0.000 NA
ATOM     11  H   UNL     1       1.808  15.080  18.283  0.00  0.00    +0.000 HD
ENDROOT
BRANCH   1  23
ATOM     12  O   UNL     1      -4.734  12.906  22.704  0.00  0.00    +0.000 OA
ATOM     13  C   UNL     1      -4.700  12.672  21.518  0.00  0.00    +0.000 C 
ATOM     14  N   UNL     1      -5.766  12.571  20.651  0.00  0.00    +0.000 N 
ATOM     15  C   UNL     1      -5.340  12.260  19.368  0.00  0.00    +0.000 A 
ATOM     16  C   UNL     1      -6.151  12.085  18.261  0.00  0.00    +0.000 A 
ATOM     17  C   UNL     1      -5.531  11.769  17.050  0.00  0.00    +0.000 A 
ATOM     18  C   UNL     1      -4.144  11.593  16.997  0.00  0.00    +0.000 A 
ATOM     19  F   UNL     1      -3.567  11.301  15.823  0.00  0.00    +0.000 F 
ATOM     20  C   UNL     1      -3.344  11.727  18.128  0.00  0.00    +0.000 A 
ATOM     21  C   UNL     1      -3.950  12.120  19.306  0.00  0.00    +0.000 A 
ATOM     22  C   UNL     1      -3.438  12.456  20.650  0.00  0.00    +0.000 C 
ATOM     23  N   UNL     1      -2.266  12.653  21.160  0.00  0.00    +0.000 NA
ATOM     24  H   UNL     1      -6.721  12.694  20.954  0.00  0.00    +0.000 HD
ENDBRANCH   1  23
BRANCH   8  25
ATOM     25  C   UNL     1       1.055   9.166  18.919  0.00  0.00    +0.000 C 
ATOM     26  C   UNL     1       1.838   8.357  17.936  0.00  0.00    +0.000 C 
ATOM     27  C   UNL     1       2.547   7.392  18.524  0.00  0.00    +0.000 C 
ATOM     28  C   UNL     1       2.344   7.351  20.011  0.00  0.00    +0.000 C 
ATOM     29  C   UNL     1       1.555   8.647  20.287  0.00  0.00    +0.000 C 
BRANCH  28  30
ATOM     30  C   UNL     1       1.589   6.096  20.464  0.00  0.00    +0.000 C 
BRANCH  30  31
ATOM     31  O   UNL     1       2.452   5.214  21.175  0.00  0.00    +0.000 OA
ATOM     32  H   UNL     1       2.244   5.305  22.123  0.00  0.00    +0.000 HD
ENDBRANCH  30  31
ENDBRANCH  28  30
ENDBRANCH   8  25
BRANCH   4  33
ATOM     33  C   UNL     1       0.453  16.458  19.234  0.00  0.00    +0.000 C 
ATOM     34  C   UNL     1       1.153  17.757  18.950  0.00  0.00    +0.000 C 
ATOM     35  C   UNL     1       0.070  17.279  18.029  0.00  0.00    +0.000 C 
ENDBRANCH   4  33
TORSDOF 5
ENDMDL
MODEL 3
REMARK VINA RESULT:      -7.1     10.188     12.582
REMARK  Name = 
REMARK  5 active torsions:
REMARK  status: ('A' for Active; 'I' for Inactive)
REMARK    1  A    between atoms: N_12  and  C_13
REMARK    2  A    between atoms: N_16  and  C_17
REMARK    3  A    between atoms: N_23  and  C_24
REMARK    4  A    between atoms: C_27  and  C_28
REMARK    5  A    between atoms: C_28  and  O_29
REMARK                            x       y       z     vdW  Elec       q    Type
REMARK                         _______ _______ _______ _____ _____    ______ ____
ROOT
ATOM      1  C   UNL     1       0.207  14.075  20.442  0.00  0.00    +0.000 A 
ATOM      2  N   UNL     1      -0.239  14.510  21.638  0.00  0.00    +0.000 NA
ATOM      3  C   UNL     1      -1.479  14.138  22.058  0.00  0.00    +0.000 A 
ATOM      4  N   UNL     1      -2.008  14.531  23.298  0.00  0.00    +0.000 N 
ATOM      5  C   UNL     1      -2.254  13.350  21.187  0.00  0.00    +0.000 A 
ATOM      6  N   UNL     1      -3.534  12.845  21.287  0.00  0.00    +0.000 NA
ATOM      7  C   UNL     1      -3.741  12.220  20.147  0.00  0.00    +0.000 A 
ATOM      8  N   UNL     1      -2.662  12.324  19.302  0.00  0.00    +0.000 N 
ATOM      9  C   UNL     1      -1.677  12.986  19.988  0.00  0.00    +0.000 A 
ATOM     10  N   UNL     1      -0.434  13.263  19.579  0.00  0.00    +0.000 NA
ATOM     11  H   UNL     1      -2.849  14.005  23.524  0.00  0.00    +0.000 HD
ENDROOT
BRANCH   1  23
ATOM     12  O   UNL     1       4.215  15.050  19.207  0.00  0.00    +0.000 OA
ATOM     13  C   UNL     1       3.230  15.653  18.846  0.00  0.00    +0.000 C 
ATOM     14  N   UNL     1       3.156  16.651  17.900  0.00  0.00    +0.000 N 
ATOM     15  C   UNL     1       1.859  17.128  17.776  0.00  0.00    +0.000 A 
ATOM     16  C   UNL     1       1.438  18.129  16.920  0.00  0.00    +0.000 A 
ATOM     17  C   UNL     1       0.085  18.474  16.945  0.00  0.00    +0.000 A 
ATOM     18  C   UNL     1      -0.782  17.848  17.847  0.00  0.00    +0.000 A 
ATOM     19  F   UNL     1      -2.079  18.185  17.847  0.00  0.00    +0.000 F 
ATOM     20  C   UNL     1      -0.337  16.874  18.735  0.00  0.00    +0.000 A 
ATOM     21  C   UNL     1       0.984  16.477  18.652  0.00  0.00    +0.000 A 
ATOM     22  C   UNL     1       1.778  15.434  19.333  0.00  0.00    +0.000 C 
ATOM     23  N   UNL     1       1.505  14.440  20.114  0.00  0.00    +0.000 NA
ATOM     24  H   UNL     1       3.968  16.980  17.399  0.00  0.00    +0.000 HD
ENDBRANCH   1  23
BRANCH   8  25
ATOM     25  C   UNL     1      -2.586  11.847  17.935  0.00  0.00    +0.000 C 
ATOM     26  C   UNL     1      -1.844  10.553  17.837  0.00  0.00    +0.000 C 
ATOM     27  C   UNL     1      -2.506   9.642  17.121  0.00  0.00    +0.000 C 
ATOM     28  C   UNL     1      -3.801  10.169  16.574  0.00  0.00    +0.000 C 
ATOM     29  C   UNL     1      -3.955  11.522  17.296  0.00  0.00    +0.000 C 
BRANCH  28  30
ATOM     30  C   UNL     1      -3.776  10.316  15.049  0.00  0.00    +0.000 C 
BRANCH  30  31
ATOM     31  O   UNL     1      -2.443  10.238  14.553  0.00  0.00    +0.000 OA
ATOM     32  H   UNL     1      -2.098  11.147  14.502  0.00  0.00    +0.000 HD
ENDBRANCH  30  31
ENDBRANCH  28  30
ENDBRANCH   8  25
BRANCH   4  33
ATOM     33  C   UNL     1      -1.176  15.076  24.356  0.00  0.00    +0.000 C 
ATOM     34  C   UNL     1      -1.339  16.499  24.809  0.00  0.00    +0.000 C 
ATOM     35  C   UNL     1      -1.802  15.380  25.692  0.00  0.00    +0.000 C 
ENDBRANCH   4  33
TORSDOF 5
ENDMDL
MODEL 4
REMARK VINA RESULT:      -7.0      8.725     13.265
REMARK  Name = 
REMARK  5 active torsions:
REMARK  status: ('A' for Active; 'I' for Inactive)
REMARK    1  A    between atoms: N_12  and  C_13
REMARK    2  A    between atoms: N_16  and  C_17
REMARK    3  A    between atoms: N_23  and  C_24
REMARK    4  A    between atoms: C_27  and  C_28
REMARK    5  A    between atoms: C_28  and  O_29
REMARK                            x       y       z     vdW  Elec       q    Type
REMARK                         _______ _______ _______ _____ _____    ______ ____
ROOT
ATOM      1  C   UNL     1      -1.410  12.595  22.999  0.00  0.00    +0.000 A 
ATOM      2  N   UNL     1      -1.074  13.740  23.625  0.00  0.00    +0.000 NA
ATOM      3  C   UNL     1      -2.017  14.707  23.792  0.00  0.00    +0.000 A 
ATOM      4  N   UNL     1      -1.752  15.919  24.451  0.00  0.00    +0.000 N 
ATOM      5  C   UNL     1      -3.295  14.472  23.251  0.00  0.00    +0.000 A 
ATOM      6  N   UNL     1      -4.439  15.241  23.212  0.00  0.00    +0.000 NA
ATOM      7  C   UNL     1      -5.308  14.519  22.536  0.00  0.00    +0.000 A 
ATOM      8  N   UNL     1      -4.767  13.330  22.110  0.00  0.00    +0.000 N 
ATOM      9  C   UNL     1      -3.498  13.260  22.625  0.00  0.00    +0.000 A 
ATOM     10  N   UNL     1      -2.621  12.255  22.515  0.00  0.00    +0.000 NA
ATOM     11  H   UNL     1      -2.612  16.424  24.653  0.00  0.00    +0.000 HD
ENDROOT
BRANCH   1  23
ATOM     12  O   UNL     1       1.495   9.421  22.837  0.00  0.00    +0.000 OA
ATOM     13  C   UNL     1       0.827   9.776  21.893  0.00  0.00    +0.000 C 
ATOM     14  N   UNL     1       0.748   9.186  20.651  0.00  0.00    +0.000 N 
ATOM     15  C   UNL     1      -0.102   9.894  19.813  0.00  0.00    +0.000 A 
ATOM     16  C   UNL     1      -0.402   9.576  18.501  0.00  0.00    +0.000 A 
ATOM     17  C   UNL     1      -1.280  10.419  17.817  0.00  0.00    +0.000 A 
ATOM     18  C   UNL     1      -1.784  11.564  18.444  0.00  0.00    +0.000 A 
ATOM     19  F   UNL     1      -2.635  12.354  17.775  0.00  0.00    +0.000 F 
ATOM     20  C   UNL     1      -1.438  11.897  19.750  0.00  0.00    +0.000 A 
ATOM     21  C   UNL     1      -0.635  11.019  20.451  0.00  0.00    +0.000 A 
ATOM     22  C   UNL     1      -0.149  10.975  21.845  0.00  0.00    +0.000 C 
ATOM     23  N   UNL     1      -0.414  11.632  22.927  0.00  0.00    +0.000 NA
ATOM     24  H   UNL     1       1.273   8.357  20.413  0.00  0.00    +0.000 HD
ENDBRANCH   1  23
BRANCH   8  25
ATOM     25  C   UNL     1      -5.405  12.346  21.258  0.00  0.00    +0.000 C 
ATOM     26  C   UNL     1      -6.883  12.294  21.476  0.00  0.00    +0.000 C 
ATOM     27  C   UNL     1      -7.566  12.343  20.331  0.00  0.00    +0.000 C 
ATOM     28  C   UNL     1      -6.670  12.402  19.126  0.00  0.00    +0.000 C 
ATOM     29  C   UNL     1      -5.277  12.635  19.744  0.00  0.00    +0.000 C 
BRANCH  28  30
ATOM     30  C   UNL     1      -6.734  11.122  18.287  0.00  0.00    +0.000 C 
BRANCH  30  31
ATOM     31  O   UNL     1      -5.750  11.141  17.257  0.00  0.00    +0.000 OA
ATOM     32  H   UNL     1      -5.169  11.905  17.424  0.00  0.00    +0.000 HD
ENDBRANCH  30  31
ENDBRANCH  28  30
ENDBRANCH   8  25
BRANCH   4  33
ATOM     33  C   UNL     1      -0.576  16.105  25.283  0.00  0.00    +0.000 C 
ATOM     34  C   UNL     1      -0.377  17.374  26.061  0.00  0.00    +0.000 C 
ATOM     35  C   UNL     1      -0.738  16.110  26.781  0.00  0.00    +0.000 C 
ENDBRANCH   4  33
TORSDOF 5
ENDMDL
MODEL 5
REMARK VINA RESULT:      -6.9     10.005     12.378
REMARK  Name = 
REMARK  5 active torsions:
REMARK  status: ('A' for Active; 'I' for Inactive)
REMARK    1  A    between atoms: N_12  and  C_13
REMARK    2  A    between atoms: N_16  and  C_17
REMARK    3  A    between atoms: N_23  and  C_24
REMARK    4  A    between atoms: C_27  and  C_28
REMARK    5  A    between atoms: C_28  and  O_29
REMARK                            x       y       z     vdW  Elec       q    Type
REMARK                         _______ _______ _______ _____ _____    ______ ____
ROOT
ATOM      1  C   UNL     1      -0.817  13.277  21.120  0.00  0.00    +0.000 A 
ATOM      2  N   UNL     1      -1.616  13.775  22.085  0.00  0.00    +0.000 NA
ATOM      3  C   UNL     1      -2.964  13.616  21.978  0.00  0.00    +0.000 A 
ATOM      4  N   UNL     1      -3.862  14.087  22.949  0.00  0.00    +0.000 N 
ATOM      5  C   UNL     1      -3.455  12.975  20.825  0.00  0.00    +0.000 A 
ATOM      6  N   UNL     1      -4.736  12.693  20.398  0.00  0.00    +0.000 NA
ATOM      7  C   UNL     1      -4.581  12.117  19.224  0.00  0.00    +0.000 A 
ATOM      8  N   UNL     1      -3.258  12.041  18.860  0.00  0.00    +0.000 N 
ATOM      9  C   UNL     1      -2.524  12.524  19.912  0.00  0.00    +0.000 A 
ATOM     10  N   UNL     1      -1.193  12.589  20.025  0.00  0.00    +0.000 NA
ATOM     11  H   UNL     1      -4.795  13.710  22.802  0.00  0.00    +0.000 HD
ENDROOT
BRANCH   1  23
ATOM     12  O   UNL     1       3.455  13.550  21.580  0.00  0.00    +0.000 OA
ATOM     13  C   UNL     1       2.806  14.266  20.852  0.00  0.00    +0.000 C 
ATOM     14  N   UNL     1       3.276  15.194  19.950  0.00  0.00    +0.000 N 
ATOM     15  C   UNL     1       2.230  15.849  19.315  0.00  0.00    +0.000 A 
ATOM     16  C   UNL     1       2.351  16.838  18.356  0.00  0.00    +0.000 A 
ATOM     17  C   UNL     1       1.174  17.382  17.837  0.00  0.00    +0.000 A 
ATOM     18  C   UNL     1      -0.068  16.960  18.323  0.00  0.00    +0.000 A 
ATOM     19  F   UNL     1      -1.186  17.486  17.804  0.00  0.00    +0.000 F 
ATOM     20  C   UNL     1      -0.175  15.996  19.321  0.00  0.00    +0.000 A 
ATOM     21  C   UNL     1       0.987  15.401  19.774  0.00  0.00    +0.000 A 
ATOM     22  C   UNL     1       1.265  14.303  20.722  0.00  0.00    +0.000 C 
ATOM     23  N   UNL     1       0.546  13.419  21.335  0.00  0.00    +0.000 NA
ATOM     24  H   UNL     1       4.261  15.361  19.811  0.00  0.00    +0.000 HD
ENDBRANCH   1  23
BRANCH   8  25
ATOM     25  C   UNL     1      -2.736  11.564  17.595  0.00  0.00    +0.000 C 
ATOM     26  C   UNL     1      -2.084  10.226  17.729  0.00  0.00    +0.000 C 
ATOM     27  C   UNL     1      -2.505   9.361  16.804  0.00  0.00    +0.000 C 
ATOM     28  C   UNL     1      -3.494   9.972  15.852  0.00  0.00    +0.000 C 
ATOM     29  C   UNL     1      -3.811  11.330  16.509  0.00  0.00    +0.000 C 
BRANCH  28  30
ATOM     30  C   UNL     1      -2.927  10.122  14.436  0.00  0.00    +0.000 C 
BRANCH  30  31
ATOM     31  O   UNL     1      -3.964  10.040  13.463  0.00  0.00    +0.000 OA
ATOM     32  H   UNL     1      -3.717   9.338  12.834  0.00  0.00    +0.000 HD
ENDBRANCH  30  31
ENDBRANCH  28  30
ENDBRANCH   8  25
BRANCH   4  33
ATOM     33  C   UNL     1      -3.428  14.479  24.278  0.00  0.00    +0.000 C 
ATOM     34  C   UNL     1      -2.590  15.708  24.483  0.00  0.00    +0.000 C 
ATOM     35  C   UNL     1      -4.028  15.711  24.906  0.00  0.00    +0.000 C 
ENDBRANCH   4  33
TORSDOF 5
ENDMDL
MODEL 6
REMARK VINA RESULT:      -6.9     10.085     14.555
REMARK  Name = 
REMARK  5 active torsions:
REMARK  status: ('A' for Active; 'I' for Inactive)
REMARK    1  A    between atoms: N_12  and  C_13
REMARK    2  A    between atoms: N_16  and  C_17
REMARK    3  A    between atoms: N_23  and  C_24
REMARK    4  A    between atoms: C_27  and  C_28
REMARK    5  A    between atoms: C_28  and  O_29
REMARK                            x       y       z     vdW  Elec       q    Type
REMARK                         _______ _______ _______ _____ _____    ______ ____
ROOT
ATOM      1  C   UNL     1       0.030  13.987  19.927  0.00  0.00    +0.000 A 
ATOM      2  N   UNL     1      -0.614  13.074  19.173  0.00  0.00    +0.000 NA
ATOM      3  C   UNL     1      -1.923  12.805  19.430  0.00  0.00    +0.000 A 
ATOM      4  N   UNL     1      -2.670  11.884  18.678  0.00  0.00    +0.000 N 
ATOM      5  C   UNL     1      -2.524  13.470  20.516  0.00  0.00    +0.000 A 
ATOM      6  N   UNL     1      -3.791  13.401  21.056  0.00  0.00    +0.000 NA
ATOM      7  C   UNL     1      -3.763  14.218  22.088  0.00  0.00    +0.000 A 
ATOM      8  N   UNL     1      -2.525  14.790  22.256  0.00  0.00    +0.000 N 
ATOM      9  C   UNL     1      -1.744  14.372  21.209  0.00  0.00    +0.000 A 
ATOM     10  N   UNL     1      -0.482  14.721  20.934  0.00  0.00    +0.000 NA
ATOM     11  H   UNL     1      -3.663  11.960  18.883  0.00  0.00    +0.000 HD
ENDROOT
BRANCH   1  23
ATOM     12  O   UNL     1       4.055  14.678  18.561  0.00  0.00    +0.000 OA
ATOM     13  C   UNL     1       3.117  15.395  18.294  0.00  0.00    +0.000 C 
ATOM     14  N   UNL     1       3.097  16.464  17.426  0.00  0.00    +0.000 N 
ATOM     15  C   UNL     1       1.847  17.066  17.402  0.00  0.00    +0.000 A 
ATOM     16  C   UNL     1       1.487  18.163  16.641  0.00  0.00    +0.000 A 
ATOM     17  C   UNL     1       0.175  18.627  16.758  0.00  0.00    +0.000 A 
ATOM     18  C   UNL     1      -0.707  18.019  17.657  0.00  0.00    +0.000 A 
ATOM     19  F   UNL     1      -1.965  18.472  17.747  0.00  0.00    +0.000 F 
ATOM     20  C   UNL     1      -0.318  16.943  18.451  0.00  0.00    +0.000 A 
ATOM     21  C   UNL     1       0.954  16.434  18.273  0.00  0.00    +0.000 A 
ATOM     22  C   UNL     1       1.674  15.275  18.838  0.00  0.00    +0.000 C 
ATOM     23  N   UNL     1       1.341  14.254  19.560  0.00  0.00    +0.000 NA
ATOM     24  H   UNL     1       3.914  16.753  16.908  0.00  0.00    +0.000 HD
ENDBRANCH   1  23
BRANCH   8  25
ATOM     25  C   UNL     1      -2.112  15.654  23.344  0.00  0.00    +0.000 C 
ATOM     26  C   UNL     1      -3.282  16.258  24.051  0.00  0.00    +0.000 C 
ATOM     27  C   UNL     1      -3.197  16.125  25.377  0.00  0.00    +0.000 C 
ATOM     28  C   UNL     1      -1.934  15.438  25.808  0.00  0.00    +0.000 C 
ATOM     29  C   UNL     1      -1.345  14.931  24.476  0.00  0.00    +0.000 C 
BRANCH  28  30
ATOM     30  C   UNL     1      -0.980  16.379  26.551  0.00  0.00    +0.000 C 
BRANCH  30  31
ATOM     31  O   UNL     1      -0.051  15.641  27.339  0.00  0.00    +0.000 OA
ATOM     32  H   UNL     1       0.356  14.972  26.759  0.00  0.00    +0.000 HD
ENDBRANCH  30  31
ENDBRANCH  28  30
ENDBRANCH   8  25
BRANCH   4  33
ATOM     33  C   UNL     1      -2.221  11.397  17.386  0.00  0.00    +0.000 C 
ATOM     34  C   UNL     1      -1.570  10.049  17.255  0.00  0.00    +0.000 C 
ATOM     35  C   UNL     1      -2.963  10.255  16.740  0.00  0.00    +0.000 C 
ENDBRANCH   4  33
TORSDOF 5
ENDMDL
MODEL 7
REMARK VINA RESULT:      -6.9      9.942     12.564
REMARK  Name = 
REMARK  5 active torsions:
REMARK  status: ('A' for Active; 'I' for Inactive)
REMARK    1  A    between atoms: N_12  and  C_13
REMARK    2  A    between atoms: N_16  and  C_17
REMARK    3  A    between atoms: N_23  and  C_24
REMARK    4  A    between atoms: C_27  and  C_28
REMARK    5  A    between atoms: C_28  and  O_29
REMARK                            x       y       z     vdW  Elec       q    Type
REMARK                         _______ _______ _______ _____ _____    ______ ____
ROOT
ATOM      1  C   UNL     1       6.959  15.623  19.429  0.00  0.00    +0.000 A 
ATOM      2  N   UNL     1       7.396  15.081  20.583  0.00  0.00    +0.000 NA
ATOM      3  C   UNL     1       6.505  14.453  21.399  0.00  0.00    +0.000 A 
ATOM      4  N   UNL     1       6.883  13.846  22.608  0.00  0.00    +0.000 N 
ATOM      5  C   UNL     1       5.153  14.448  21.009  0.00  0.00    +0.000 A 
ATOM      6  N   UNL     1       4.018  13.945  21.610  0.00  0.00    +0.000 NA
ATOM      7  C   UNL     1       3.033  14.276  20.801  0.00  0.00    +0.000 A 
ATOM      8  N   UNL     1       3.478  14.997  19.719  0.00  0.00    +0.000 N 
ATOM      9  C   UNL     1       4.845  15.051  19.807  0.00  0.00    +0.000 A 
ATOM     10  N   UNL     1       5.703  15.603  18.942  0.00  0.00    +0.000 NA
ATOM     11  H   UNL     1       6.135  13.265  22.978  0.00  0.00    +0.000 HD
ENDROOT
BRANCH   1  23
ATOM     12  O   UNL     1      10.146  17.394  17.138  0.00  0.00    +0.000 OA
ATOM     13  C   UNL     1      10.051  16.209  17.362  0.00  0.00    +0.000 C 
ATOM     14  N   UNL     1      10.966  15.222  17.066  0.00  0.00    +0.000 N 
ATOM     15  C   UNL     1      10.495  13.973  17.446  0.00  0.00    +0.000 A 
ATOM     16  C   UNL     1      11.161  12.771  17.291  0.00  0.00    +0.000 A 
ATOM     17  C   UNL     1      10.517  11.615  17.734  0.00  0.00    +0.000 A 
ATOM     18  C   UNL     1       9.225  11.691  18.265  0.00  0.00    +0.000 A 
ATOM     19  F   UNL     1       8.628  10.571  18.696  0.00  0.00    +0.000 F 
ATOM     20  C   UNL     1       8.547  12.901  18.374  0.00  0.00    +0.000 A 
ATOM     21  C   UNL     1       9.218  14.053  18.011  0.00  0.00    +0.000 A 
ATOM     22  C   UNL     1       8.882  15.490  18.075  0.00  0.00    +0.000 C 
ATOM     23  N   UNL     1       7.936  16.185  18.620  0.00  0.00    +0.000 NA
ATOM     24  H   UNL     1      11.845  15.421  16.612  0.00  0.00    +0.000 HD
ENDBRANCH   1  23
BRANCH   8  25
ATOM     25  C   UNL     1       2.658  15.606  18.691  0.00  0.00    +0.000 C 
ATOM     26  C   UNL     1       1.211  15.271  18.860  0.00  0.00    +0.000 C 
ATOM     27  C   UNL     1       0.430  16.352  18.798  0.00  0.00    +0.000 C 
ATOM     28  C   UNL     1       1.206  17.611  18.538  0.00  0.00    +0.000 C 
ATOM     29  C   UNL     1       2.670  17.152  18.699  0.00  0.00    +0.000 C 
BRANCH  28  30
ATOM     30  C   UNL     1       0.924  18.198  17.152  0.00  0.00    +0.000 C 
BRANCH  30  31
ATOM     31  O   UNL     1      -0.472  18.182  16.869  0.00  0.00    +0.000 OA
ATOM     32  H   UNL     1      -0.607  18.683  16.044  0.00  0.00    +0.000 HD
ENDBRANCH  30  31
ENDBRANCH  28  30
ENDBRANCH   8  25
BRANCH   4  33
ATOM     33  C   UNL     1       8.269  13.549  22.924  0.00  0.00    +0.000 C 
ATOM     34  C   UNL     1       8.620  12.566  24.004  0.00  0.00    +0.000 C 
ATOM     35  C   UNL     1       8.824  12.195  22.566  0.00  0.00    +0.000 C 
ENDBRANCH   4  33
TORSDOF 5
ENDMDL
MODEL 8
REMARK VINA RESULT:      -6.8      7.525     10.754
REMARK  Name = 
REMARK  5 active torsions:
REMARK  status: ('A' for Active; 'I' for Inactive)
REMARK    1  A    between atoms: N_12  and  C_13
REMARK    2  A    between atoms: N_16  and  C_17
REMARK    3  A    between atoms: N_23  and  C_24
REMARK    4  A    between atoms: C_27  and  C_28
REMARK    5  A    between atoms: C_28  and  O_29
REMARK                            x       y       z     vdW  Elec       q    Type
REMARK                         _______ _______ _______ _____ _____    ______ ____
ROOT
ATOM      1  C   UNL     1      -1.979  12.487  19.256  0.00  0.00    +0.000 A 
ATOM      2  N   UNL     1      -1.518  13.753  19.240  0.00  0.00    +0.000 NA
ATOM      3  C   UNL     1      -0.202  13.977  18.974  0.00  0.00    +0.000 A 
ATOM      4  N   UNL     1       0.352  15.267  18.920  0.00  0.00    +0.000 N 
ATOM      5  C   UNL     1       0.624  12.855  18.776  0.00  0.00    +0.000 A 
ATOM      6  N   UNL     1       1.975  12.732  18.530  0.00  0.00    +0.000 NA
ATOM      7  C   UNL     1       2.192  11.434  18.478  0.00  0.00    +0.000 A 
ATOM      8  N   UNL     1       1.046  10.712  18.709  0.00  0.00    +0.000 N 
ATOM      9  C   UNL     1       0.021  11.615  18.830  0.00  0.00    +0.000 A 
ATOM     10  N   UNL     1      -1.280  11.361  19.007  0.00  0.00    +0.000 NA
ATOM     11  H   UNL     1       1.286  15.250  18.519  0.00  0.00    +0.000 HD
ENDROOT
BRANCH   1  23
ATOM     12  O   UNL     1      -6.164  11.793  19.993  0.00  0.00    +0.000 OA
ATOM     13  C   UNL     1      -5.388  12.202  20.827  0.00  0.00    +0.000 C 
ATOM     14  N   UNL     1      -5.626  12.400  22.169  0.00  0.00    +0.000 N 
ATOM     15  C   UNL     1      -4.503  12.911  22.806  0.00  0.00    +0.000 A 
ATOM     16  C   UNL     1      -4.402  13.225  24.149  0.00  0.00    +0.000 A 
ATOM     17  C   UNL     1      -3.184  13.736  24.602  0.00  0.00    +0.000 A 
ATOM     18  C   UNL     1      -2.137  13.958  23.701  0.00  0.00    +0.000 A 
ATOM     19  F   UNL     1      -0.972  14.438  24.158  0.00  0.00    +0.000 F 
ATOM     20  C   UNL     1      -2.268  13.680  22.344  0.00  0.00    +0.000 A 
ATOM     21  C   UNL     1      -3.444  13.099  21.912  0.00  0.00    +0.000 A 
ATOM     22  C   UNL     1      -3.905  12.581  20.607  0.00  0.00    +0.000 C 
ATOM     23  N   UNL     1      -3.343  12.344  19.467  0.00  0.00    +0.000 NA
ATOM     24  H   UNL     1      -6.520  12.206  22.593  0.00  0.00    +0.000 HD
ENDBRANCH   1  23
BRANCH   8  25
ATOM     25  C   UNL     1       0.941   9.271  18.827  0.00  0.00    +0.000 C 
ATOM     26  C   UNL     1       1.761   8.566  17.795  0.00  0.00    +0.000 C 
ATOM     27  C   UNL     1       2.525   7.608  18.322  0.00  0.00    +0.000 C 
ATOM     28  C   UNL     1       2.333   7.467  19.805  0.00  0.00    +0.000 C 
ATOM     29  C   UNL     1       1.478   8.700  20.160  0.00  0.00    +0.000 C 
BRANCH  28  30
ATOM     30  C   UNL     1       1.650   6.150  20.185  0.00  0.00    +0.000 C 
BRANCH  30  31
ATOM     31  O   UNL     1       2.395   5.462  21.185  0.00  0.00    +0.000 OA
ATOM     32  H   UNL     1       3.295   5.328  20.837  0.00  0.00    +0.000 HD
ENDBRANCH  30  31
ENDBRANCH  28  30
ENDBRANCH   8  25
BRANCH   4  33
ATOM     33  C   UNL     1      -0.473  16.458  18.814  0.00  0.00    +0.000 C 
ATOM     34  C   UNL     1       0.082  17.811  19.158  0.00  0.00    +0.000 C 
ATOM     35  C   UNL     1      -0.175  17.455  17.725  0.00  0.00    +0.000 C 
ENDBRANCH   4  33
TORSDOF 5
ENDMDL
MODEL 9
REMARK VINA RESULT:      -6.8      8.145     11.698
REMARK  Name = 
REMARK  5 active torsions:
REMARK  status: ('A' for Active; 'I' for Inactive)
REMARK    1  A    between atoms: N_12  and  C_13
REMARK    2  A    between atoms: N_16  and  C_17
REMARK    3  A    between atoms: N_23  and  C_24
REMARK    4  A    between atoms: C_27  and  C_28
REMARK    5  A    between atoms: C_28  and  O_29
REMARK                            x       y       z     vdW  Elec       q    Type
REMARK                         _______ _______ _______ _____ _____    ______ ____
ROOT
ATOM      1  C   UNL     1      -2.473  13.041  21.078  0.00  0.00    +0.000 A 
ATOM      2  N   UNL     1      -2.151  14.334  20.871  0.00  0.00    +0.000 NA
ATOM      3  C   UNL     1      -1.097  14.634  20.063  0.00  0.00    +0.000 A 
ATOM      4  N   UNL     1      -0.710  15.954  19.782  0.00  0.00    +0.000 N 
ATOM      5  C   UNL     1      -0.364  13.561  19.522  0.00  0.00    +0.000 A 
ATOM      6  N   UNL     1       0.754  13.519  18.715  0.00  0.00    +0.000 NA
ATOM      7  C   UNL     1       1.015  12.237  18.568  0.00  0.00    +0.000 A 
ATOM      8  N   UNL     1       0.132  11.449  19.268  0.00  0.00    +0.000 N 
ATOM      9  C   UNL     1      -0.798  12.288  19.825  0.00  0.00    +0.000 A 
ATOM     10  N   UNL     1      -1.876  11.957  20.545  0.00  0.00    +0.000 NA
ATOM     11  H   UNL     1      -0.041  15.987  19.016  0.00  0.00    +0.000 HD
ENDROOT
BRANCH   1  23
ATOM     12  O   UNL     1      -6.021  12.613  23.480  0.00  0.00    +0.000 OA
ATOM     13  C   UNL     1      -6.009  12.548  22.272  0.00  0.00    +0.000 C 
ATOM     14  N   UNL     1      -7.092  12.462  21.425  0.00  0.00    +0.000 N 
ATOM     15  C   UNL     1      -6.687  12.374  20.101  0.00  0.00    +0.000 A 
ATOM     16  C   UNL     1      -7.518  12.273  19.000  0.00  0.00    +0.000 A 
ATOM     17  C   UNL     1      -6.917  12.189  17.743  0.00  0.00    +0.000 A 
ATOM     18  C   UNL     1      -5.522  12.159  17.632  0.00  0.00    +0.000 A 
ATOM     19  F   UNL     1      -4.964  12.089  16.416  0.00  0.00    +0.000 F 
ATOM     20  C   UNL     1      -4.697  12.215  18.752  0.00  0.00    +0.000 A 
ATOM     21  C   UNL     1      -5.293  12.381  19.987  0.00  0.00    +0.000 A 
ATOM     22  C   UNL     1      -4.765  12.578  21.353  0.00  0.00    +0.000 C 
ATOM     23  N   UNL     1      -3.599  12.818  21.857  0.00  0.00    +0.000 NA
ATOM     24  H   UNL     1      -8.043  12.448  21.765  0.00  0.00    +0.000 HD
ENDBRANCH   1  23
BRANCH   8  25
ATOM     25  C   UNL     1       0.187  10.008  19.412  0.00  0.00    +0.000 C 
ATOM     26  C   UNL     1       1.021   9.372  18.347  0.00  0.00    +0.000 C 
ATOM     27  C   UNL     1       1.909   8.510  18.846  0.00  0.00    +0.000 C 
ATOM     28  C   UNL     1       1.811   8.380  20.339  0.00  0.00    +0.000 C 
ATOM     29  C   UNL     1       0.850   9.523  20.722  0.00  0.00    +0.000 C 
BRANCH  28  30
ATOM     30  C   UNL     1       1.292   7.006  20.775  0.00  0.00    +0.000 C 
BRANCH  30  31
ATOM     31  O   UNL     1       2.328   6.030  20.715  0.00  0.00    +0.000 OA
ATOM     32  H   UNL     1       3.149   6.492  20.468  0.00  0.00    +0.000 HD
ENDBRANCH  30  31
ENDBRANCH  28  30
ENDBRANCH   8  25
BRANCH   4  33
ATOM     33  C   UNL     1      -1.578  17.088  20.049  0.00  0.00    +0.000 C 
ATOM     34  C   UNL     1      -1.086  18.495  19.862  0.00  0.00    +0.000 C 
ATOM     35  C   UNL     1      -2.071  17.916  18.891  0.00  0.00    +0.000 C 
ENDBRANCH   4  33
TORSDOF 5
ENDMDL
