MODEL 1
REMARK VINA RESULT:      -9.1      0.000      0.000
REMARK  Name = 
REMARK  5 active torsions:
REMARK  status: ('A' for Active; 'I' for Inactive)
REMARK    1  A    between atoms: N_1  and  S_2
REMARK    2  A    between atoms: S_2  and  C_5
REMARK    3  A    between atoms: C_8  and  N_9
REMARK    4  A    between atoms: C_15  and  S_16
REMARK    5  A    between atoms: S_16  and  N_19
REMARK                            x       y       z     vdW  Elec       q    Type
REMARK                         _______ _______ _______ _____ _____    ______ ____
ROOT
ATOM      1  N   UNL     1       0.753  10.947  19.437  0.00  0.00    +0.000 N 
ATOM      2  C   UNL     1       1.312   9.624  19.266  0.00  0.00    +0.000 A 
ATOM      3  C   UNL     1       2.050   9.456  18.097  0.00  0.00    +0.000 A 
ATOM      4  C   UNL     1       2.310   8.180  17.614  0.00  0.00    +0.000 A 
ATOM      5  C   UNL     1       2.220   7.109  18.482  0.00  0.00    +0.000 A 
ATOM      6  C   UNL     1       2.715   5.855  18.073  0.00  0.00    +0.000 A 
ATOM      7  C   UNL     1       2.839   4.814  18.986  0.00  0.00    +0.000 A 
ATOM      8  C   UNL     1       2.519   5.057  20.318  0.00  0.00    +0.000 A 
ATOM      9  C   UNL     1       1.954   6.306  20.691  0.00  0.00    +0.000 A 
ATOM     10  C   UNL     1       1.752   7.364  19.783  0.00  0.00    +0.000 A 
ATOM     11  N   UNL     1       1.206   8.580  20.128  0.00  0.00    +0.000 NA
ATOM     12  H   UNL     1       0.587  11.332  18.508  0.00  0.00    +0.000 HD
ENDROOT
BRANCH   1  16
ATOM     13  C   UNL     1      -2.346  12.444  21.956  0.00  0.00    +0.000 A 
ATOM     14  C   UNL     1      -1.145  12.010  22.503  0.00  0.00    +0.000 A 
ATOM     15  C   UNL     1      -0.101  11.538  21.679  0.00  0.00    +0.000 A 
ATOM     16  C   UNL     1      -0.251  11.450  20.300  0.00  0.00    +0.000 A 
ATOM     17  C   UNL     1      -1.470  11.949  19.751  0.00  0.00    +0.000 A 
ATOM     18  C   UNL     1      -2.506  12.431  20.572  0.00  0.00    +0.000 A 
BRANCH  13  19
ATOM     19  S   UNL     1      -3.727  12.827  23.006  0.00  0.00    +0.000 S 
ATOM     20  O   UNL     1      -3.777  14.239  23.212  0.00  0.00    +0.000 OA
ATOM     21  O   UNL     1      -3.781  11.880  24.093  0.00  0.00    +0.000 OA
BRANCH  19  22
ATOM     22  N   UNL     1      -5.073  12.482  22.042  0.00  0.00    +0.000 NA
ATOM     23  H   UNL     1      -4.759  12.334  21.079  0.00  0.00    +0.000 HD
ATOM     24  H   UNL     1      -5.761  13.223  22.117  0.00  0.00    +0.000 HD
ENDBRANCH  19  22
ENDBRANCH  13  19
ENDBRANCH   1  16
BRANCH   7  25
ATOM     25  S   UNL     1       3.668   3.304  18.455  0.00  0.00    +0.000 S 
ATOM     26  O   UNL     1       4.097   2.633  19.662  0.00  0.00    +0.000 OA
ATOM     27  O   UNL     1       2.795   2.656  17.509  0.00  0.00    +0.000 OA
BRANCH  25  28
ATOM     28  N   UNL     1       5.085   3.803  17.625  0.00  0.00    +0.000 NA
ATOM     29  C   UNL     1       4.920   4.132  16.183  0.00  0.00    +0.000 C 
ATOM     30  C   UNL     1       6.262   4.293  15.483  0.00  0.00    +0.000 C 
ATOM     31  C   UNL     1       7.149   5.296  16.202  0.00  0.00    +0.000 C 
ATOM     32  C   UNL     1       7.367   4.829  17.634  0.00  0.00    +0.000 C 
ATOM     33  C   UNL     1       6.040   4.655  18.377  0.00  0.00    +0.000 C 
ENDBRANCH  25  28
ENDBRANCH   7  25
TORSDOF 5
ENDMDL
MODEL 2
REMARK VINA RESULT:      -9.1      0.710      1.155
REMARK  Name = 
REMARK  5 active torsions:
REMARK  status: ('A' for Active; 'I' for Inactive)
REMARK    1  A    between atoms: N_1  and  S_2
REMARK    2  A    between atoms: S_2  and  C_5
REMARK    3  A    between atoms: C_8  and  N_9
REMARK    4  A    between atoms: C_15  and  S_16
REMARK    5  A    between atoms: S_16  and  N_19
REMARK                            x       y       z     vdW  Elec       q    Type
REMARK                         _______ _______ _______ _____ _____    ______ ____
ROOT
ATOM      1  N   UNL     1       0.384  11.433  19.753  0.00  0.00    +0.000 N 
ATOM      2  C   UNL     1       1.016  10.156  19.503  0.00  0.00    +0.000 A 
ATOM      3  C   UNL     1       1.781  10.109  18.340  0.00  0.00    +0.000 A 
ATOM      4  C   UNL     1       2.118   8.885  17.778  0.00  0.00    +0.000 A 
ATOM      5  C   UNL     1       2.073   7.753  18.568  0.00  0.00    +0.000 A 
ATOM      6  C   UNL     1       2.641   6.558  18.086  0.00  0.00    +0.000 A 
ATOM      7  C   UNL     1       2.808   5.466  18.927  0.00  0.00    +0.000 A 
ATOM      8  C   UNL     1       2.454   5.600  20.267  0.00  0.00    +0.000 A 
ATOM      9  C   UNL     1       1.816   6.787  20.713  0.00  0.00    +0.000 A 
ATOM     10  C   UNL     1       1.571   7.893  19.874  0.00  0.00    +0.000 A 
ATOM     11  N   UNL     1       0.954   9.051  20.290  0.00  0.00    +0.000 NA
ATOM     12  H   UNL     1       0.212  11.871  18.850  0.00  0.00    +0.000 HD
ENDROOT
BRANCH   1  16
ATOM     13  C   UNL     1      -2.826  12.613  22.301  0.00  0.00    +0.000 A 
ATOM     14  C   UNL     1      -1.735  11.927  22.819  0.00  0.00    +0.000 A 
ATOM     15  C   UNL     1      -0.653  11.556  21.992  0.00  0.00    +0.000 A 
ATOM     16  C   UNL     1      -0.660  11.822  20.628  0.00  0.00    +0.000 A 
ATOM     17  C   UNL     1      -1.764  12.571  20.124  0.00  0.00    +0.000 A 
ATOM     18  C   UNL     1      -2.836  12.953  20.950  0.00  0.00    +0.000 A 
BRANCH  13  19
ATOM     19  S   UNL     1      -4.274  12.882  23.295  0.00  0.00    +0.000 S 
ATOM     20  O   UNL     1      -4.503  14.286  23.412  0.00  0.00    +0.000 OA
ATOM     21  O   UNL     1      -4.243  12.001  24.437  0.00  0.00    +0.000 OA
BRANCH  19  22
ATOM     22  N   UNL     1      -5.539  12.316  22.325  0.00  0.00    +0.000 NA
ATOM     23  H   UNL     1      -6.426  12.488  22.805  0.00  0.00    +0.000 HD
ATOM     24  H   UNL     1      -5.402  11.337  22.100  0.00  0.00    +0.000 HD
ENDBRANCH  19  22
ENDBRANCH  13  19
ENDBRANCH   1  16
BRANCH   7  25
ATOM     25  S   UNL     1       3.726   4.042  18.312  0.00  0.00    +0.000 S 
ATOM     26  O   UNL     1       4.454   3.511  19.443  0.00  0.00    +0.000 OA
ATOM     27  O   UNL     1       2.794   3.229  17.574  0.00  0.00    +0.000 OA
BRANCH  25  28
ATOM     28  N   UNL     1       4.888   4.662  17.210  0.00  0.00    +0.000 NA
ATOM     29  C   UNL     1       6.209   5.032  17.788  0.00  0.00    +0.000 C 
ATOM     30  C   UNL     1       7.059   5.816  16.797  0.00  0.00    +0.000 C 
ATOM     31  C   UNL     1       7.196   5.079  15.475  0.00  0.00    +0.000 C 
ATOM     32  C   UNL     1       5.811   4.842  14.892  0.00  0.00    +0.000 C 
ATOM     33  C   UNL     1       4.922   4.053  15.857  0.00  0.00    +0.000 C 
ENDBRANCH  25  28
ENDBRANCH   7  25
TORSDOF 5
ENDMDL
MODEL 3
REMARK VINA RESULT:      -9.1      1.064      1.225
REMARK  Name = 
REMARK  5 active torsions:
REMARK  status: ('A' for Active; 'I' for Inactive)
REMARK    1  A    between atoms: N_1  and  S_2
REMARK    2  A    between atoms: S_2  and  C_5
REMARK    3  A    between atoms: C_8  and  N_9
REMARK    4  A    between atoms: C_15  and  S_16
REMARK    5  A    between atoms: S_16  and  N_19
REMARK                            x       y       z     vdW  Elec       q    Type
REMARK                         _______ _______ _______ _____ _____    ______ ____
ROOT
ATOM      1  N   UNL     1       0.320  11.530  19.622  0.00  0.00    +0.000 N 
ATOM      2  C   UNL     1       0.958  10.248  19.420  0.00  0.00    +0.000 A 
ATOM      3  C   UNL     1       1.781  10.183  18.298  0.00  0.00    +0.000 A 
ATOM      4  C   UNL     1       2.140   8.951  17.768  0.00  0.00    +0.000 A 
ATOM      5  C   UNL     1       2.049   7.829  18.569  0.00  0.00    +0.000 A 
ATOM      6  C   UNL     1       2.636   6.626  18.131  0.00  0.00    +0.000 A 
ATOM      7  C   UNL     1       2.754   5.544  18.993  0.00  0.00    +0.000 A 
ATOM      8  C   UNL     1       2.333   5.695  20.311  0.00  0.00    +0.000 A 
ATOM      9  C   UNL     1       1.679   6.891  20.710  0.00  0.00    +0.000 A 
ATOM     10  C   UNL     1       1.482   7.988  19.846  0.00  0.00    +0.000 A 
ATOM     11  N   UNL     1       0.850   9.153  20.216  0.00  0.00    +0.000 NA
ATOM     12  H   UNL     1       0.196  11.958  18.706  0.00  0.00    +0.000 HD
ENDROOT
BRANCH   1  16
ATOM     13  C   UNL     1      -3.016  12.724  21.996  0.00  0.00    +0.000 A 
ATOM     14  C   UNL     1      -1.813  12.377  22.599  0.00  0.00    +0.000 A 
ATOM     15  C   UNL     1      -0.694  12.008  21.824  0.00  0.00    +0.000 A 
ATOM     16  C   UNL     1      -0.765  11.934  20.438  0.00  0.00    +0.000 A 
ATOM     17  C   UNL     1      -1.991  12.343  19.834  0.00  0.00    +0.000 A 
ATOM     18  C   UNL     1      -3.103  12.725  20.605  0.00  0.00    +0.000 A 
BRANCH  13  19
ATOM     19  S   UNL     1      -4.475  12.973  22.978  0.00  0.00    +0.000 S 
ATOM     20  O   UNL     1      -5.588  12.369  22.318  0.00  0.00    +0.000 OA
ATOM     21  O   UNL     1      -4.502  14.331  23.463  0.00  0.00    +0.000 OA
BRANCH  19  22
ATOM     22  N   UNL     1      -4.209  12.012  24.345  0.00  0.00    +0.000 NA
ATOM     23  H   UNL     1      -3.548  11.270  24.102  0.00  0.00    +0.000 HD
ATOM     24  H   UNL     1      -5.088  11.651  24.699  0.00  0.00    +0.000 HD
ENDBRANCH  19  22
ENDBRANCH  13  19
ENDBRANCH   1  16
BRANCH   7  25
ATOM     25  S   UNL     1       3.695   4.108  18.443  0.00  0.00    +0.000 S 
ATOM     26  O   UNL     1       3.782   3.220  19.580  0.00  0.00    +0.000 OA
ATOM     27  O   UNL     1       3.111   3.676  17.198  0.00  0.00    +0.000 OA
BRANCH  25  28
ATOM     28  N   UNL     1       5.285   4.673  18.123  0.00  0.00    +0.000 NA
ATOM     29  C   UNL     1       5.532   5.196  16.752  0.00  0.00    +0.000 C 
ATOM     30  C   UNL     1       7.017   5.411  16.489  0.00  0.00    +0.000 C 
ATOM     31  C   UNL     1       7.651   6.284  17.559  0.00  0.00    +0.000 C 
ATOM     32  C   UNL     1       7.459   5.624  18.916  0.00  0.00    +0.000 C 
ATOM     33  C   UNL     1       5.977   5.390  19.223  0.00  0.00    +0.000 C 
ENDBRANCH  25  28
ENDBRANCH   7  25
TORSDOF 5
ENDMDL
MODEL 4
REMARK VINA RESULT:      -9.0      1.139      1.506
REMARK  Name = 
REMARK  5 active torsions:
REMARK  status: ('A' for Active; 'I' for Inactive)
REMARK    1  A    between atoms: N_1  and  S_2
REMARK    2  A    between atoms: S_2  and  C_5
REMARK    3  A    between atoms: C_8  and  N_9
REMARK    4  A    between atoms: C_15  and  S_16
REMARK    5  A    between atoms: S_16  and  N_19
REMARK                            x       y       z     vdW  Elec       q    Type
REMARK                         _______ _______ _______ _____ _____    ______ ____
ROOT
ATOM      1  N   UNL     1       0.201  11.431  19.918  0.00  0.00    +0.000 N 
ATOM      2  C   UNL     1       0.868  10.177  19.644  0.00  0.00    +0.000 A 
ATOM      3  C   UNL     1       1.650  10.179  18.491  0.00  0.00    +0.000 A 
ATOM      4  C   UNL     1       2.024   8.978  17.903  0.00  0.00    +0.000 A 
ATOM      5  C   UNL     1       1.996   7.825  18.663  0.00  0.00    +0.000 A 
ATOM      6  C   UNL     1       2.600   6.658  18.158  0.00  0.00    +0.000 A 
ATOM      7  C   UNL     1       2.782   5.548  18.973  0.00  0.00    +0.000 A 
ATOM      8  C   UNL     1       2.407   5.638  20.311  0.00  0.00    +0.000 A 
ATOM      9  C   UNL     1       1.733   6.798  20.778  0.00  0.00    +0.000 A 
ATOM     10  C   UNL     1       1.473   7.919  19.965  0.00  0.00    +0.000 A 
ATOM     11  N   UNL     1       0.822   9.050  20.402  0.00  0.00    +0.000 NA
ATOM     12  H   UNL     1       0.031  11.888  19.024  0.00  0.00    +0.000 HD
ENDROOT
BRANCH   1  16
ATOM     13  C   UNL     1      -2.935  12.458  22.620  0.00  0.00    +0.000 A 
ATOM     14  C   UNL     1      -3.085  12.674  21.256  0.00  0.00    +0.000 A 
ATOM     15  C   UNL     1      -2.066  12.313  20.348  0.00  0.00    +0.000 A 
ATOM     16  C   UNL     1      -0.864  11.771  20.787  0.00  0.00    +0.000 A 
ATOM     17  C   UNL     1      -0.748  11.508  22.185  0.00  0.00    +0.000 A 
ATOM     18  C   UNL     1      -1.769  11.856  23.088  0.00  0.00    +0.000 A 
BRANCH  13  19
ATOM     19  S   UNL     1      -4.121  13.112  23.770  0.00  0.00    +0.000 S 
ATOM     20  O   UNL     1      -5.325  13.423  23.069  0.00  0.00    +0.000 OA
ATOM     21  O   UNL     1      -3.469  14.050  24.650  0.00  0.00    +0.000 OA
BRANCH  19  22
ATOM     22  N   UNL     1      -4.515  11.783  24.740  0.00  0.00    +0.000 NA
ATOM     23  H   UNL     1      -3.705  11.546  25.319  0.00  0.00    +0.000 HD
ATOM     24  H   UNL     1      -4.826  11.007  24.167  0.00  0.00    +0.000 HD
ENDBRANCH  19  22
ENDBRANCH  13  19
ENDBRANCH   1  16
BRANCH   7  25
ATOM     25  S   UNL     1       3.744   4.163  18.335  0.00  0.00    +0.000 S 
ATOM     26  O   UNL     1       3.834   3.202  19.411  0.00  0.00    +0.000 OA
ATOM     27  O   UNL     1       3.172   3.808  17.061  0.00  0.00    +0.000 OA
BRANCH  25  28
ATOM     28  N   UNL     1       5.329   4.766  18.064  0.00  0.00    +0.000 NA
ATOM     29  C   UNL     1       5.573   5.399  16.740  0.00  0.00    +0.000 C 
ATOM     30  C   UNL     1       7.056   5.648  16.498  0.00  0.00    +0.000 C 
ATOM     31  C   UNL     1       7.681   6.438  17.636  0.00  0.00    +0.000 C 
ATOM     32  C   UNL     1       7.493   5.670  18.936  0.00  0.00    +0.000 C 
ATOM     33  C   UNL     1       6.013   5.400  19.219  0.00  0.00    +0.000 C 
ENDBRANCH  25  28
ENDBRANCH   7  25
TORSDOF 5
ENDMDL
MODEL 5
REMARK VINA RESULT:      -9.0      0.748      1.463
REMARK  Name = 
REMARK  5 active torsions:
REMARK  status: ('A' for Active; 'I' for Inactive)
REMARK    1  A    between atoms: N_1  and  S_2
REMARK    2  A    between atoms: S_2  and  C_5
REMARK    3  A    between atoms: C_8  and  N_9
REMARK    4  A    between atoms: C_15  and  S_16
REMARK    5  A    between atoms: S_16  and  N_19
REMARK                            x       y       z     vdW  Elec       q    Type
REMARK                         _______ _______ _______ _____ _____    ______ ____
ROOT
ATOM      1  N   UNL     1       0.417  11.240  19.853  0.00  0.00    +0.000 N 
ATOM      2  C   UNL     1       1.056   9.973  19.572  0.00  0.00    +0.000 A 
ATOM      3  C   UNL     1       1.810   9.954  18.400  0.00  0.00    +0.000 A 
ATOM      4  C   UNL     1       2.149   8.743  17.811  0.00  0.00    +0.000 A 
ATOM      5  C   UNL     1       2.120   7.596  18.580  0.00  0.00    +0.000 A 
ATOM      6  C   UNL     1       2.691   6.415  18.069  0.00  0.00    +0.000 A 
ATOM      7  C   UNL     1       2.874   5.308  18.888  0.00  0.00    +0.000 A 
ATOM      8  C   UNL     1       2.532   5.413  20.233  0.00  0.00    +0.000 A 
ATOM      9  C   UNL     1       1.891   6.587  20.708  0.00  0.00    +0.000 A 
ATOM     10  C   UNL     1       1.630   7.708  19.893  0.00  0.00    +0.000 A 
ATOM     11  N   UNL     1       1.009   8.853  20.338  0.00  0.00    +0.000 NA
ATOM     12  H   UNL     1       0.233  11.695  18.959  0.00  0.00    +0.000 HD
ENDROOT
BRANCH   1  16
ATOM     13  C   UNL     1      -2.636  12.331  22.623  0.00  0.00    +0.000 A 
ATOM     14  C   UNL     1      -2.772  12.633  21.274  0.00  0.00    +0.000 A 
ATOM     15  C   UNL     1      -1.782  12.253  20.343  0.00  0.00    +0.000 A 
ATOM     16  C   UNL     1      -0.620  11.605  20.745  0.00  0.00    +0.000 A 
ATOM     17  C   UNL     1      -0.522  11.256  22.125  0.00  0.00    +0.000 A 
ATOM     18  C   UNL     1      -1.515  11.623  23.051  0.00  0.00    +0.000 A 
BRANCH  13  19
ATOM     19  S   UNL     1      -3.772  13.000  23.814  0.00  0.00    +0.000 S 
ATOM     20  O   UNL     1      -3.147  14.093  24.489  0.00  0.00    +0.000 OA
ATOM     21  O   UNL     1      -4.423  11.922  24.516  0.00  0.00    +0.000 OA
BRANCH  19  22
ATOM     22  N   UNL     1      -4.978  13.711  22.864  0.00  0.00    +0.000 NA
ATOM     23  H   UNL     1      -4.534  14.307  22.160  0.00  0.00    +0.000 HD
ATOM     24  H   UNL     1      -5.634  14.219  23.447  0.00  0.00    +0.000 HD
ENDBRANCH  19  22
ENDBRANCH  13  19
ENDBRANCH   1  16
BRANCH   7  25
ATOM     25  S   UNL     1       3.796   3.902  18.236  0.00  0.00    +0.000 S 
ATOM     26  O   UNL     1       4.516   3.337  19.355  0.00  0.00    +0.000 OA
ATOM     27  O   UNL     1       2.868   3.112  17.467  0.00  0.00    +0.000 OA
BRANCH  25  28
ATOM     28  N   UNL     1       4.966   4.555  17.162  0.00  0.00    +0.000 NA
ATOM     29  C   UNL     1       6.317   4.802  17.733  0.00  0.00    +0.000 C 
ATOM     30  C   UNL     1       7.187   5.624  16.792  0.00  0.00    +0.000 C 
ATOM     31  C   UNL     1       7.254   5.000  15.408  0.00  0.00    +0.000 C 
ATOM     32  C   UNL     1       5.846   4.889  14.844  0.00  0.00    +0.000 C 
ATOM     33  C   UNL     1       4.936   4.067  15.760  0.00  0.00    +0.000 C 
ENDBRANCH  25  28
ENDBRANCH   7  25
TORSDOF 5
ENDMDL
MODEL 6
REMARK VINA RESULT:      -8.8      0.493      1.003
REMARK  Name = 
REMARK  5 active torsions:
REMARK  status: ('A' for Active; 'I' for Inactive)
REMARK    1  A    between atoms: N_1  and  S_2
REMARK    2  A    between atoms: S_2  and  C_5
REMARK    3  A    between atoms: C_8  and  N_9
REMARK    4  A    between atoms: C_15  and  S_16
REMARK    5  A    between atoms: S_16  and  N_19
REMARK                            x       y       z     vdW  Elec       q    Type
REMARK                         _______ _______ _______ _____ _____    ______ ____
ROOT
ATOM      1  N   UNL     1       0.683  10.931  19.562  0.00  0.00    +0.000 N 
ATOM      2  C   UNL     1       1.261   9.622  19.353  0.00  0.00    +0.000 A 
ATOM      3  C   UNL     1       1.997   9.497  18.177  0.00  0.00    +0.000 A 
ATOM      4  C   UNL     1       2.275   8.239  17.660  0.00  0.00    +0.000 A 
ATOM      5  C   UNL     1       2.204   7.143  18.498  0.00  0.00    +0.000 A 
ATOM      6  C   UNL     1       2.716   5.908  18.055  0.00  0.00    +0.000 A 
ATOM      7  C   UNL     1       2.860   4.846  18.938  0.00  0.00    +0.000 A 
ATOM      8  C   UNL     1       2.541   5.048  20.278  0.00  0.00    +0.000 A 
ATOM      9  C   UNL     1       1.958   6.277  20.686  0.00  0.00    +0.000 A 
ATOM     10  C   UNL     1       1.737   7.356  19.807  0.00  0.00    +0.000 A 
ATOM     11  N   UNL     1       1.174   8.553  20.187  0.00  0.00    +0.000 NA
ATOM     12  H   UNL     1       0.507  11.338  18.644  0.00  0.00    +0.000 HD
ENDROOT
BRANCH   1  16
ATOM     13  C   UNL     1      -2.280  12.339  22.288  0.00  0.00    +0.000 A 
ATOM     14  C   UNL     1      -2.492  12.420  20.917  0.00  0.00    +0.000 A 
ATOM     15  C   UNL     1      -1.532  11.932  20.005  0.00  0.00    +0.000 A 
ATOM     16  C   UNL     1      -0.326  11.396  20.440  0.00  0.00    +0.000 A 
ATOM     17  C   UNL     1      -0.148  11.273  21.851  0.00  0.00    +0.000 A 
ATOM     18  C   UNL     1      -1.110  11.747  22.760  0.00  0.00    +0.000 A 
BRANCH  13  19
ATOM     19  S   UNL     1      -3.385  13.148  23.418  0.00  0.00    +0.000 S 
ATOM     20  O   UNL     1      -2.640  14.065  24.220  0.00  0.00    +0.000 OA
ATOM     21  O   UNL     1      -4.290  12.178  23.984  0.00  0.00    +0.000 OA
BRANCH  19  22
ATOM     22  N   UNL     1      -4.339  14.124  22.419  0.00  0.00    +0.000 NA
ATOM     23  H   UNL     1      -5.267  14.221  22.840  0.00  0.00    +0.000 HD
ATOM     24  H   UNL     1      -4.376  13.741  21.481  0.00  0.00    +0.000 HD
ENDBRANCH  19  22
ENDBRANCH  13  19
ENDBRANCH   1  16
BRANCH   7  25
ATOM     25  S   UNL     1       3.710   3.363  18.365  0.00  0.00    +0.000 S 
ATOM     26  O   UNL     1       4.131   2.653  19.552  0.00  0.00    +0.000 OA
ATOM     27  O   UNL     1       2.855   2.742  17.385  0.00  0.00    +0.000 OA
BRANCH  25  28
ATOM     28  N   UNL     1       5.133   3.905  17.571  0.00  0.00    +0.000 NA
ATOM     29  C   UNL     1       5.000   4.210  16.121  0.00  0.00    +0.000 C 
ATOM     30  C   UNL     1       6.356   4.413  15.459  0.00  0.00    +0.000 C 
ATOM     31  C   UNL     1       7.183   5.457  16.192  0.00  0.00    +0.000 C 
ATOM     32  C   UNL     1       7.374   5.015  17.635  0.00  0.00    +0.000 C 
ATOM     33  C   UNL     1       6.032   4.801  18.340  0.00  0.00    +0.000 C 
ENDBRANCH  25  28
ENDBRANCH   7  25
TORSDOF 5
ENDMDL
MODEL 7
REMARK VINA RESULT:      -8.7      2.271      3.226
REMARK  Name = 
REMARK  5 active torsions:
REMARK  status: ('A' for Active; 'I' for Inactive)
REMARK    1  A    between atoms: N_1  and  S_2
REMARK    2  A    between atoms: S_2  and  C_5
REMARK    3  A    between atoms: C_8  and  N_9
REMARK    4  A    between atoms: C_15  and  S_16
REMARK    5  A    between atoms: S_16  and  N_19
REMARK                            x       y       z     vdW  Elec       q    Type
REMARK                         _______ _______ _______ _____ _____    ______ ____
ROOT
ATOM      1  N   UNL     1      -0.656  12.266  20.057  0.00  0.00    +0.000 N 
ATOM      2  C   UNL     1       0.197  11.135  19.765  0.00  0.00    +0.000 A 
ATOM      3  C   UNL     1       1.068  11.330  18.695  0.00  0.00    +0.000 A 
ATOM      4  C   UNL     1       1.652  10.239  18.066  0.00  0.00    +0.000 A 
ATOM      5  C   UNL     1       1.716   9.036  18.742  0.00  0.00    +0.000 A 
ATOM      6  C   UNL     1       2.516   8.000  18.220  0.00  0.00    +0.000 A 
ATOM      7  C   UNL     1       2.777   6.863  18.973  0.00  0.00    +0.000 A 
ATOM      8  C   UNL     1       2.279   6.797  20.271  0.00  0.00    +0.000 A 
ATOM      9  C   UNL     1       1.415   7.819  20.748  0.00  0.00    +0.000 A 
ATOM     10  C   UNL     1       1.075   8.957  19.990  0.00  0.00    +0.000 A 
ATOM     11  N   UNL     1       0.240   9.956  20.437  0.00  0.00    +0.000 NA
ATOM     12  H   UNL     1      -0.810  12.767  19.182  0.00  0.00    +0.000 HD
ENDROOT
BRANCH   1  16
ATOM     13  C   UNL     1      -4.124  12.672  22.506  0.00  0.00    +0.000 A 
ATOM     14  C   UNL     1      -4.213  12.843  21.130  0.00  0.00    +0.000 A 
ATOM     15  C   UNL     1      -3.079  12.684  20.305  0.00  0.00    +0.000 A 
ATOM     16  C   UNL     1      -1.829  12.395  20.840  0.00  0.00    +0.000 A 
ATOM     17  C   UNL     1      -1.767  12.172  22.248  0.00  0.00    +0.000 A 
ATOM     18  C   UNL     1      -2.900  12.318  23.069  0.00  0.00    +0.000 A 
BRANCH  13  19
ATOM     19  S   UNL     1      -5.498  13.087  23.554  0.00  0.00    +0.000 S 
ATOM     20  O   UNL     1      -6.699  12.588  22.965  0.00  0.00    +0.000 OA
ATOM     21  O   UNL     1      -5.362  14.449  24.007  0.00  0.00    +0.000 OA
BRANCH  19  22
ATOM     22  N   UNL     1      -5.259  12.129  24.928  0.00  0.00    +0.000 NA
ATOM     23  H   UNL     1      -6.117  12.133  25.485  0.00  0.00    +0.000 HD
ATOM     24  H   UNL     1      -4.453  12.455  25.450  0.00  0.00    +0.000 HD
ENDBRANCH  19  22
ENDBRANCH  13  19
ENDBRANCH   1  16
BRANCH   7  25
ATOM     25  S   UNL     1       3.970   5.670  18.339  0.00  0.00    +0.000 S 
ATOM     26  O   UNL     1       4.192   6.017  16.954  0.00  0.00    +0.000 OA
ATOM     27  O   UNL     1       5.059   5.623  19.283  0.00  0.00    +0.000 OA
BRANCH  25  28
ATOM     28  N   UNL     1       3.179   4.146  18.357  0.00  0.00    +0.000 NA
ATOM     29  C   UNL     1       3.972   3.000  18.876  0.00  0.00    +0.000 C 
ATOM     30  C   UNL     1       3.290   1.667  18.596  0.00  0.00    +0.000 C 
ATOM     31  C   UNL     1       1.860   1.655  19.111  0.00  0.00    +0.000 C 
ATOM     32  C   UNL     1       1.083   2.782  18.446  0.00  0.00    +0.000 C 
ATOM     33  C   UNL     1       1.736   4.143  18.704  0.00  0.00    +0.000 C 
ENDBRANCH  25  28
ENDBRANCH   7  25
TORSDOF 5
ENDMDL
MODEL 8
REMARK VINA RESULT:      -8.7      1.690      2.183
REMARK  Name = 
REMARK  5 active torsions:
REMARK  status: ('A' for Active; 'I' for Inactive)
REMARK    1  A    between atoms: N_1  and  S_2
REMARK    2  A    between atoms: S_2  and  C_5
REMARK    3  A    between atoms: C_8  and  N_9
REMARK    4  A    between atoms: C_15  and  S_16
REMARK    5  A    between atoms: S_16  and  N_19
REMARK                            x       y       z     vdW  Elec       q    Type
REMARK                         _______ _______ _______ _____ _____    ______ ____
ROOT
ATOM      1  N   UNL     1      -0.384  12.211  20.158  0.00  0.00    +0.000 N 
ATOM      2  C   UNL     1       0.351  10.992  19.901  0.00  0.00    +0.000 A 
ATOM      3  C   UNL     1       1.211  11.056  18.808  0.00  0.00    +0.000 A 
ATOM      4  C   UNL     1       1.674   9.888  18.217  0.00  0.00    +0.000 A 
ATOM      5  C   UNL     1       1.640   8.714  18.945  0.00  0.00    +0.000 A 
ATOM      6  C   UNL     1       2.325   7.585  18.456  0.00  0.00    +0.000 A 
ATOM      7  C   UNL     1       2.494   6.461  19.254  0.00  0.00    +0.000 A 
ATOM      8  C   UNL     1       2.023   6.499  20.563  0.00  0.00    +0.000 A 
ATOM      9  C   UNL     1       1.271   7.619  21.010  0.00  0.00    +0.000 A 
ATOM     10  C   UNL     1       1.023   8.751  20.208  0.00  0.00    +0.000 A 
ATOM     11  N   UNL     1       0.298   9.844  20.625  0.00  0.00    +0.000 NA
ATOM     12  H   UNL     1      -0.510  12.686  19.265  0.00  0.00    +0.000 HD
ENDROOT
BRANCH   1  16
ATOM     13  C   UNL     1      -3.870  12.997  22.486  0.00  0.00    +0.000 A 
ATOM     14  C   UNL     1      -2.624  12.913  23.094  0.00  0.00    +0.000 A 
ATOM     15  C   UNL     1      -1.459  12.681  22.332  0.00  0.00    +0.000 A 
ATOM     16  C   UNL     1      -1.520  12.485  20.957  0.00  0.00    +0.000 A 
ATOM     17  C   UNL     1      -2.800  12.627  20.343  0.00  0.00    +0.000 A 
ATOM     18  C   UNL     1      -3.960  12.871  21.101  0.00  0.00    +0.000 A 
BRANCH  13  19
ATOM     19  S   UNL     1      -5.348  13.068  23.469  0.00  0.00    +0.000 S 
ATOM     20  O   UNL     1      -6.385  12.347  22.802  0.00  0.00    +0.000 OA
ATOM     21  O   UNL     1      -5.529  14.409  23.967  0.00  0.00    +0.000 OA
BRANCH  19  22
ATOM     22  N   UNL     1      -4.973  12.131  24.827  0.00  0.00    +0.000 NA
ATOM     23  H   UNL     1      -5.808  12.051  25.413  0.00  0.00    +0.000 HD
ATOM     24  H   UNL     1      -4.185  12.529  25.325  0.00  0.00    +0.000 HD
ENDBRANCH  19  22
ENDBRANCH  13  19
ENDBRANCH   1  16
BRANCH   7  25
ATOM     25  S   UNL     1       3.554   5.133  18.652  0.00  0.00    +0.000 S 
ATOM     26  O   UNL     1       3.603   4.144  19.706  0.00  0.00    +0.000 OA
ATOM     27  O   UNL     1       3.092   4.795  17.330  0.00  0.00    +0.000 OA
BRANCH  25  28
ATOM     28  N   UNL     1       5.129   5.802  18.516  0.00  0.00    +0.000 NA
ATOM     29  C   UNL     1       6.220   5.060  19.204  0.00  0.00    +0.000 C 
ATOM     30  C   UNL     1       7.509   5.869  19.256  0.00  0.00    +0.000 C 
ATOM     31  C   UNL     1       7.923   6.346  17.873  0.00  0.00    +0.000 C 
ATOM     32  C   UNL     1       6.805   7.194  17.285  0.00  0.00    +0.000 C 
ATOM     33  C   UNL     1       5.488   6.417  17.214  0.00  0.00    +0.000 C 
ENDBRANCH  25  28
ENDBRANCH   7  25
TORSDOF 5
ENDMDL
MODEL 9
REMARK VINA RESULT:      -8.4      3.515      4.176
REMARK  Name = 
REMARK  5 active torsions:
REMARK  status: ('A' for Active; 'I' for Inactive)
REMARK    1  A    between atoms: N_1  and  S_2
REMARK    2  A    between atoms: S_2  and  C_5
REMARK    3  A    between atoms: C_8  and  N_9
REMARK    4  A    between atoms: C_15  and  S_16
REMARK    5  A    between atoms: S_16  and  N_19
REMARK                            x       y       z     vdW  Elec       q    Type
REMARK                         _______ _______ _______ _____ _____    ______ ____
ROOT
ATOM      1  N   UNL     1       0.247  12.021  20.458  0.00  0.00    +0.000 N 
ATOM      2  C   UNL     1       0.696  10.677  20.170  0.00  0.00    +0.000 A 
ATOM      3  C   UNL     1       0.387   9.742  21.154  0.00  0.00    +0.000 A 
ATOM      4  C   UNL     1       1.069   8.534  21.206  0.00  0.00    +0.000 A 
ATOM      5  C   UNL     1       1.721   8.088  20.073  0.00  0.00    +0.000 A 
ATOM      6  C   UNL     1       2.203   6.765  20.036  0.00  0.00    +0.000 A 
ATOM      7  C   UNL     1       2.668   6.216  18.848  0.00  0.00    +0.000 A 
ATOM      8  C   UNL     1       2.592   6.981  17.688  0.00  0.00    +0.000 A 
ATOM      9  C   UNL     1       2.172   8.336  17.763  0.00  0.00    +0.000 A 
ATOM     10  C   UNL     1       1.753   8.949  18.961  0.00  0.00    +0.000 A 
ATOM     11  N   UNL     1       1.343  10.260  19.051  0.00  0.00    +0.000 NA
ATOM     12  H   UNL     1       0.237  12.130  21.471  0.00  0.00    +0.000 HD
ENDROOT
BRANCH   1  16
ATOM     13  C   UNL     1       1.140  15.834  18.767  0.00  0.00    +0.000 A 
ATOM     14  C   UNL     1       2.159  15.027  19.257  0.00  0.00    +0.000 A 
ATOM     15  C   UNL     1       1.880  13.752  19.793  0.00  0.00    +0.000 A 
ATOM     16  C   UNL     1       0.578  13.276  19.891  0.00  0.00    +0.000 A 
ATOM     17  C   UNL     1      -0.450  14.095  19.335  0.00  0.00    +0.000 A 
ATOM     18  C   UNL     1      -0.171  15.361  18.789  0.00  0.00    +0.000 A 
BRANCH  13  19
ATOM     19  S   UNL     1       1.471  17.515  18.299  0.00  0.00    +0.000 S 
ATOM     20  O   UNL     1       0.231  18.212  18.166  0.00  0.00    +0.000 OA
ATOM     21  O   UNL     1       2.489  17.539  17.279  0.00  0.00    +0.000 OA
BRANCH  19  22
ATOM     22  N   UNL     1       2.196  18.180  19.675  0.00  0.00    +0.000 NA
ATOM     23  H   UNL     1       1.594  18.924  20.038  0.00  0.00    +0.000 HD
ATOM     24  H   UNL     1       3.131  18.507  19.459  0.00  0.00    +0.000 HD
ENDBRANCH  19  22
ENDBRANCH  13  19
ENDBRANCH   1  16
BRANCH   7  25
ATOM     25  S   UNL     1       3.076   4.460  18.817  0.00  0.00    +0.000 S 
ATOM     26  O   UNL     1       3.270   4.065  20.194  0.00  0.00    +0.000 OA
ATOM     27  O   UNL     1       2.092   3.815  17.985  0.00  0.00    +0.000 OA
BRANCH  25  28
ATOM     28  N   UNL     1       4.602   4.338  18.039  0.00  0.00    +0.000 NA
ATOM     29  C   UNL     1       4.575   4.216  16.556  0.00  0.00    +0.000 C 
ATOM     30  C   UNL     1       5.940   3.842  15.995  0.00  0.00    +0.000 C 
ATOM     31  C   UNL     1       7.020   4.798  16.473  0.00  0.00    +0.000 C 
ATOM     32  C   UNL     1       7.065   4.778  17.993  0.00  0.00    +0.000 C 
ATOM     33  C   UNL     1       5.710   5.151  18.600  0.00  0.00    +0.000 C 
ENDBRANCH  25  28
ENDBRANCH   7  25
TORSDOF 5
ENDMDL
