MODEL 1
REMARK VINA RESULT:      -7.5      0.000      0.000
REMARK  Name = 
REMARK  3 active torsions:
REMARK  status: ('A' for Active; 'I' for Inactive)
REMARK    1  A    between atoms: C_1  and  C_2
REMARK    2  A    between atoms: N_4  and  C_5
REMARK    3  A    between atoms: C_13  and  C_14
REMARK                            x       y       z     vdW  Elec       q    Type
REMARK                         _______ _______ _______ _____ _____    ______ ____
ROOT
ATOM      1  C   UNL     1       7.218   5.534  19.402  0.00  0.00    +0.000 C 
ATOM      2  C   UNL     1       6.563   5.029  18.161  0.00  0.00    +0.000 A 
ATOM      3  N   UNL     1       7.193   5.101  16.920  0.00  0.00    +0.000 N 
ATOM      4  N   UNL     1       6.222   4.735  15.971  0.00  0.00    +0.000 N 
ATOM      5  C   UNL     1       5.065   4.326  16.634  0.00  0.00    +0.000 A 
ATOM      6  O   UNL     1       4.016   3.884  16.187  0.00  0.00    +0.000 OA
ATOM      7  C   UNL     1       5.323   4.516  18.083  0.00  0.00    +0.000 A 
ATOM      8  H   UNL     1       7.607   6.017  16.745  0.00  0.00    +0.000 HD
ENDROOT
BRANCH   4   9
ATOM      9  C   UNL     1       6.522   4.600  14.599  0.00  0.00    +0.000 A 
ATOM     10  C   UNL     1       5.831   3.663  13.815  0.00  0.00    +0.000 A 
ATOM     11  C   UNL     1       6.167   3.446  12.477  0.00  0.00    +0.000 A 
ATOM     12  C   UNL     1       7.199   4.173  11.898  0.00  0.00    +0.000 A 
ATOM     13  C   UNL     1       7.872   5.136  12.649  0.00  0.00    +0.000 A 
ATOM     14  C   UNL     1       7.528   5.358  13.987  0.00  0.00    +0.000 A 
ENDBRANCH   4   9
BRANCH   7  15
ATOM     15  C   UNL     1       4.355   4.236  19.128  0.00  0.00    +0.000 A 
ATOM     16  C   UNL     1       3.487   5.239  19.574  0.00  0.00    +0.000 A 
ATOM     17  C   UNL     1       2.539   4.956  20.556  0.00  0.00    +0.000 A 
ATOM     18  C   UNL     1       2.456   3.673  21.096  0.00  0.00    +0.000 A 
ATOM     19  C   UNL     1       3.311   2.666  20.649  0.00  0.00    +0.000 A 
ATOM     20  C   UNL     1       4.262   2.949  19.667  0.00  0.00    +0.000 A 
ENDBRANCH   7  15
TORSDOF 2
ENDMDL
MODEL 2
REMARK VINA RESULT:      -7.5      0.115      1.569
REMARK  Name = 
REMARK  3 active torsions:
REMARK  status: ('A' for Active; 'I' for Inactive)
REMARK    1  A    between atoms: C_1  and  C_2
REMARK    2  A    between atoms: N_4  and  C_5
REMARK    3  A    between atoms: C_13  and  C_14
REMARK                            x       y       z     vdW  Elec       q    Type
REMARK                         _______ _______ _______ _____ _____    ______ ____
ROOT
ATOM      1  C   UNL     1       7.191   5.524  19.417  0.00  0.00    +0.000 C 
ATOM      2  C   UNL     1       6.569   5.013  18.162  0.00  0.00    +0.000 A 
ATOM      3  N   UNL     1       7.239   5.058  16.941  0.00  0.00    +0.000 N 
ATOM      4  N   UNL     1       6.293   4.695  15.965  0.00  0.00    +0.000 N 
ATOM      5  C   UNL     1       5.110   4.312  16.596  0.00  0.00    +0.000 A 
ATOM      6  O   UNL     1       4.069   3.880  16.121  0.00  0.00    +0.000 OA
ATOM      7  C   UNL     1       5.324   4.517  18.051  0.00  0.00    +0.000 A 
ATOM      8  H   UNL     1       7.673   5.965  16.767  0.00  0.00    +0.000 HD
ENDROOT
BRANCH   4   9
ATOM      9  C   UNL     1       6.635   4.536  14.606  0.00  0.00    +0.000 A 
ATOM     10  C   UNL     1       7.607   5.365  14.022  0.00  0.00    +0.000 A 
ATOM     11  C   UNL     1       7.901   5.289  12.659  0.00  0.00    +0.000 A 
ATOM     12  C   UNL     1       7.232   4.373  11.857  0.00  0.00    +0.000 A 
ATOM     13  C   UNL     1       6.291   3.516  12.425  0.00  0.00    +0.000 A 
ATOM     14  C   UNL     1       6.002   3.587  13.794  0.00  0.00    +0.000 A 
ENDBRANCH   4   9
BRANCH   7  15
ATOM     15  C   UNL     1       4.319   4.266  19.067  0.00  0.00    +0.000 A 
ATOM     16  C   UNL     1       4.203   2.999  19.648  0.00  0.00    +0.000 A 
ATOM     17  C   UNL     1       3.255   2.773  20.646  0.00  0.00    +0.000 A 
ATOM     18  C   UNL     1       2.422   3.809  21.065  0.00  0.00    +0.000 A 
ATOM     19  C   UNL     1       2.539   5.077  20.498  0.00  0.00    +0.000 A 
ATOM     20  C   UNL     1       3.486   5.304  19.497  0.00  0.00    +0.000 A 
ENDBRANCH   7  15
TORSDOF 2
ENDMDL
MODEL 3
REMARK VINA RESULT:      -7.4      0.174      1.117
REMARK  Name = 
REMARK  3 active torsions:
REMARK  status: ('A' for Active; 'I' for Inactive)
REMARK    1  A    between atoms: C_1  and  C_2
REMARK    2  A    between atoms: N_4  and  C_5
REMARK    3  A    between atoms: C_13  and  C_14
REMARK                            x       y       z     vdW  Elec       q    Type
REMARK                         _______ _______ _______ _____ _____    ______ ____
ROOT
ATOM      1  C   UNL     1       7.060   5.563  19.491  0.00  0.00    +0.000 C 
ATOM      2  C   UNL     1       6.432   5.020  18.253  0.00  0.00    +0.000 A 
ATOM      3  N   UNL     1       7.092   5.046  17.025  0.00  0.00    +0.000 N 
ATOM      4  N   UNL     1       6.141   4.654  16.066  0.00  0.00    +0.000 N 
ATOM      5  C   UNL     1       4.967   4.272  16.714  0.00  0.00    +0.000 A 
ATOM      6  O   UNL     1       3.927   3.820  16.257  0.00  0.00    +0.000 OA
ATOM      7  C   UNL     1       5.191   4.510  18.162  0.00  0.00    +0.000 A 
ATOM      8  H   UNL     1       7.515   5.954  16.830  0.00  0.00    +0.000 HD
ENDROOT
BRANCH   4   9
ATOM      9  C   UNL     1       6.473   4.471  14.707  0.00  0.00    +0.000 A 
ATOM     10  C   UNL     1       7.506   5.224  14.125  0.00  0.00    +0.000 A 
ATOM     11  C   UNL     1       7.797   5.127  12.764  0.00  0.00    +0.000 A 
ATOM     12  C   UNL     1       7.063   4.265  11.960  0.00  0.00    +0.000 A 
ATOM     13  C   UNL     1       6.059   3.480  12.525  0.00  0.00    +0.000 A 
ATOM     14  C   UNL     1       5.774   3.572  13.893  0.00  0.00    +0.000 A 
ENDBRANCH   4   9
BRANCH   7  15
ATOM     15  C   UNL     1       4.197   4.270  19.193  0.00  0.00    +0.000 A 
ATOM     16  C   UNL     1       3.347   5.300  19.607  0.00  0.00    +0.000 A 
ATOM     17  C   UNL     1       2.374   5.055  20.576  0.00  0.00    +0.000 A 
ATOM     18  C   UNL     1       2.248   3.783  21.132  0.00  0.00    +0.000 A 
ATOM     19  C   UNL     1       3.085   2.748  20.715  0.00  0.00    +0.000 A 
ATOM     20  C   UNL     1       4.061   2.993  19.748  0.00  0.00    +0.000 A 
ENDBRANCH   7  15
TORSDOF 2
ENDMDL
MODEL 4
REMARK VINA RESULT:      -7.4      0.216      1.130
REMARK  Name = 
REMARK  3 active torsions:
REMARK  status: ('A' for Active; 'I' for Inactive)
REMARK    1  A    between atoms: C_1  and  C_2
REMARK    2  A    between atoms: N_4  and  C_5
REMARK    3  A    between atoms: C_13  and  C_14
REMARK                            x       y       z     vdW  Elec       q    Type
REMARK                         _______ _______ _______ _____ _____    ______ ____
ROOT
ATOM      1  C   UNL     1       6.987   5.542  19.455  0.00  0.00    +0.000 C 
ATOM      2  C   UNL     1       6.349   5.034  18.207  0.00  0.00    +0.000 A 
ATOM      3  N   UNL     1       7.003   5.082  16.977  0.00  0.00    +0.000 N 
ATOM      4  N   UNL     1       6.045   4.721  16.013  0.00  0.00    +0.000 N 
ATOM      5  C   UNL     1       4.870   4.336  16.658  0.00  0.00    +0.000 A 
ATOM      6  O   UNL     1       3.824   3.904  16.196  0.00  0.00    +0.000 OA
ATOM      7  C   UNL     1       5.103   4.537  18.110  0.00  0.00    +0.000 A 
ATOM      8  H   UNL     1       7.434   5.990  16.801  0.00  0.00    +0.000 HD
ENDROOT
BRANCH   4   9
ATOM      9  C   UNL     1       6.369   4.566  14.649  0.00  0.00    +0.000 A 
ATOM     10  C   UNL     1       5.620   3.697  13.840  0.00  0.00    +0.000 A 
ATOM     11  C   UNL     1       5.972   3.459  12.510  0.00  0.00    +0.000 A 
ATOM     12  C   UNL     1       7.079   4.095  11.964  0.00  0.00    +0.000 A 
ATOM     13  C   UNL     1       7.814   4.990  12.739  0.00  0.00    +0.000 A 
ATOM     14  C   UNL     1       7.455   5.235  14.070  0.00  0.00    +0.000 A 
ENDBRANCH   4   9
BRANCH   7  15
ATOM     15  C   UNL     1       4.111   4.283  19.139  0.00  0.00    +0.000 A 
ATOM     16  C   UNL     1       4.009   3.016  19.723  0.00  0.00    +0.000 A 
ATOM     17  C   UNL     1       3.074   2.787  20.733  0.00  0.00    +0.000 A 
ATOM     18  C   UNL     1       2.241   3.819  21.160  0.00  0.00    +0.000 A 
ATOM     19  C   UNL     1       2.345   5.087  20.589  0.00  0.00    +0.000 A 
ATOM     20  C   UNL     1       3.278   5.318  19.577  0.00  0.00    +0.000 A 
ENDBRANCH   7  15
TORSDOF 2
ENDMDL
MODEL 5
REMARK VINA RESULT:      -7.3      5.318      7.111
REMARK  Name = 
REMARK  3 active torsions:
REMARK  status: ('A' for Active; 'I' for Inactive)
REMARK    1  A    between atoms: C_1  and  C_2
REMARK    2  A    between atoms: N_4  and  C_5
REMARK    3  A    between atoms: C_13  and  C_14
REMARK                            x       y       z     vdW  Elec       q    Type
REMARK                         _______ _______ _______ _____ _____    ______ ____
ROOT
ATOM      1  C   UNL     1       0.927   9.013  21.864  0.00  0.00    +0.000 C 
ATOM      2  C   UNL     1       1.354   8.579  20.503  0.00  0.00    +0.000 A 
ATOM      3  N   UNL     1       1.981   7.353  20.288  0.00  0.00    +0.000 N 
ATOM      4  N   UNL     1       2.420   7.370  18.952  0.00  0.00    +0.000 N 
ATOM      5  C   UNL     1       1.955   8.530  18.333  0.00  0.00    +0.000 A 
ATOM      6  O   UNL     1       2.066   8.902  17.173  0.00  0.00    +0.000 OA
ATOM      7  C   UNL     1       1.240   9.306  19.377  0.00  0.00    +0.000 A 
ATOM      8  H   UNL     1       2.729   7.174  20.959  0.00  0.00    +0.000 HD
ENDROOT
BRANCH   4   9
ATOM      9  C   UNL     1       3.021   6.249  18.342  0.00  0.00    +0.000 A 
ATOM     10  C   UNL     1       4.316   6.347  17.807  0.00  0.00    +0.000 A 
ATOM     11  C   UNL     1       4.900   5.281  17.121  0.00  0.00    +0.000 A 
ATOM     12  C   UNL     1       4.200   4.092  16.965  0.00  0.00    +0.000 A 
ATOM     13  C   UNL     1       2.928   3.962  17.522  0.00  0.00    +0.000 A 
ATOM     14  C   UNL     1       2.346   5.029  18.217  0.00  0.00    +0.000 A 
ENDBRANCH   4   9
BRANCH   7  15
ATOM     15  C   UNL     1       0.626  10.602  19.154  0.00  0.00    +0.000 A 
ATOM     16  C   UNL     1       1.390  11.770  19.244  0.00  0.00    +0.000 A 
ATOM     17  C   UNL     1       0.801  13.010  18.999  0.00  0.00    +0.000 A 
ATOM     18  C   UNL     1      -0.551  13.087  18.664  0.00  0.00    +0.000 A 
ATOM     19  C   UNL     1      -1.315  11.925  18.563  0.00  0.00    +0.000 A 
ATOM     20  C   UNL     1      -0.728  10.684  18.810  0.00  0.00    +0.000 A 
ENDBRANCH   7  15
TORSDOF 2
ENDMDL
MODEL 6
REMARK VINA RESULT:      -7.3      1.659      2.328
REMARK  Name = 
REMARK  3 active torsions:
REMARK  status: ('A' for Active; 'I' for Inactive)
REMARK    1  A    between atoms: C_1  and  C_2
REMARK    2  A    between atoms: N_4  and  C_5
REMARK    3  A    between atoms: C_13  and  C_14
REMARK                            x       y       z     vdW  Elec       q    Type
REMARK                         _______ _______ _______ _____ _____    ______ ____
ROOT
ATOM      1  C   UNL     1       3.114   7.047  18.471  0.00  0.00    +0.000 C 
ATOM      2  C   UNL     1       3.713   5.894  17.741  0.00  0.00    +0.000 A 
ATOM      3  N   UNL     1       4.514   6.076  16.615  0.00  0.00    +0.000 N 
ATOM      4  N   UNL     1       4.725   4.794  16.077  0.00  0.00    +0.000 N 
ATOM      5  C   UNL     1       4.171   3.842  16.933  0.00  0.00    +0.000 A 
ATOM      6  O   UNL     1       4.181   2.621  16.864  0.00  0.00    +0.000 OA
ATOM      7  C   UNL     1       3.521   4.595  18.034  0.00  0.00    +0.000 A 
ATOM      8  H   UNL     1       4.106   6.734  15.949  0.00  0.00    +0.000 HD
ENDROOT
BRANCH   4   9
ATOM      9  C   UNL     1       5.575   4.570  14.974  0.00  0.00    +0.000 A 
ATOM     10  C   UNL     1       6.843   5.171  14.927  0.00  0.00    +0.000 A 
ATOM     11  C   UNL     1       7.669   5.037  13.810  0.00  0.00    +0.000 A 
ATOM     12  C   UNL     1       7.242   4.290  12.720  0.00  0.00    +0.000 A 
ATOM     13  C   UNL     1       6.002   3.654  12.762  0.00  0.00    +0.000 A 
ATOM     14  C   UNL     1       5.178   3.781  13.887  0.00  0.00    +0.000 A 
ENDBRANCH   4   9
BRANCH   7  15
ATOM     15  C   UNL     1       2.796   3.977  19.130  0.00  0.00    +0.000 A 
ATOM     16  C   UNL     1       3.490   3.386  20.191  0.00  0.00    +0.000 A 
ATOM     17  C   UNL     1       2.787   2.821  21.254  0.00  0.00    +0.000 A 
ATOM     18  C   UNL     1       1.393   2.844  21.261  0.00  0.00    +0.000 A 
ATOM     19  C   UNL     1       0.696   3.441  20.212  0.00  0.00    +0.000 A 
ATOM     20  C   UNL     1       1.398   4.005  19.145  0.00  0.00    +0.000 A 
ENDBRANCH   7  15
TORSDOF 2
ENDMDL
MODEL 7
REMARK VINA RESULT:      -7.3      1.677      2.248
REMARK  Name = 
REMARK  3 active torsions:
REMARK  status: ('A' for Active; 'I' for Inactive)
REMARK    1  A    between atoms: C_1  and  C_2
REMARK    2  A    between atoms: N_4  and  C_5
REMARK    3  A    between atoms: C_13  and  C_14
REMARK                            x       y       z     vdW  Elec       q    Type
REMARK                         _______ _______ _______ _____ _____    ______ ____
ROOT
ATOM      1  C   UNL     1       2.996   7.053  18.531  0.00  0.00    +0.000 C 
ATOM      2  C   UNL     1       3.625   5.904  17.820  0.00  0.00    +0.000 A 
ATOM      3  N   UNL     1       4.430   6.089  16.697  0.00  0.00    +0.000 N 
ATOM      4  N   UNL     1       4.671   4.805  16.177  0.00  0.00    +0.000 N 
ATOM      5  C   UNL     1       4.131   3.852  17.041  0.00  0.00    +0.000 A 
ATOM      6  O   UNL     1       4.168   2.631  16.987  0.00  0.00    +0.000 OA
ATOM      7  C   UNL     1       3.458   4.605  18.128  0.00  0.00    +0.000 A 
ATOM      8  H   UNL     1       4.013   6.730  16.020  0.00  0.00    +0.000 HD
ENDROOT
BRANCH   4   9
ATOM      9  C   UNL     1       5.534   4.585  15.083  0.00  0.00    +0.000 A 
ATOM     10  C   UNL     1       6.814   5.163  15.067  0.00  0.00    +0.000 A 
ATOM     11  C   UNL     1       7.654   5.034  13.960  0.00  0.00    +0.000 A 
ATOM     12  C   UNL     1       7.230   4.316  12.849  0.00  0.00    +0.000 A 
ATOM     13  C   UNL     1       5.978   3.703  12.861  0.00  0.00    +0.000 A 
ATOM     14  C   UNL     1       5.139   3.825  13.975  0.00  0.00    +0.000 A 
ENDBRANCH   4   9
BRANCH   7  15
ATOM     15  C   UNL     1       2.738   3.986  19.226  0.00  0.00    +0.000 A 
ATOM     16  C   UNL     1       1.342   3.897  19.194  0.00  0.00    +0.000 A 
ATOM     17  C   UNL     1       0.659   3.274  20.238  0.00  0.00    +0.000 A 
ATOM     18  C   UNL     1       1.366   2.739  21.313  0.00  0.00    +0.000 A 
ATOM     19  C   UNL     1       2.758   2.815  21.346  0.00  0.00    +0.000 A 
ATOM     20  C   UNL     1       3.443   3.441  20.304  0.00  0.00    +0.000 A 
ENDBRANCH   7  15
TORSDOF 2
ENDMDL
MODEL 8
REMARK VINA RESULT:      -7.3      5.250      7.171
REMARK  Name = 
REMARK  3 active torsions:
REMARK  status: ('A' for Active; 'I' for Inactive)
REMARK    1  A    between atoms: C_1  and  C_2
REMARK    2  A    between atoms: N_4  and  C_5
REMARK    3  A    between atoms: C_13  and  C_14
REMARK                            x       y       z     vdW  Elec       q    Type
REMARK                         _______ _______ _______ _____ _____    ______ ____
ROOT
ATOM      1  C   UNL     1       0.734   9.120  21.946  0.00  0.00    +0.000 C 
ATOM      2  C   UNL     1       1.247   8.569  20.659  0.00  0.00    +0.000 A 
ATOM      3  N   UNL     1       1.867   7.323  20.591  0.00  0.00    +0.000 N 
ATOM      4  N   UNL     1       2.397   7.224  19.292  0.00  0.00    +0.000 N 
ATOM      5  C   UNL     1       1.994   8.333  18.548  0.00  0.00    +0.000 A 
ATOM      6  O   UNL     1       2.191   8.605  17.372  0.00  0.00    +0.000 OA
ATOM      7  C   UNL     1       1.221   9.200  19.472  0.00  0.00    +0.000 A 
ATOM      8  H   UNL     1       2.564   7.194  21.325  0.00  0.00    +0.000 HD
ENDROOT
BRANCH   4   9
ATOM      9  C   UNL     1       3.022   6.051  18.820  0.00  0.00    +0.000 A 
ATOM     10  C   UNL     1       2.331   5.180  17.962  0.00  0.00    +0.000 A 
ATOM     11  C   UNL     1       2.891   3.970  17.550  0.00  0.00    +0.000 A 
ATOM     12  C   UNL     1       4.161   3.613  17.986  0.00  0.00    +0.000 A 
ATOM     13  C   UNL     1       4.879   4.480  18.808  0.00  0.00    +0.000 A 
ATOM     14  C   UNL     1       4.319   5.698  19.213  0.00  0.00    +0.000 A 
ENDBRANCH   4   9
BRANCH   7  15
ATOM     15  C   UNL     1       0.644  10.479  19.100  0.00  0.00    +0.000 A 
ATOM     16  C   UNL     1       1.438  11.631  19.075  0.00  0.00    +0.000 A 
ATOM     17  C   UNL     1       0.884  12.851  18.688  0.00  0.00    +0.000 A 
ATOM     18  C   UNL     1      -0.460  12.924  18.325  0.00  0.00    +0.000 A 
ATOM     19  C   UNL     1      -1.254  11.778  18.338  0.00  0.00    +0.000 A 
ATOM     20  C   UNL     1      -0.702  10.557  18.728  0.00  0.00    +0.000 A 
ENDBRANCH   7  15
TORSDOF 2
ENDMDL
MODEL 9
REMARK VINA RESULT:      -7.3      5.221      7.198
REMARK  Name = 
REMARK  3 active torsions:
REMARK  status: ('A' for Active; 'I' for Inactive)
REMARK    1  A    between atoms: C_1  and  C_2
REMARK    2  A    between atoms: N_4  and  C_5
REMARK    3  A    between atoms: C_13  and  C_14
REMARK                            x       y       z     vdW  Elec       q    Type
REMARK                         _______ _______ _______ _____ _____    ______ ____
ROOT
ATOM      1  C   UNL     1       0.784   9.140  21.938  0.00  0.00    +0.000 C 
ATOM      2  C   UNL     1       1.279   8.560  20.656  0.00  0.00    +0.000 A 
ATOM      3  N   UNL     1       1.902   7.314  20.609  0.00  0.00    +0.000 N 
ATOM      4  N   UNL     1       2.413   7.185  19.305  0.00  0.00    +0.000 N 
ATOM      5  C   UNL     1       1.995   8.275  18.541  0.00  0.00    +0.000 A 
ATOM      6  O   UNL     1       2.173   8.519  17.356  0.00  0.00    +0.000 OA
ATOM      7  C   UNL     1       1.234   9.162  19.455  0.00  0.00    +0.000 A 
ATOM      8  H   UNL     1       2.610   7.204  21.335  0.00  0.00    +0.000 HD
ENDROOT
BRANCH   4   9
ATOM      9  C   UNL     1       3.033   6.002  18.852  0.00  0.00    +0.000 A 
ATOM     10  C   UNL     1       4.343   5.695  19.253  0.00  0.00    +0.000 A 
ATOM     11  C   UNL     1       5.012   4.577  18.751  0.00  0.00    +0.000 A 
ATOM     12  C   UNL     1       4.376   3.741  17.842  0.00  0.00    +0.000 A 
ATOM     13  C   UNL     1       3.062   4.008  17.460  0.00  0.00    +0.000 A 
ATOM     14  C   UNL     1       2.389   5.124  17.971  0.00  0.00    +0.000 A 
ENDBRANCH   4   9
BRANCH   7  15
ATOM     15  C   UNL     1       0.647  10.430  19.062  0.00  0.00    +0.000 A 
ATOM     16  C   UNL     1      -0.711  10.510  18.735  0.00  0.00    +0.000 A 
ATOM     17  C   UNL     1      -1.274  11.737  18.387  0.00  0.00    +0.000 A 
ATOM     18  C   UNL     1      -0.485  12.886  18.364  0.00  0.00    +0.000 A 
ATOM     19  C   UNL     1       0.867  12.815  18.698  0.00  0.00    +0.000 A 
ATOM     20  C   UNL     1       1.433  11.587  19.044  0.00  0.00    +0.000 A 
ENDBRANCH   7  15
TORSDOF 2
ENDMDL
