MODEL 1
REMARK VINA RESULT:      -8.5      0.000      0.000
REMARK  Name = 
REMARK  8 active torsions:
REMARK  status: ('A' for Active; 'I' for Inactive)
REMARK    1  A    between atoms: C_1  and  C_2
REMARK    2  A    between atoms: C_2  and  C_3
REMARK    3  A    between atoms: C_2  and  C_4
REMARK    4  A    between atoms: C_4  and  S_5
REMARK    5  A    between atoms: S_5  and  N_8
REMARK    6  A    between atoms: N_8  and  C_9
REMARK    7  A    between atoms: C_14  and  C_15
REMARK    8  A    between atoms: C_15  and  C_17
REMARK                            x       y       z     vdW  Elec       q    Type
REMARK                         _______ _______ _______ _____ _____    ______ ____
ROOT
ATOM      1  C   UNL     1       4.671   3.871  17.951  0.00  0.00    +0.000 A 
ATOM      2  C   UNL     1       3.859   2.885  17.392  0.00  0.00    +0.000 A 
ATOM      3  C   UNL     1       2.499   2.846  17.693  0.00  0.00    +0.000 A 
ATOM      4  C   UNL     1       1.943   3.789  18.554  0.00  0.00    +0.000 A 
ATOM      5  F   UNL     1       0.617   3.721  18.735  0.00  0.00    +0.000 F 
ATOM      6  C   UNL     1       2.732   4.759  19.178  0.00  0.00    +0.000 A 
ATOM      7  C   UNL     1       4.098   4.807  18.837  0.00  0.00    +0.000 A 
ATOM      8  F   UNL     1       4.914   5.721  19.386  0.00  0.00    +0.000 F 
ENDROOT
BRANCH   1   9
ATOM      9  N   UNL     1       6.081   3.928  17.598  0.00  0.00    +0.000 N 
ATOM     10  H   UNL     1       6.654   4.220  18.394  0.00  0.00    +0.000 HD
BRANCH   9  11
ATOM     11  S   UNL     1       6.457   4.906  16.236  0.00  0.00    +0.000 S 
ATOM     12  O   UNL     1       5.357   4.764  15.309  0.00  0.00    +0.000 OA
ATOM     13  O   UNL     1       7.824   4.619  15.851  0.00  0.00    +0.000 OA
BRANCH  11  14
ATOM     14  C   UNL     1       6.405   6.591  16.895  0.00  0.00    +0.000 C 
BRANCH  14  16
ATOM     15  C   UNL     1       7.826   8.543  17.688  0.00  0.00    +0.000 C 
ATOM     16  C   UNL     1       7.749   7.019  17.540  0.00  0.00    +0.000 C 
ATOM     17  C   UNL     1       7.996   6.396  18.919  0.00  0.00    +0.000 C 
ENDBRANCH  14  16
ENDBRANCH  11  14
ENDBRANCH   9  11
ENDBRANCH   1   9
BRANCH   6  18
ATOM     18  C   UNL     1       2.140   5.770  20.111  0.00  0.00    +0.000 C 
ATOM     19  O   UNL     1       1.856   5.442  21.246  0.00  0.00    +0.000 OA
BRANCH  18  20
ATOM     20  C   UNL     1       1.920   7.154  19.653  0.00  0.00    +0.000 A 
ATOM     21  C   UNL     1       2.075   7.591  18.346  0.00  0.00    +0.000 A 
ATOM     22  N   UNL     1       1.773   8.923  18.284  0.00  0.00    +0.000 N 
ATOM     23  C   UNL     1       1.425   9.375  19.524  0.00  0.00    +0.000 A 
ATOM     24  N   UNL     1       1.070  10.641  19.796  0.00  0.00    +0.000 NA
ATOM     25  C   UNL     1       0.779  10.804  21.098  0.00  0.00    +0.000 A 
ATOM     26  N   UNL     1       0.820   9.875  22.073  0.00  0.00    +0.000 NA
ATOM     27  C   UNL     1       1.182   8.608  21.736  0.00  0.00    +0.000 A 
ATOM     28  C   UNL     1       1.502   8.306  20.410  0.00  0.00    +0.000 A 
ATOM     29  H   UNL     1       1.793   9.503  17.458  0.00  0.00    +0.000 HD
ENDBRANCH  18  20
ENDBRANCH   6  18
TORSDOF 6
ENDMDL
MODEL 2
REMARK VINA RESULT:      -8.3      1.924      2.911
REMARK  Name = 
REMARK  8 active torsions:
REMARK  status: ('A' for Active; 'I' for Inactive)
REMARK    1  A    between atoms: C_1  and  C_2
REMARK    2  A    between atoms: C_2  and  C_3
REMARK    3  A    between atoms: C_2  and  C_4
REMARK    4  A    between atoms: C_4  and  S_5
REMARK    5  A    between atoms: S_5  and  N_8
REMARK    6  A    between atoms: N_8  and  C_9
REMARK    7  A    between atoms: C_14  and  C_15
REMARK    8  A    between atoms: C_15  and  C_17
REMARK                            x       y       z     vdW  Elec       q    Type
REMARK                         _______ _______ _______ _____ _____    ______ ____
ROOT
ATOM      1  C   UNL     1       4.753   4.160  17.789  0.00  0.00    +0.000 A 
ATOM      2  C   UNL     1       3.929   3.358  17.000  0.00  0.00    +0.000 A 
ATOM      3  C   UNL     1       2.586   3.197  17.331  0.00  0.00    +0.000 A 
ATOM      4  C   UNL     1       2.058   3.834  18.452  0.00  0.00    +0.000 A 
ATOM      5  F   UNL     1       0.743   3.681  18.659  0.00  0.00    +0.000 F 
ATOM      6  C   UNL     1       2.862   4.600  19.300  0.00  0.00    +0.000 A 
ATOM      7  C   UNL     1       4.211   4.782  18.932  0.00  0.00    +0.000 A 
ATOM      8  F   UNL     1       5.039   5.517  19.691  0.00  0.00    +0.000 F 
ENDROOT
BRANCH   1   9
ATOM      9  N   UNL     1       6.145   4.354  17.411  0.00  0.00    +0.000 N 
ATOM     10  H   UNL     1       6.682   4.783  18.169  0.00  0.00    +0.000 HD
BRANCH   9  11
ATOM     11  S   UNL     1       6.394   5.244  15.963  0.00  0.00    +0.000 S 
ATOM     12  O   UNL     1       7.626   5.980  16.137  0.00  0.00    +0.000 OA
ATOM     13  O   UNL     1       5.148   5.904  15.630  0.00  0.00    +0.000 OA
BRANCH  11  14
ATOM     14  C   UNL     1       6.693   3.961  14.722  0.00  0.00    +0.000 C 
BRANCH  14  16
ATOM     15  C   UNL     1       7.727   5.080  12.687  0.00  0.00    +0.000 C 
ATOM     16  C   UNL     1       6.451   4.465  13.275  0.00  0.00    +0.000 C 
ATOM     17  C   UNL     1       5.967   3.372  12.316  0.00  0.00    +0.000 C 
ENDBRANCH  14  16
ENDBRANCH  11  14
ENDBRANCH   9  11
ENDBRANCH   1   9
BRANCH   6  18
ATOM     18  C   UNL     1       2.301   5.279  20.511  0.00  0.00    +0.000 C 
ATOM     19  O   UNL     1       2.261   4.681  21.567  0.00  0.00    +0.000 OA
BRANCH  18  20
ATOM     20  C   UNL     1       1.817   6.670  20.417  0.00  0.00    +0.000 A 
ATOM     21  C   UNL     1       1.083   7.321  21.396  0.00  0.00    +0.000 A 
ATOM     22  N   UNL     1       0.823   8.598  20.979  0.00  0.00    +0.000 N 
ATOM     23  C   UNL     1       1.368   8.800  19.745  0.00  0.00    +0.000 A 
ATOM     24  N   UNL     1       1.291   9.954  19.063  0.00  0.00    +0.000 NA
ATOM     25  C   UNL     1       1.915   9.870  17.877  0.00  0.00    +0.000 A 
ATOM     26  N   UNL     1       2.555   8.804  17.356  0.00  0.00    +0.000 NA
ATOM     27  C   UNL     1       2.605   7.665  18.096  0.00  0.00    +0.000 A 
ATOM     28  C   UNL     1       1.999   7.624  19.354  0.00  0.00    +0.000 A 
ATOM     29  H   UNL     1       0.312   9.301  21.492  0.00  0.00    +0.000 HD
ENDBRANCH  18  20
ENDBRANCH   6  18
TORSDOF 6
ENDMDL
MODEL 3
REMARK VINA RESULT:      -8.2      2.003      2.667
REMARK  Name = 
REMARK  8 active torsions:
REMARK  status: ('A' for Active; 'I' for Inactive)
REMARK    1  A    between atoms: C_1  and  C_2
REMARK    2  A    between atoms: C_2  and  C_3
REMARK    3  A    between atoms: C_2  and  C_4
REMARK    4  A    between atoms: C_4  and  S_5
REMARK    5  A    between atoms: S_5  and  N_8
REMARK    6  A    between atoms: N_8  and  C_9
REMARK    7  A    between atoms: C_14  and  C_15
REMARK    8  A    between atoms: C_15  and  C_17
REMARK                            x       y       z     vdW  Elec       q    Type
REMARK                         _______ _______ _______ _____ _____    ______ ____
ROOT
ATOM      1  C   UNL     1       4.773   4.232  17.386  0.00  0.00    +0.000 A 
ATOM      2  C   UNL     1       3.936   3.252  16.854  0.00  0.00    +0.000 A 
ATOM      3  C   UNL     1       2.607   3.170  17.265  0.00  0.00    +0.000 A 
ATOM      4  C   UNL     1       2.107   4.064  18.208  0.00  0.00    +0.000 A 
ATOM      5  F   UNL     1       0.802   3.958  18.495  0.00  0.00    +0.000 F 
ATOM      6  C   UNL     1       2.926   5.024  18.807  0.00  0.00    +0.000 A 
ATOM      7  C   UNL     1       4.258   5.118  18.356  0.00  0.00    +0.000 A 
ATOM      8  F   UNL     1       5.100   6.026  18.875  0.00  0.00    +0.000 F 
ENDROOT
BRANCH   1   9
ATOM      9  N   UNL     1       6.147   4.335  16.921  0.00  0.00    +0.000 N 
ATOM     10  H   UNL     1       6.733   4.835  17.595  0.00  0.00    +0.000 HD
BRANCH   9  11
ATOM     11  S   UNL     1       6.344   5.035  15.365  0.00  0.00    +0.000 S 
ATOM     12  O   UNL     1       7.719   5.475  15.280  0.00  0.00    +0.000 OA
ATOM     13  O   UNL     1       5.235   5.941  15.144  0.00  0.00    +0.000 OA
BRANCH  11  14
ATOM     14  C   UNL     1       6.148   3.631  14.239  0.00  0.00    +0.000 C 
BRANCH  14  16
ATOM     15  C   UNL     1       7.189   3.937  11.941  0.00  0.00    +0.000 C 
ATOM     16  C   UNL     1       5.908   4.074  12.772  0.00  0.00    +0.000 C 
ATOM     17  C   UNL     1       4.799   3.286  12.066  0.00  0.00    +0.000 C 
ENDBRANCH  14  16
ENDBRANCH  11  14
ENDBRANCH   9  11
ENDBRANCH   1   9
BRANCH   6  18
ATOM     18  C   UNL     1       2.395   5.982  19.828  0.00  0.00    +0.000 C 
ATOM     19  O   UNL     1       2.253   5.614  20.976  0.00  0.00    +0.000 OA
BRANCH  18  20
ATOM     20  C   UNL     1       2.064   7.366  19.437  0.00  0.00    +0.000 A 
ATOM     21  C   UNL     1       2.161   7.871  18.150  0.00  0.00    +0.000 A 
ATOM     22  N   UNL     1       1.759   9.178  18.155  0.00  0.00    +0.000 N 
ATOM     23  C   UNL     1       1.403   9.546  19.419  0.00  0.00    +0.000 A 
ATOM     24  N   UNL     1       0.959  10.768  19.755  0.00  0.00    +0.000 NA
ATOM     25  C   UNL     1       0.683  10.850  21.067  0.00  0.00    +0.000 A 
ATOM     26  N   UNL     1       0.812   9.884  21.998  0.00  0.00    +0.000 NA
ATOM     27  C   UNL     1       1.260   8.665  21.597  0.00  0.00    +0.000 A 
ATOM     28  C   UNL     1       1.576   8.447  20.253  0.00  0.00    +0.000 A 
ATOM     29  H   UNL     1       1.720   9.794  17.356  0.00  0.00    +0.000 HD
ENDBRANCH  18  20
ENDBRANCH   6  18
TORSDOF 6
ENDMDL
MODEL 4
REMARK VINA RESULT:      -8.0      1.071      2.011
REMARK  Name = 
REMARK  8 active torsions:
REMARK  status: ('A' for Active; 'I' for Inactive)
REMARK    1  A    between atoms: C_1  and  C_2
REMARK    2  A    between atoms: C_2  and  C_3
REMARK    3  A    between atoms: C_2  and  C_4
REMARK    4  A    between atoms: C_4  and  S_5
REMARK    5  A    between atoms: S_5  and  N_8
REMARK    6  A    between atoms: N_8  and  C_9
REMARK    7  A    between atoms: C_14  and  C_15
REMARK    8  A    between atoms: C_15  and  C_17
REMARK                            x       y       z     vdW  Elec       q    Type
REMARK                         _______ _______ _______ _____ _____    ______ ____
ROOT
ATOM      1  C   UNL     1       4.139   3.547  17.863  0.00  0.00    +0.000 A 
ATOM      2  C   UNL     1       3.129   2.786  17.276  0.00  0.00    +0.000 A 
ATOM      3  C   UNL     1       1.835   2.826  17.792  0.00  0.00    +0.000 A 
ATOM      4  C   UNL     1       1.544   3.622  18.897  0.00  0.00    +0.000 A 
ATOM      5  F   UNL     1       0.262   3.655  19.285  0.00  0.00    +0.000 F 
ATOM      6  C   UNL     1       2.539   4.356  19.548  0.00  0.00    +0.000 A 
ATOM      7  C   UNL     1       3.834   4.333  18.993  0.00  0.00    +0.000 A 
ATOM      8  F   UNL     1       4.837   5.025  19.557  0.00  0.00    +0.000 F 
ENDROOT
BRANCH   1   9
ATOM      9  N   UNL     1       5.477   3.531  17.292  0.00  0.00    +0.000 N 
ATOM     10  H   UNL     1       6.195   3.600  18.018  0.00  0.00    +0.000 HD
BRANCH   9  11
ATOM     11  S   UNL     1       5.773   4.715  16.083  0.00  0.00    +0.000 S 
ATOM     12  O   UNL     1       4.744   5.721  16.230  0.00  0.00    +0.000 OA
ATOM     13  O   UNL     1       5.993   4.022  14.830  0.00  0.00    +0.000 OA
BRANCH  11  14
ATOM     14  C   UNL     1       7.343   5.459  16.591  0.00  0.00    +0.000 C 
BRANCH  14  16
ATOM     15  C   UNL     1       7.908   5.959  19.018  0.00  0.00    +0.000 C 
ATOM     16  C   UNL     1       7.174   6.457  17.767  0.00  0.00    +0.000 C 
ATOM     17  C   UNL     1       7.680   7.869  17.452  0.00  0.00    +0.000 C 
ENDBRANCH  14  16
ENDBRANCH  11  14
ENDBRANCH   9  11
ENDBRANCH   1   9
BRANCH   6  18
ATOM     18  C   UNL     1       2.232   5.207  20.741  0.00  0.00    +0.000 C 
ATOM     19  O   UNL     1       2.385   4.751  21.856  0.00  0.00    +0.000 OA
BRANCH  18  20
ATOM     20  C   UNL     1       1.763   6.593  20.555  0.00  0.00    +0.000 A 
ATOM     21  C   UNL     1       0.998   7.301  21.470  0.00  0.00    +0.000 A 
ATOM     22  N   UNL     1       0.763   8.554  20.976  0.00  0.00    +0.000 N 
ATOM     23  C   UNL     1       1.355   8.687  19.754  0.00  0.00    +0.000 A 
ATOM     24  N   UNL     1       1.311   9.803  19.009  0.00  0.00    +0.000 NA
ATOM     25  C   UNL     1       1.978   9.652  17.853  0.00  0.00    +0.000 A 
ATOM     26  N   UNL     1       2.628   8.556  17.414  0.00  0.00    +0.000 NA
ATOM     27  C   UNL     1       2.642   7.457  18.215  0.00  0.00    +0.000 A 
ATOM     28  C   UNL     1       1.991   7.488  19.450  0.00  0.00    +0.000 A 
ATOM     29  H   UNL     1       0.239   9.287  21.432  0.00  0.00    +0.000 HD
ENDBRANCH  18  20
ENDBRANCH   6  18
TORSDOF 6
ENDMDL
MODEL 5
REMARK VINA RESULT:      -7.9      2.920      4.315
REMARK  Name = 
REMARK  8 active torsions:
REMARK  status: ('A' for Active; 'I' for Inactive)
REMARK    1  A    between atoms: C_1  and  C_2
REMARK    2  A    between atoms: C_2  and  C_3
REMARK    3  A    between atoms: C_2  and  C_4
REMARK    4  A    between atoms: C_4  and  S_5
REMARK    5  A    between atoms: S_5  and  N_8
REMARK    6  A    between atoms: N_8  and  C_9
REMARK    7  A    between atoms: C_14  and  C_15
REMARK    8  A    between atoms: C_15  and  C_17
REMARK                            x       y       z     vdW  Elec       q    Type
REMARK                         _______ _______ _______ _____ _____    ______ ____
ROOT
ATOM      1  C   UNL     1       6.369   4.133  16.227  0.00  0.00    +0.000 A 
ATOM      2  C   UNL     1       7.363   4.620  17.075  0.00  0.00    +0.000 A 
ATOM      3  C   UNL     1       7.040   5.030  18.366  0.00  0.00    +0.000 A 
ATOM      4  C   UNL     1       5.724   4.959  18.818  0.00  0.00    +0.000 A 
ATOM      5  F   UNL     1       5.514   5.309  20.094  0.00  0.00    +0.000 F 
ATOM      6  C   UNL     1       4.691   4.530  17.981  0.00  0.00    +0.000 A 
ATOM      7  C   UNL     1       5.038   4.085  16.690  0.00  0.00    +0.000 A 
ATOM      8  F   UNL     1       4.100   3.646  15.837  0.00  0.00    +0.000 F 
ENDROOT
BRANCH   1   9
ATOM      9  N   UNL     1       6.723   3.668  14.895  0.00  0.00    +0.000 N 
ATOM     10  H   UNL     1       7.589   3.123  14.907  0.00  0.00    +0.000 HD
BRANCH   9  11
ATOM     11  S   UNL     1       6.837   4.893  13.696  0.00  0.00    +0.000 S 
ATOM     12  O   UNL     1       8.162   5.461  13.810  0.00  0.00    +0.000 OA
ATOM     13  O   UNL     1       5.643   5.710  13.785  0.00  0.00    +0.000 OA
BRANCH  11  14
ATOM     14  C   UNL     1       6.768   3.973  12.139  0.00  0.00    +0.000 C 
BRANCH  14  16
ATOM     15  C   UNL     1       4.371   3.410  11.508  0.00  0.00    +0.000 C 
ATOM     16  C   UNL     1       5.665   2.883  12.141  0.00  0.00    +0.000 C 
ATOM     17  C   UNL     1       6.065   1.601  11.403  0.00  0.00    +0.000 C 
ENDBRANCH  14  16
ENDBRANCH  11  14
ENDBRANCH   9  11
ENDBRANCH   1   9
BRANCH   6  18
ATOM     18  C   UNL     1       3.273   4.460  18.460  0.00  0.00    +0.000 C 
ATOM     19  O   UNL     1       2.626   3.451  18.265  0.00  0.00    +0.000 OA
BRANCH  18  20
ATOM     20  C   UNL     1       2.680   5.605  19.176  0.00  0.00    +0.000 A 
ATOM     21  C   UNL     1       2.245   5.578  20.492  0.00  0.00    +0.000 A 
ATOM     22  N   UNL     1       1.770   6.816  20.827  0.00  0.00    +0.000 N 
ATOM     23  C   UNL     1       1.881   7.657  19.759  0.00  0.00    +0.000 A 
ATOM     24  N   UNL     1       1.504   8.946  19.769  0.00  0.00    +0.000 NA
ATOM     25  C   UNL     1       1.727   9.535  18.582  0.00  0.00    +0.000 A 
ATOM     26  N   UNL     1       2.249   8.978  17.471  0.00  0.00    +0.000 NA
ATOM     27  C   UNL     1       2.616   7.670  17.524  0.00  0.00    +0.000 A 
ATOM     28  C   UNL     1       2.444   6.946  18.706  0.00  0.00    +0.000 A 
ATOM     29  H   UNL     1       1.395   7.089  21.724  0.00  0.00    +0.000 HD
ENDBRANCH  18  20
ENDBRANCH   6  18
TORSDOF 6
ENDMDL
MODEL 6
REMARK VINA RESULT:      -7.7      3.092      7.293
REMARK  Name = 
REMARK  8 active torsions:
REMARK  status: ('A' for Active; 'I' for Inactive)
REMARK    1  A    between atoms: C_1  and  C_2
REMARK    2  A    between atoms: C_2  and  C_3
REMARK    3  A    between atoms: C_2  and  C_4
REMARK    4  A    between atoms: C_4  and  S_5
REMARK    5  A    between atoms: S_5  and  N_8
REMARK    6  A    between atoms: N_8  and  C_9
REMARK    7  A    between atoms: C_14  and  C_15
REMARK    8  A    between atoms: C_15  and  C_17
REMARK                            x       y       z     vdW  Elec       q    Type
REMARK                         _______ _______ _______ _____ _____    ______ ____
ROOT
ATOM      1  C   UNL     1       1.854   8.487  19.267  0.00  0.00    +0.000 A 
ATOM      2  C   UNL     1       1.432   8.209  20.567  0.00  0.00    +0.000 A 
ATOM      3  C   UNL     1       1.506   6.909  21.063  0.00  0.00    +0.000 A 
ATOM      4  C   UNL     1       2.002   5.880  20.265  0.00  0.00    +0.000 A 
ATOM      5  F   UNL     1       2.103   4.676  20.844  0.00  0.00    +0.000 F 
ATOM      6  C   UNL     1       2.383   6.106  18.940  0.00  0.00    +0.000 A 
ATOM      7  C   UNL     1       2.334   7.432  18.464  0.00  0.00    +0.000 A 
ATOM      8  F   UNL     1       2.699   7.726  17.206  0.00  0.00    +0.000 F 
ENDROOT
BRANCH   1   9
ATOM      9  N   UNL     1       1.810   9.854  18.773  0.00  0.00    +0.000 N 
ATOM     10  H   UNL     1       2.672  10.360  18.995  0.00  0.00    +0.000 HD
BRANCH   9  11
ATOM     11  S   UNL     1       0.458  10.778  19.289  0.00  0.00    +0.000 S 
ATOM     12  O   UNL     1      -0.706   9.937  19.120  0.00  0.00    +0.000 OA
ATOM     13  O   UNL     1       0.554  12.085  18.672  0.00  0.00    +0.000 OA
BRANCH  11  14
ATOM     14  C   UNL     1       0.734  10.980  21.067  0.00  0.00    +0.000 C 
BRANCH  14  16
ATOM     15  C   UNL     1      -0.496  10.005  23.065  0.00  0.00    +0.000 C 
ATOM     16  C   UNL     1      -0.587  10.971  21.878  0.00  0.00    +0.000 C 
ATOM     17  C   UNL     1      -0.986  12.349  22.420  0.00  0.00    +0.000 C 
ENDBRANCH  14  16
ENDBRANCH  11  14
ENDBRANCH   9  11
ENDBRANCH   1   9
BRANCH   6  18
ATOM     18  C   UNL     1       2.908   5.001  18.076  0.00  0.00    +0.000 C 
ATOM     19  O   UNL     1       2.131   4.322  17.436  0.00  0.00    +0.000 OA
BRANCH  18  20
ATOM     20  C   UNL     1       4.360   4.756  17.997  0.00  0.00    +0.000 A 
ATOM     21  C   UNL     1       5.137   4.253  19.029  0.00  0.00    +0.000 A 
ATOM     22  N   UNL     1       6.430   4.142  18.597  0.00  0.00    +0.000 N 
ATOM     23  C   UNL     1       6.522   4.563  17.303  0.00  0.00    +0.000 A 
ATOM     24  N   UNL     1       7.660   4.575  16.589  0.00  0.00    +0.000 NA
ATOM     25  C   UNL     1       7.458   5.040  15.345  0.00  0.00    +0.000 A 
ATOM     26  N   UNL     1       6.301   5.468  14.803  0.00  0.00    +0.000 NA
ATOM     27  C   UNL     1       5.181   5.427  15.573  0.00  0.00    +0.000 A 
ATOM     28  C   UNL     1       5.255   4.956  16.886  0.00  0.00    +0.000 A 
ATOM     29  H   UNL     1       7.212   3.798  19.135  0.00  0.00    +0.000 HD
ENDBRANCH  18  20
ENDBRANCH   6  18
TORSDOF 6
ENDMDL
MODEL 7
REMARK VINA RESULT:      -7.6      3.580      5.102
REMARK  Name = 
REMARK  8 active torsions:
REMARK  status: ('A' for Active; 'I' for Inactive)
REMARK    1  A    between atoms: C_1  and  C_2
REMARK    2  A    between atoms: C_2  and  C_3
REMARK    3  A    between atoms: C_2  and  C_4
REMARK    4  A    between atoms: C_4  and  S_5
REMARK    5  A    between atoms: S_5  and  N_8
REMARK    6  A    between atoms: N_8  and  C_9
REMARK    7  A    between atoms: C_14  and  C_15
REMARK    8  A    between atoms: C_15  and  C_17
REMARK                            x       y       z     vdW  Elec       q    Type
REMARK                         _______ _______ _______ _____ _____    ______ ____
ROOT
ATOM      1  C   UNL     1       2.127   7.193  18.944  0.00  0.00    +0.000 A 
ATOM      2  C   UNL     1       1.874   6.906  20.285  0.00  0.00    +0.000 A 
ATOM      3  C   UNL     1       1.352   7.889  21.123  0.00  0.00    +0.000 A 
ATOM      4  C   UNL     1       1.081   9.163  20.629  0.00  0.00    +0.000 A 
ATOM      5  F   UNL     1       0.517  10.026  21.484  0.00  0.00    +0.000 F 
ATOM      6  C   UNL     1       1.373   9.507  19.306  0.00  0.00    +0.000 A 
ATOM      7  C   UNL     1       1.868   8.493  18.462  0.00  0.00    +0.000 A 
ATOM      8  F   UNL     1       2.157   8.747  17.176  0.00  0.00    +0.000 F 
ENDROOT
BRANCH   1   9
ATOM      9  N   UNL     1       2.633   6.149  18.067  0.00  0.00    +0.000 N 
ATOM     10  H   UNL     1       2.212   5.242  18.284  0.00  0.00    +0.000 HD
BRANCH   9  11
ATOM     11  S   UNL     1       4.343   5.988  18.028  0.00  0.00    +0.000 S 
ATOM     12  O   UNL     1       4.740   5.488  19.325  0.00  0.00    +0.000 OA
ATOM     13  O   UNL     1       4.889   7.212  17.479  0.00  0.00    +0.000 OA
BRANCH  11  14
ATOM     14  C   UNL     1       4.618   4.665  16.823  0.00  0.00    +0.000 C 
BRANCH  14  16
ATOM     15  C   UNL     1       7.148   4.542  16.611  0.00  0.00    +0.000 C 
ATOM     16  C   UNL     1       5.843   4.939  15.911  0.00  0.00    +0.000 C 
ATOM     17  C   UNL     1       5.784   4.204  14.567  0.00  0.00    +0.000 C 
ENDBRANCH  14  16
ENDBRANCH  11  14
ENDBRANCH   9  11
ENDBRANCH   1   9
BRANCH   6  18
ATOM     18  C   UNL     1       1.092  10.878  18.772  0.00  0.00    +0.000 C 
ATOM     19  O   UNL     1       2.008  11.554  18.349  0.00  0.00    +0.000 OA
BRANCH  18  20
ATOM     20  C   UNL     1      -0.291  11.390  18.750  0.00  0.00    +0.000 A 
ATOM     21  C   UNL     1      -0.740  12.495  19.456  0.00  0.00    +0.000 A 
ATOM     22  N   UNL     1      -2.066  12.686  19.186  0.00  0.00    +0.000 N 
ATOM     23  C   UNL     1      -2.502  11.729  18.318  0.00  0.00    +0.000 A 
ATOM     24  N   UNL     1      -3.760  11.645  17.853  0.00  0.00    +0.000 NA
ATOM     25  C   UNL     1      -3.908  10.605  17.015  0.00  0.00    +0.000 A 
ATOM     26  N   UNL     1      -2.974   9.709  16.640  0.00  0.00    +0.000 NA
ATOM     27  C   UNL     1      -1.717   9.849  17.139  0.00  0.00    +0.000 A 
ATOM     28  C   UNL     1      -1.429  10.897  18.017  0.00  0.00    +0.000 A 
ATOM     29  H   UNL     1      -2.651  13.420  19.556  0.00  0.00    +0.000 HD
ENDBRANCH  18  20
ENDBRANCH   6  18
TORSDOF 6
ENDMDL
MODEL 8
REMARK VINA RESULT:      -7.6      2.804      6.928
REMARK  Name = 
REMARK  8 active torsions:
REMARK  status: ('A' for Active; 'I' for Inactive)
REMARK    1  A    between atoms: C_1  and  C_2
REMARK    2  A    between atoms: C_2  and  C_3
REMARK    3  A    between atoms: C_2  and  C_4
REMARK    4  A    between atoms: C_4  and  S_5
REMARK    5  A    between atoms: S_5  and  N_8
REMARK    6  A    between atoms: N_8  and  C_9
REMARK    7  A    between atoms: C_14  and  C_15
REMARK    8  A    between atoms: C_15  and  C_17
REMARK                            x       y       z     vdW  Elec       q    Type
REMARK                         _______ _______ _______ _____ _____    ______ ____
ROOT
ATOM      1  C   UNL     1       1.907   6.786  19.889  0.00  0.00    +0.000 A 
ATOM      2  C   UNL     1       1.516   6.032  20.996  0.00  0.00    +0.000 A 
ATOM      3  C   UNL     1       1.637   4.645  20.974  0.00  0.00    +0.000 A 
ATOM      4  C   UNL     1       2.146   4.001  19.848  0.00  0.00    +0.000 A 
ATOM      5  F   UNL     1       2.293   2.673  19.937  0.00  0.00    +0.000 F 
ATOM      6  C   UNL     1       2.496   4.715  18.699  0.00  0.00    +0.000 A 
ATOM      7  C   UNL     1       2.401   6.120  18.749  0.00  0.00    +0.000 A 
ATOM      8  F   UNL     1       2.734   6.871  17.687  0.00  0.00    +0.000 F 
ENDROOT
BRANCH   1   9
ATOM      9  N   UNL     1       1.815   8.237  19.937  0.00  0.00    +0.000 N 
ATOM     10  H   UNL     1       2.742   8.670  19.929  0.00  0.00    +0.000 HD
BRANCH   9  11
ATOM     11  S   UNL     1       0.901   8.871  21.245  0.00  0.00    +0.000 S 
ATOM     12  O   UNL     1       1.789   8.921  22.385  0.00  0.00    +0.000 OA
ATOM     13  O   UNL     1      -0.361   8.160  21.288  0.00  0.00    +0.000 OA
BRANCH  11  14
ATOM     14  C   UNL     1       0.562  10.576  20.741  0.00  0.00    +0.000 C 
BRANCH  14  16
ATOM     15  C   UNL     1      -0.858  11.454  22.657  0.00  0.00    +0.000 C 
ATOM     16  C   UNL     1      -0.847  11.056  21.176  0.00  0.00    +0.000 C 
ATOM     17  C   UNL     1      -1.371  12.245  20.363  0.00  0.00    +0.000 C 
ENDBRANCH  14  16
ENDBRANCH  11  14
ENDBRANCH   9  11
ENDBRANCH   1   9
BRANCH   6  18
ATOM     18  C   UNL     1       3.036   4.027  17.483  0.00  0.00    +0.000 C 
ATOM     19  O   UNL     1       2.278   3.422  16.752  0.00  0.00    +0.000 OA
BRANCH  18  20
ATOM     20  C   UNL     1       4.477   4.101  17.174  0.00  0.00    +0.000 A 
ATOM     21  C   UNL     1       5.050   3.720  15.970  0.00  0.00    +0.000 A 
ATOM     22  N   UNL     1       6.398   3.940  16.032  0.00  0.00    +0.000 N 
ATOM     23  C   UNL     1       6.726   4.456  17.252  0.00  0.00    +0.000 A 
ATOM     24  N   UNL     1       7.973   4.785  17.624  0.00  0.00    +0.000 NA
ATOM     25  C   UNL     1       8.004   5.268  18.877  0.00  0.00    +0.000 A 
ATOM     26  N   UNL     1       6.967   5.429  19.724  0.00  0.00    +0.000 NA
ATOM     27  C   UNL     1       5.727   5.083  19.288  0.00  0.00    +0.000 A 
ATOM     28  C   UNL     1       5.559   4.574  17.998  0.00  0.00    +0.000 A 
ATOM     29  H   UNL     1       7.067   3.761  15.298  0.00  0.00    +0.000 HD
ENDBRANCH  18  20
ENDBRANCH   6  18
TORSDOF 6
ENDMDL
MODEL 9
REMARK VINA RESULT:      -7.6      2.479      4.442
REMARK  Name = 
REMARK  8 active torsions:
REMARK  status: ('A' for Active; 'I' for Inactive)
REMARK    1  A    between atoms: C_1  and  C_2
REMARK    2  A    between atoms: C_2  and  C_3
REMARK    3  A    between atoms: C_2  and  C_4
REMARK    4  A    between atoms: C_4  and  S_5
REMARK    5  A    between atoms: S_5  and  N_8
REMARK    6  A    between atoms: N_8  and  C_9
REMARK    7  A    between atoms: C_14  and  C_15
REMARK    8  A    between atoms: C_15  and  C_17
REMARK                            x       y       z     vdW  Elec       q    Type
REMARK                         _______ _______ _______ _____ _____    ______ ____
ROOT
ATOM      1  C   UNL     1       4.327   4.175  17.325  0.00  0.00    +0.000 A 
ATOM      2  C   UNL     1       5.691   4.412  17.166  0.00  0.00    +0.000 A 
ATOM      3  C   UNL     1       6.185   5.714  17.221  0.00  0.00    +0.000 A 
ATOM      4  C   UNL     1       5.320   6.785  17.434  0.00  0.00    +0.000 A 
ATOM      5  F   UNL     1       5.886   7.994  17.543  0.00  0.00    +0.000 F 
ATOM      6  C   UNL     1       3.940   6.595  17.543  0.00  0.00    +0.000 A 
ATOM      7  C   UNL     1       3.460   5.270  17.520  0.00  0.00    +0.000 A 
ATOM      8  F   UNL     1       2.148   5.010  17.633  0.00  0.00    +0.000 F 
ENDROOT
BRANCH   1   9
ATOM      9  N   UNL     1       3.826   2.809  17.306  0.00  0.00    +0.000 N 
ATOM     10  H   UNL     1       2.896   2.757  16.882  0.00  0.00    +0.000 HD
BRANCH   9  11
ATOM     11  S   UNL     1       3.803   2.015  18.829  0.00  0.00    +0.000 S 
ATOM     12  O   UNL     1       4.629   2.803  19.718  0.00  0.00    +0.000 OA
ATOM     13  O   UNL     1       4.055   0.607  18.598  0.00  0.00    +0.000 OA
BRANCH  11  14
ATOM     14  C   UNL     1       2.087   2.192  19.376  0.00  0.00    +0.000 C 
BRANCH  14  16
ATOM     15  C   UNL     1       0.695   4.089  20.338  0.00  0.00    +0.000 C 
ATOM     16  C   UNL     1       1.935   3.209  20.538  0.00  0.00    +0.000 C 
ATOM     17  C   UNL     1       1.832   2.553  21.919  0.00  0.00    +0.000 C 
ENDBRANCH  14  16
ENDBRANCH  11  14
ENDBRANCH   9  11
ENDBRANCH   1   9
BRANCH   6  18
ATOM     18  C   UNL     1       3.006   7.744  17.764  0.00  0.00    +0.000 C 
ATOM     19  O   UNL     1       2.814   8.539  16.866  0.00  0.00    +0.000 OA
BRANCH  18  20
ATOM     20  C   UNL     1       2.315   7.893  19.059  0.00  0.00    +0.000 A 
ATOM     21  C   UNL     1       2.468   7.040  20.141  0.00  0.00    +0.000 A 
ATOM     22  N   UNL     1       1.691   7.490  21.173  0.00  0.00    +0.000 N 
ATOM     23  C   UNL     1       1.029   8.620  20.793  0.00  0.00    +0.000 A 
ATOM     24  N   UNL     1       0.189   9.308  21.584  0.00  0.00    +0.000 NA
ATOM     25  C   UNL     1      -0.322  10.377  20.951  0.00  0.00    +0.000 A 
ATOM     26  N   UNL     1      -0.084  10.777  19.686  0.00  0.00    +0.000 NA
ATOM     27  C   UNL     1       0.780  10.044  18.935  0.00  0.00    +0.000 A 
ATOM     28  C   UNL     1       1.387   8.910  19.481  0.00  0.00    +0.000 A 
ATOM     29  H   UNL     1       1.610   7.069  22.087  0.00  0.00    +0.000 HD
ENDBRANCH  18  20
ENDBRANCH   6  18
TORSDOF 6
ENDMDL
